MODEL 1
REMARK VINA RESULT:      -6.3      0.000      0.000
REMARK  5 active torsions:
REMARK  status: ('A' for Active; 'I' for Inactive)
REMARK    1  A    between atoms: C_15  and  O_4 
REMARK    2  A    between atoms: O_5  and  C_18 
REMARK    3  A    between atoms: C_14  and  N_6 
REMARK    4  A    between atoms: N_13  and  C_22 
REMARK    5  A    between atoms: C_17  and  C_18 
ROOT
HETATM    1 Cl   UNK N   1      25.942  20.868   2.683  0.00  0.00    -0.045 Cl
HETATM    2  N   UNK N   1      22.321  17.853   4.706  0.00  0.00    -0.297 N 
HETATM    3  N   UNK N   1      23.739  16.574   5.897  0.00  0.00    -0.346 N 
ATOM      4  HN  UNK N   1      24.108  15.855   6.519  1.00  0.00     0.167 HD
HETATM    5  N   UNK N   1      24.001  19.305   3.732  0.00  0.00    -0.316 N 
ATOM      6  HN  UNK N   1      23.339  19.871   3.201  1.00  0.00     0.170 HD
HETATM    7  N   UNK N   1      26.230  18.786   4.393  0.00  0.00    -0.317 N 
ATOM      8  HN  UNK N   1      27.229  18.986   4.341  1.00  0.00     0.170 HD
HETATM    9  C   UNK N   1      23.576  18.280   4.512  0.00  0.00     0.144 A 
HETATM   10  C   UNK N   1      22.438  16.804   5.563  0.00  0.00     0.188 A 
HETATM   11  C   UNK N   1      24.427  17.513   5.222  0.00  0.00     0.122 A 
HETATM   12  C   UNK N   1      25.790  17.756   5.176  0.00  0.00     0.132 A 
HETATM   13  C   UNK N   1      25.346  19.557   3.676  0.00  0.00     0.182 A 
ENDROOT
BRANCH   2  14
HETATM   14  C   UNK N   1      21.065  18.361   4.141  0.00  0.00     0.267 C 
HETATM   15  O   UNK N   1      21.035  19.769   4.082  0.00  0.00    -0.353 OA
HETATM   16  C   UNK N   1      20.172  20.087   3.003  0.00  0.00     0.179 C 
HETATM   17  C   UNK N   1      19.827  18.821   2.232  0.00  0.00     0.187 C 
HETATM   18  C   UNK N   1      20.883  17.876   2.725  0.00  0.00     0.250 C 
HETATM   19  F   UNK N   1      20.492  16.549   2.658  0.00  0.00    -0.242 F 
BRANCH  16  20
HETATM   20  C   UNK N   1      20.815  21.114   2.091  0.00  0.00     0.198 C 
BRANCH  20  21
HETATM   21  O   UNK N   1      21.999  21.563   2.676  0.00  0.00    -0.398 OA
HETATM   22  H   UNK N   1      22.257  21.400   3.597  0.00  0.00     0.209 HD
ENDBRANCH  20  21
ENDBRANCH  16  20
BRANCH  17  23
HETATM   23  O   UNK N   1      18.565  18.394   2.646  0.00  0.00    -0.390 OA
HETATM   24  H   UNK N   1      17.906  18.604   3.327  0.00  0.00     0.210 HD
ENDBRANCH  17  23
ENDBRANCH   2  14
BRANCH  12  25
HETATM   25  N   UNK N   1      26.702  16.966   5.905  0.00  0.00    -0.383 N 
HETATM   26  H   UNK N   1      26.555  15.997   5.994  0.00  0.00     0.157 HD
HETATM   27  H   UNK N   1      27.487  17.385   6.326  0.00  0.00     0.157 HD
ENDBRANCH  12  25
TORSDOF 5
ENDMDL
MODEL 2
REMARK VINA RESULT:      -5.8      3.037      4.900
REMARK  5 active torsions:
REMARK  status: ('A' for Active; 'I' for Inactive)
REMARK    1  A    between atoms: C_15  and  O_4 
REMARK    2  A    between atoms: O_5  and  C_18 
REMARK    3  A    between atoms: C_14  and  N_6 
REMARK    4  A    between atoms: N_13  and  C_22 
REMARK    5  A    between atoms: C_17  and  C_18 
ROOT
HETATM    1 Cl   UNK N   1      24.530  20.629   3.473  0.00  0.00    -0.045 Cl
HETATM    2  N   UNK N   1      20.363  17.668   3.888  0.00  0.00    -0.297 N 
HETATM    3  N   UNK N   1      19.257  18.602   2.166  0.00  0.00    -0.346 N 
ATOM      4  HN  UNK N   1      18.538  18.810   1.473  1.00  0.00     0.167 HD
HETATM    5  N   UNK N   1      22.354  19.043   3.723  0.00  0.00    -0.316 N 
ATOM      6  HN  UNK N   1      22.837  18.603   4.507  1.00  0.00     0.170 HD
HETATM    7  N   UNK N   1      22.277  20.652   1.969  0.00  0.00    -0.317 N 
ATOM      8  HN  UNK N   1      22.723  21.413   1.457  1.00  0.00     0.170 HD
HETATM    9  C   UNK N   1      21.118  18.633   3.345  0.00  0.00     0.144 A 
HETATM   10  C   UNK N   1      19.222  17.660   3.150  0.00  0.00     0.188 A 
HETATM   11  C   UNK N   1      20.455  19.196   2.316  0.00  0.00     0.122 A 
HETATM   12  C   UNK N   1      21.030  20.231   1.597  0.00  0.00     0.132 A 
HETATM   13  C   UNK N   1      22.936  20.065   3.022  0.00  0.00     0.182 A 
ENDROOT
BRANCH   2  14
HETATM   14  C   UNK N   1      20.652  16.790   5.029  0.00  0.00     0.267 C 
HETATM   15  O   UNK N   1      21.102  17.506   6.157  0.00  0.00    -0.353 OA
HETATM   16  C   UNK N   1      20.724  16.728   7.279  0.00  0.00     0.179 C 
HETATM   17  C   UNK N   1      19.815  15.591   6.832  0.00  0.00     0.187 C 
HETATM   18  C   UNK N   1      19.409  16.055   5.465  0.00  0.00     0.250 C 
HETATM   19  F   UNK N   1      19.077  15.011   4.618  0.00  0.00    -0.242 F 
BRANCH  16  20
HETATM   20  C   UNK N   1      20.036  17.590   8.319  0.00  0.00     0.198 C 
BRANCH  20  21
HETATM   21  O   UNK N   1      20.424  18.917   8.138  0.00  0.00    -0.398 OA
HETATM   22  H   UNK N   1      20.829  19.473   8.822  0.00  0.00     0.209 HD
ENDBRANCH  20  21
ENDBRANCH  16  20
BRANCH  17  23
HETATM   23  O   UNK N   1      20.587  14.433   6.739  0.00  0.00    -0.390 OA
HETATM   24  H   UNK N   1      20.501  13.478   6.894  0.00  0.00     0.210 HD
ENDBRANCH  17  23
ENDBRANCH   2  14
BRANCH  12  25
HETATM   25  N   UNK N   1      20.357  20.841   0.519  0.00  0.00    -0.383 N 
HETATM   26  H   UNK N   1      19.779  21.622   0.676  0.00  0.00     0.157 HD
HETATM   27  H   UNK N   1      20.465  20.484  -0.392  0.00  0.00     0.157 HD
ENDBRANCH  12  25
TORSDOF 5
ENDMDL
MODEL 3
REMARK VINA RESULT:      -5.8      8.135     10.686
REMARK  5 active torsions:
REMARK  status: ('A' for Active; 'I' for Inactive)
REMARK    1  A    between atoms: C_15  and  O_4 
REMARK    2  A    between atoms: O_5  and  C_18 
REMARK    3  A    between atoms: C_14  and  N_6 
REMARK    4  A    between atoms: N_13  and  C_22 
REMARK    5  A    between atoms: C_17  and  C_18 
ROOT
HETATM    1 Cl   UNK N   1      29.425  18.603  10.100  0.00  0.00    -0.045 Cl
HETATM    2  N   UNK N   1      31.035  16.372   5.772  0.00  0.00    -0.297 N 
HETATM    3  N   UNK N   1      28.985  15.793   5.047  0.00  0.00    -0.346 N 
ATOM      4  HN  UNK N   1      28.228  15.413   4.478  1.00  0.00     0.167 HD
HETATM    5  N   UNK N   1      30.316  17.441   7.826  0.00  0.00    -0.316 N 
ATOM      6  HN  UNK N   1      31.255  17.694   8.134  1.00  0.00     0.170 HD
HETATM    7  N   UNK N   1      27.958  17.408   8.161  0.00  0.00    -0.317 N 
ATOM      8  HN  UNK N   1      27.150  17.648   8.737  1.00  0.00     0.170 HD
HETATM    9  C   UNK N   1      30.117  16.784   6.657  0.00  0.00     0.144 A 
HETATM   10  C   UNK N   1      30.322  15.766   4.786  0.00  0.00     0.188 A 
HETATM   11  C   UNK N   1      28.889  16.435   6.226  0.00  0.00     0.122 A 
HETATM   12  C   UNK N   1      27.769  16.745   6.981  0.00  0.00     0.132 A 
HETATM   13  C   UNK N   1      29.219  17.755   8.584  0.00  0.00     0.182 A 
ENDROOT
BRANCH   2  14
HETATM   14  C   UNK N   1      32.496  16.512   5.811  0.00  0.00     0.267 C 
HETATM   15  O   UNK N   1      32.902  17.748   6.352  0.00  0.00    -0.353 OA
HETATM   16  C   UNK N   1      34.179  17.514   6.921  0.00  0.00     0.179 C 
HETATM   17  C   UNK N   1      34.476  16.021   6.920  0.00  0.00     0.187 C 
HETATM   18  C   UNK N   1      33.110  15.447   6.686  0.00  0.00     0.250 C 
HETATM   19  F   UNK N   1      33.145  14.205   6.076  0.00  0.00    -0.242 F 
BRANCH  16  20
HETATM   20  C   UNK N   1      34.246  18.075   8.329  0.00  0.00     0.198 C 
BRANCH  20  21
HETATM   21  O   UNK N   1      35.223  19.069   8.376  0.00  0.00    -0.398 OA
HETATM   22  H   UNK N   1      35.188  19.902   7.880  0.00  0.00     0.209 HD
ENDBRANCH  20  21
ENDBRANCH  16  20
BRANCH  17  23
HETATM   23  O   UNK N   1      35.307  15.748   5.833  0.00  0.00    -0.390 OA
HETATM   24  H   UNK N   1      35.537  15.004   5.253  0.00  0.00     0.210 HD
ENDBRANCH  17  23
ENDBRANCH   2  14
BRANCH  12  25
HETATM   25  N   UNK N   1      26.474  16.387   6.556  0.00  0.00    -0.383 N 
HETATM   26  H   UNK N   1      26.330  16.045   5.644  0.00  0.00     0.157 HD
HETATM   27  H   UNK N   1      25.712  16.480   7.172  0.00  0.00     0.157 HD
ENDBRANCH  12  25
TORSDOF 5
ENDMDL
MODEL 4
REMARK VINA RESULT:      -5.7     11.728     13.775
REMARK  5 active torsions:
REMARK  status: ('A' for Active; 'I' for Inactive)
REMARK    1  A    between atoms: C_15  and  O_4 
REMARK    2  A    between atoms: O_5  and  C_18 
REMARK    3  A    between atoms: C_14  and  N_6 
REMARK    4  A    between atoms: N_13  and  C_22 
REMARK    5  A    between atoms: C_17  and  C_18 
ROOT
HETATM    1 Cl   UNK N   1      36.780  12.791   6.403  0.00  0.00    -0.045 Cl
HETATM    2  N   UNK N   1      35.038  16.163   9.851  0.00  0.00    -0.297 N 
HETATM    3  N   UNK N   1      36.356  15.459  11.533  0.00  0.00    -0.346 N 
ATOM      4  HN  UNK N   1      36.800  15.372  12.448  1.00  0.00     0.167 HD
HETATM    5  N   UNK N   1      35.838  14.589   8.189  0.00  0.00    -0.316 N 
ATOM      6  HN  UNK N   1      35.231  14.926   7.442  1.00  0.00     0.170 HD
HETATM    7  N   UNK N   1      37.518  13.104   8.991  0.00  0.00    -0.317 N 
ATOM      8  HN  UNK N   1      38.159  12.329   8.817  1.00  0.00     0.170 HD
HETATM    9  C   UNK N   1      35.808  15.154   9.421  0.00  0.00     0.144 A 
HETATM   10  C   UNK N   1      35.390  16.340  11.153  0.00  0.00     0.188 A 
HETATM   11  C   UNK N   1      36.596  14.729  10.429  0.00  0.00     0.122 A 
HETATM   12  C   UNK N   1      37.479  13.681  10.230  0.00  0.00     0.132 A 
HETATM   13  C   UNK N   1      36.706  13.552   7.977  0.00  0.00     0.182 A 
ENDROOT
BRANCH   2  14
HETATM   14  C   UNK N   1      34.023  16.936   9.126  0.00  0.00     0.267 C 
HETATM   15  O   UNK N   1      34.534  17.525   7.952  0.00  0.00    -0.353 OA
HETATM   16  C   UNK N   1      33.429  17.648   7.073  0.00  0.00     0.179 C 
HETATM   17  C   UNK N   1      32.231  16.906   7.649  0.00  0.00     0.187 C 
HETATM   18  C   UNK N   1      32.887  16.045   8.688  0.00  0.00     0.250 C 
HETATM   19  F   UNK N   1      32.034  15.712   9.728  0.00  0.00    -0.242 F 
BRANCH  16  20
HETATM   20  C   UNK N   1      33.781  17.116   5.698  0.00  0.00     0.198 C 
BRANCH  20  21
HETATM   21  O   UNK N   1      34.887  16.274   5.806  0.00  0.00    -0.398 OA
HETATM   22  H   UNK N   1      34.931  15.490   6.376  0.00  0.00     0.209 HD
ENDBRANCH  20  21
ENDBRANCH  16  20
BRANCH  17  23
HETATM   23  O   UNK N   1      31.394  17.842   8.256  0.00  0.00    -0.390 OA
HETATM   24  H   UNK N   1      31.347  18.365   9.073  0.00  0.00     0.210 HD
ENDBRANCH  17  23
ENDBRANCH   2  14
BRANCH  12  25
HETATM   25  N   UNK N   1      38.311  13.213  11.267  0.00  0.00    -0.383 N 
HETATM   26  H   UNK N   1      38.681  12.302  11.230  0.00  0.00     0.157 HD
HETATM   27  H   UNK N   1      38.521  13.799  12.030  0.00  0.00     0.157 HD
ENDBRANCH  12  25
TORSDOF 5
ENDMDL
MODEL 5
REMARK VINA RESULT:      -5.7     13.130     14.842
REMARK  5 active torsions:
REMARK  status: ('A' for Active; 'I' for Inactive)
REMARK    1  A    between atoms: C_15  and  O_4 
REMARK    2  A    between atoms: O_5  and  C_18 
REMARK    3  A    between atoms: C_14  and  N_6 
REMARK    4  A    between atoms: N_13  and  C_22 
REMARK    5  A    between atoms: C_17  and  C_18 
ROOT
HETATM    1 Cl   UNK N   1      34.019  10.401  12.912  0.00  0.00    -0.045 Cl
HETATM    2  N   UNK N   1      35.036  14.973  10.824  0.00  0.00    -0.297 N 
HETATM    3  N   UNK N   1      36.405  15.667  12.470  0.00  0.00    -0.346 N 
ATOM      4  HN  UNK N   1      37.039  16.238  13.029  1.00  0.00     0.167 HD
HETATM    5  N   UNK N   1      34.533  12.799  11.774  0.00  0.00    -0.316 N 
ATOM      6  HN  UNK N   1      33.917  12.506  11.016  1.00  0.00     0.170 HD
HETATM    7  N   UNK N   1      35.605  12.382  13.860  0.00  0.00    -0.317 N 
ATOM      8  HN  UNK N   1      35.774  11.759  14.649  1.00  0.00     0.170 HD
HETATM    9  C   UNK N   1      35.136  14.014  11.754  0.00  0.00     0.144 A 
HETATM   10  C   UNK N   1      35.825  15.983  11.278  0.00  0.00     0.188 A 
HETATM   11  C   UNK N   1      35.953  14.429  12.743  0.00  0.00     0.122 A 
HETATM   12  C   UNK N   1      36.207  13.609  13.830  0.00  0.00     0.132 A 
HETATM   13  C   UNK N   1      34.775  11.977  12.842  0.00  0.00     0.182 A 
ENDROOT
BRANCH   2  14
HETATM   14  C   UNK N   1      34.259  14.986   9.579  0.00  0.00     0.267 C 
HETATM   15  O   UNK N   1      33.529  16.180   9.415  0.00  0.00    -0.353 OA
HETATM   16  C   UNK N   1      33.388  16.352   8.015  0.00  0.00     0.179 C 
HETATM   17  C   UNK N   1      34.253  15.335   7.284  0.00  0.00     0.187 C 
HETATM   18  C   UNK N   1      35.170  14.881   8.381  0.00  0.00     0.250 C 
HETATM   19  F   UNK N   1      35.652  13.598   8.183  0.00  0.00    -0.242 F 
BRANCH  16  20
HETATM   20  C   UNK N   1      33.761  17.765   7.611  0.00  0.00     0.198 C 
BRANCH  20  21
HETATM   21  O   UNK N   1      34.452  17.724   6.400  0.00  0.00    -0.398 OA
HETATM   22  H   UNK N   1      34.799  18.501   5.935  0.00  0.00     0.209 HD
ENDBRANCH  20  21
ENDBRANCH  16  20
BRANCH  17  23
HETATM   23  O   UNK N   1      33.431  14.284   6.875  0.00  0.00    -0.390 OA
HETATM   24  H   UNK N   1      32.489  14.049   6.867  0.00  0.00     0.210 HD
ENDBRANCH  17  23
ENDBRANCH   2  14
BRANCH  12  25
HETATM   25  N   UNK N   1      37.053  14.021  14.879  0.00  0.00    -0.383 N 
HETATM   26  H   UNK N   1      36.827  14.817  15.412  0.00  0.00     0.157 HD
HETATM   27  H   UNK N   1      37.871  13.511  15.079  0.00  0.00     0.157 HD
ENDBRANCH  12  25
TORSDOF 5
ENDMDL
MODEL 6
REMARK VINA RESULT:      -5.6      7.688     10.163
REMARK  5 active torsions:
REMARK  status: ('A' for Active; 'I' for Inactive)
REMARK    1  A    between atoms: C_15  and  O_4 
REMARK    2  A    between atoms: O_5  and  C_18 
REMARK    3  A    between atoms: C_14  and  N_6 
REMARK    4  A    between atoms: N_13  and  C_22 
REMARK    5  A    between atoms: C_17  and  C_18 
ROOT
HETATM    1 Cl   UNK N   1      27.780  17.795   4.042  0.00  0.00    -0.045 Cl
HETATM    2  N   UNK N   1      31.390  16.693   7.513  0.00  0.00    -0.297 N 
HETATM    3  N   UNK N   1      30.242  17.478   9.282  0.00  0.00    -0.346 N 
ATOM      4  HN  UNK N   1      29.984  17.738  10.235  1.00  0.00     0.167 HD
HETATM    5  N   UNK N   1      29.707  17.193   5.841  0.00  0.00    -0.316 N 
ATOM      6  HN  UNK N   1      30.246  16.830   5.054  1.00  0.00     0.170 HD
HETATM    7  N   UNK N   1      27.744  18.217   6.718  0.00  0.00    -0.317 N 
ATOM      8  HN  UNK N   1      26.817  18.615   6.561  1.00  0.00     0.170 HD
HETATM    9  C   UNK N   1      30.202  17.158   7.102  0.00  0.00     0.144 A 
HETATM   10  C   UNK N   1      31.397  16.895   8.858  0.00  0.00     0.188 A 
HETATM   11  C   UNK N   1      29.514  17.632   8.160  0.00  0.00     0.122 A 
HETATM   12  C   UNK N   1      28.254  18.178   7.986  0.00  0.00     0.132 A 
HETATM   13  C   UNK N   1      28.461  17.730   5.652  0.00  0.00     0.182 A 
ENDROOT
BRANCH   2  14
HETATM   14  C   UNK N   1      32.478  16.095   6.731  0.00  0.00     0.267 C 
HETATM   15  O   UNK N   1      32.002  15.257   5.702  0.00  0.00    -0.353 OA
HETATM   16  C   UNK N   1      32.997  15.288   4.694  0.00  0.00     0.179 C 
HETATM   17  C   UNK N   1      34.029  16.358   5.023  0.00  0.00     0.187 C 
HETATM   18  C   UNK N   1      33.300  17.166   6.056  0.00  0.00     0.250 C 
HETATM   19  F   UNK N   1      34.153  17.819   6.929  0.00  0.00    -0.242 F 
BRANCH  16  20
HETATM   20  C   UNK N   1      32.372  15.542   3.336  0.00  0.00     0.198 C 
BRANCH  20  21
HETATM   21  O   UNK N   1      31.211  16.295   3.504  0.00  0.00    -0.398 OA
HETATM   22  H   UNK N   1      31.151  17.108   4.031  0.00  0.00     0.209 HD
ENDBRANCH  20  21
ENDBRANCH  16  20
BRANCH  17  23
HETATM   23  O   UNK N   1      35.135  15.729   5.594  0.00  0.00    -0.390 OA
HETATM   24  H   UNK N   1      35.380  14.865   5.961  0.00  0.00     0.210 HD
ENDBRANCH  17  23
ENDBRANCH   2  14
BRANCH  12  25
HETATM   25  N   UNK N   1      27.515  18.685   9.074  0.00  0.00    -0.383 N 
HETATM   26  H   UNK N   1      27.399  19.657   9.183  0.00  0.00     0.157 HD
HETATM   27  H   UNK N   1      27.115  18.066   9.726  0.00  0.00     0.157 HD
ENDBRANCH  12  25
TORSDOF 5
ENDMDL
MODEL 7
REMARK VINA RESULT:      -5.4      2.968      4.977
REMARK  5 active torsions:
REMARK  status: ('A' for Active; 'I' for Inactive)
REMARK    1  A    between atoms: C_15  and  O_4 
REMARK    2  A    between atoms: O_5  and  C_18 
REMARK    3  A    between atoms: C_14  and  N_6 
REMARK    4  A    between atoms: N_13  and  C_22 
REMARK    5  A    between atoms: C_17  and  C_18 
ROOT
HETATM    1 Cl   UNK N   1      24.622  20.462   3.519  0.00  0.00    -0.045 Cl
HETATM    2  N   UNK N   1      20.609  17.286   3.839  0.00  0.00    -0.297 N 
HETATM    3  N   UNK N   1      19.317  18.416   2.385  0.00  0.00    -0.346 N 
ATOM      4  HN  UNK N   1      18.530  18.693   1.798  1.00  0.00     0.167 HD
HETATM    5  N   UNK N   1      22.531  18.759   3.713  0.00  0.00    -0.316 N 
ATOM      6  HN  UNK N   1      23.099  18.229   4.375  1.00  0.00     0.170 HD
HETATM    7  N   UNK N   1      22.238  20.608   2.241  0.00  0.00    -0.317 N 
ATOM      8  HN  UNK N   1      22.610  21.457   1.814  1.00  0.00     0.170 HD
HETATM    9  C   UNK N   1      21.279  18.355   3.387  0.00  0.00     0.144 A 
HETATM   10  C   UNK N   1      19.404  17.337   3.211  0.00  0.00     0.188 A 
HETATM   11  C   UNK N   1      20.504  19.035   2.518  0.00  0.00     0.122 A 
HETATM   12  C   UNK N   1      20.976  20.191   1.920  0.00  0.00     0.132 A 
HETATM   13  C   UNK N   1      23.012  19.901   3.129  0.00  0.00     0.182 A 
ENDROOT
BRANCH   2  14
HETATM   14  C   UNK N   1      21.031  16.261   4.802  0.00  0.00     0.267 C 
HETATM   15  O   UNK N   1      22.339  15.798   4.554  0.00  0.00    -0.353 OA
HETATM   16  C   UNK N   1      22.839  15.374   5.811  0.00  0.00     0.179 C 
HETATM   17  C   UNK N   1      21.876  15.793   6.913  0.00  0.00     0.187 C 
HETATM   18  C   UNK N   1      21.040  16.817   6.204  0.00  0.00     0.250 C 
HETATM   19  F   UNK N   1      19.770  16.941   6.741  0.00  0.00    -0.242 F 
BRANCH  16  20
HETATM   20  C   UNK N   1      24.220  15.948   6.056  0.00  0.00     0.198 C 
BRANCH  20  21
HETATM   21  O   UNK N   1      24.296  17.214   5.474  0.00  0.00    -0.398 OA
HETATM   22  H   UNK N   1      24.990  17.498   4.858  0.00  0.00     0.209 HD
ENDBRANCH  20  21
ENDBRANCH  16  20
BRANCH  17  23
HETATM   23  O   UNK N   1      21.099  14.685   7.251  0.00  0.00    -0.390 OA
HETATM   24  H   UNK N   1      20.977  13.762   6.977  0.00  0.00     0.210 HD
ENDBRANCH  17  23
ENDBRANCH   2  14
BRANCH  12  25
HETATM   25  N   UNK N   1      20.186  20.925   1.011  0.00  0.00    -0.383 N 
HETATM   26  H   UNK N   1      19.391  21.411   1.329  0.00  0.00     0.157 HD
HETATM   27  H   UNK N   1      20.430  20.950   0.058  0.00  0.00     0.157 HD
ENDBRANCH  12  25
TORSDOF 5
ENDMDL
MODEL 8
REMARK VINA RESULT:      -5.4     11.891     14.201
REMARK  5 active torsions:
REMARK  status: ('A' for Active; 'I' for Inactive)
REMARK    1  A    between atoms: C_15  and  O_4 
REMARK    2  A    between atoms: O_5  and  C_18 
REMARK    3  A    between atoms: C_14  and  N_6 
REMARK    4  A    between atoms: N_13  and  C_22 
REMARK    5  A    between atoms: C_17  and  C_18 
ROOT
HETATM    1 Cl   UNK N   1      36.183  10.852   9.304  0.00  0.00    -0.045 Cl
HETATM    2  N   UNK N   1      35.276  15.873   9.818  0.00  0.00    -0.297 N 
HETATM    3  N   UNK N   1      35.999  16.011  11.944  0.00  0.00    -0.346 N 
ATOM      4  HN  UNK N   1      36.245  16.378  12.864  1.00  0.00     0.167 HD
HETATM    5  N   UNK N   1      35.695  13.502   9.531  0.00  0.00    -0.316 N 
ATOM      6  HN  UNK N   1      35.362  13.464   8.567  1.00  0.00     0.170 HD
HETATM    7  N   UNK N   1      36.601  12.439  11.460  0.00  0.00    -0.317 N 
ATOM      8  HN  UNK N   1      36.942  11.592  11.916  1.00  0.00     0.170 HD
HETATM    9  C   UNK N   1      35.690  14.666  10.226  0.00  0.00     0.144 A 
HETATM   10  C   UNK N   1      35.475  16.691  10.886  0.00  0.00     0.188 A 
HETATM   11  C   UNK N   1      36.120  14.746  11.501  0.00  0.00     0.122 A 
HETATM   12  C   UNK N   1      36.591  13.618  12.152  0.00  0.00     0.132 A 
HETATM   13  C   UNK N   1      36.158  12.378  10.161  0.00  0.00     0.182 A 
ENDROOT
BRANCH   2  14
HETATM   14  C   UNK N   1      34.718  16.278   8.522  0.00  0.00     0.267 C 
HETATM   15  O   UNK N   1      33.600  15.502   8.153  0.00  0.00    -0.353 OA
HETATM   16  C   UNK N   1      32.814  16.337   7.321  0.00  0.00     0.179 C 
HETATM   17  C   UNK N   1      33.363  17.757   7.354  0.00  0.00     0.187 C 
HETATM   18  C   UNK N   1      34.242  17.708   8.569  0.00  0.00     0.250 C 
HETATM   19  F   UNK N   1      35.280  18.622   8.519  0.00  0.00    -0.242 F 
BRANCH  16  20
HETATM   20  C   UNK N   1      31.363  16.312   7.759  0.00  0.00     0.198 C 
BRANCH  20  21
HETATM   21  O   UNK N   1      31.310  16.202   9.149  0.00  0.00    -0.398 OA
HETATM   22  H   UNK N   1      31.178  15.372   9.633  0.00  0.00     0.209 HD
ENDBRANCH  20  21
ENDBRANCH  16  20
BRANCH  17  23
HETATM   23  O   UNK N   1      34.134  17.948   6.207  0.00  0.00    -0.390 OA
HETATM   24  H   UNK N   1      34.208  17.597   5.305  0.00  0.00     0.210 HD
ENDBRANCH  17  23
ENDBRANCH   2  14
BRANCH  12  25
HETATM   25  N   UNK N   1      37.043  13.673  13.486  0.00  0.00    -0.383 N 
HETATM   26  H   UNK N   1      36.542  14.193  14.156  0.00  0.00     0.157 HD
HETATM   27  H   UNK N   1      37.860  13.191  13.748  0.00  0.00     0.157 HD
ENDBRANCH  12  25
TORSDOF 5
ENDMDL
MODEL 9
REMARK VINA RESULT:      -5.4      5.836      7.732
REMARK  5 active torsions:
REMARK  status: ('A' for Active; 'I' for Inactive)
REMARK    1  A    between atoms: C_15  and  O_4 
REMARK    2  A    between atoms: O_5  and  C_18 
REMARK    3  A    between atoms: C_14  and  N_6 
REMARK    4  A    between atoms: N_13  and  C_22 
REMARK    5  A    between atoms: C_17  and  C_18 
ROOT
HETATM    1 Cl   UNK N   1      26.362  15.695   6.500  0.00  0.00    -0.045 Cl
HETATM    2  N   UNK N   1      21.709  13.745   7.422  0.00  0.00    -0.297 N 
HETATM    3  N   UNK N   1      20.672  14.855   5.762  0.00  0.00    -0.346 N 
ATOM      4  HN  UNK N   1      19.953  15.199   5.126  1.00  0.00     0.167 HD
HETATM    5  N   UNK N   1      23.927  14.639   7.017  0.00  0.00    -0.316 N 
ATOM      6  HN  UNK N   1      24.375  14.125   7.775  1.00  0.00     0.170 HD
HETATM    7  N   UNK N   1      24.033  16.178   5.202  0.00  0.00    -0.317 N 
ATOM      8  HN  UNK N   1      24.584  16.807   4.617  1.00  0.00     0.170 HD
HETATM    9  C   UNK N   1      22.600  14.504   6.769  0.00  0.00     0.144 A 
HETATM   10  C   UNK N   1      20.528  13.971   6.788  0.00  0.00     0.188 A 
HETATM   11  C   UNK N   1      21.980  15.172   5.777  0.00  0.00     0.122 A 
HETATM   12  C   UNK N   1      22.695  16.034   4.962  0.00  0.00     0.132 A 
HETATM   13  C   UNK N   1      24.647  15.488   6.219  0.00  0.00     0.182 A 
ENDROOT
BRANCH   2  14
HETATM   14  C   UNK N   1      21.908  12.857   8.574  0.00  0.00     0.267 C 
HETATM   15  O   UNK N   1      23.178  12.246   8.567  0.00  0.00    -0.353 OA
HETATM   16  C   UNK N   1      23.485  11.989   9.926  0.00  0.00     0.179 C 
HETATM   17  C   UNK N   1      22.455  12.664  10.821  0.00  0.00     0.187 C 
HETATM   18  C   UNK N   1      21.819  13.630   9.866  0.00  0.00     0.250 C 
HETATM   19  F   UNK N   1      20.517  13.951  10.212  0.00  0.00    -0.242 F 
BRANCH  16  20
HETATM   20  C   UNK N   1      24.884  12.470  10.257  0.00  0.00     0.198 C 
BRANCH  20  21
HETATM   21  O   UNK N   1      25.036  12.504  11.643  0.00  0.00    -0.398 OA
HETATM   22  H   UNK N   1      25.883  12.615  12.104  0.00  0.00     0.209 HD
ENDBRANCH  20  21
ENDBRANCH  16  20
BRANCH  17  23
HETATM   23  O   UNK N   1      21.530  11.699  11.220  0.00  0.00    -0.390 OA
HETATM   24  H   UNK N   1      21.142  11.347  12.037  0.00  0.00     0.210 HD
ENDBRANCH  17  23
ENDBRANCH   2  14
BRANCH  12  25
HETATM   25  N   UNK N   1      22.071  16.749   3.919  0.00  0.00    -0.383 N 
HETATM   26  H   UNK N   1      21.205  16.445   3.562  0.00  0.00     0.157 HD
HETATM   27  H   UNK N   1      22.501  17.552   3.549  0.00  0.00     0.157 HD
ENDBRANCH  12  25
TORSDOF 5
ENDMDL
