MODEL 1
REMARK VINA RESULT:      -4.4      0.000      0.000
REMARK  21 active torsions:
REMARK  status: ('A' for Active; 'I' for Inactive)
REMARK    1  A    between atoms: O_1  and  C_22 
REMARK    2  A    between atoms: C_2  and  C_3 
REMARK    3  A    between atoms: C_2  and  C_4 
REMARK    4  A    between atoms: C_3  and  C_5 
REMARK    5  A    between atoms: C_4  and  C_6 
REMARK    6  A    between atoms: C_5  and  C_7 
REMARK    7  A    between atoms: C_6  and  C_8 
REMARK    8  A    between atoms: C_7  and  C_9 
REMARK    9  A    between atoms: C_8  and  C_10 
REMARK   10  A    between atoms: C_9  and  C_11 
REMARK   11  A    between atoms: C_10  and  C_12 
REMARK   12  A    between atoms: C_11  and  C_13 
REMARK   13  A    between atoms: C_12  and  C_14 
REMARK   14  A    between atoms: C_13  and  C_15 
REMARK   15  A    between atoms: C_14  and  C_16 
REMARK   16  A    between atoms: C_15  and  C_17 
REMARK   17  A    between atoms: C_16  and  C_18 
REMARK   18  A    between atoms: C_17  and  C_19 
REMARK   19  A    between atoms: C_18  and  C_20 
REMARK   20  A    between atoms: C_19  and  C_21 
REMARK   21  A    between atoms: C_20  and  C_22 
ROOT
HETATM    1  C   UNK N   1      28.174  29.054  -5.295  0.00  0.00     0.000 C 
ENDROOT
BRANCH   1   2
HETATM    2  C   UNK N   1      27.237  30.022  -4.778  0.00  0.00     0.000 C 
BRANCH   2   3
HETATM    3  C   UNK N   1      26.777  29.256  -3.642  0.00  0.00     0.000 C 
BRANCH   3   4
HETATM    4  C   UNK N   1      25.719  28.411  -4.141  0.00  0.00     0.000 C 
BRANCH   4   5
HETATM    5  C   UNK N   1      25.971  27.212  -3.357  0.00  0.00     0.000 C 
BRANCH   5   6
HETATM    6  C   UNK N   1      25.930  26.153  -4.341  0.00  0.00     0.000 C 
BRANCH   6   7
HETATM    7  C   UNK N   1      25.140  26.698  -5.448  0.00  0.00     0.000 C 
BRANCH   7   8
HETATM    8  C   UNK N   1      25.656  25.900  -6.559  0.00  0.00     0.000 C 
BRANCH   8   9
HETATM    9  C   UNK N   1      25.842  24.505  -6.127  0.00  0.00     0.000 C 
BRANCH   9  10
HETATM   10  C   UNK N   1      26.090  23.838  -7.432  0.00  0.00    -0.000 C 
BRANCH  10  11
HETATM   11  C   UNK N   1      26.296  22.376  -7.239  0.00  0.00    -0.005 C 
HETATM   12  C   UNK N   1      24.918  21.767  -7.216  0.00  0.00     0.005 C 
ENDBRANCH  10  11
ENDBRANCH   9  10
ENDBRANCH   8   9
ENDBRANCH   7   8
ENDBRANCH   6   7
ENDBRANCH   5   6
ENDBRANCH   4   5
ENDBRANCH   3   4
ENDBRANCH   2   3
ENDBRANCH   1   2
BRANCH   1  13
HETATM   13  C   UNK N   1      28.176  29.242  -6.721  0.00  0.00     0.000 C 
BRANCH  13  14
HETATM   14  C   UNK N   1      28.536  27.900  -7.136  0.00  0.00     0.000 C 
BRANCH  14  15
HETATM   15  C   UNK N   1      29.153  27.348  -5.955  0.00  0.00     0.000 C 
BRANCH  15  16
HETATM   16  C   UNK N   1      29.330  25.945  -6.296  0.00  0.00     0.000 C 
BRANCH  16  17
HETATM   17  C   UNK N   1      29.350  25.353  -4.973  0.00  0.00     0.000 C 
BRANCH  17  18
HETATM   18  C   UNK N   1      30.560  25.824  -4.301  0.00  0.00     0.000 C 
BRANCH  18  19
HETATM   19  C   UNK N   1      30.897  24.622  -3.532  0.00  0.00     0.000 C 
BRANCH  19  20
HETATM   20  C   UNK N   1      29.681  23.988  -3.009  0.00  0.00     0.002 C 
BRANCH  20  21
HETATM   21  C   UNK N   1      30.222  22.795  -2.336  0.00  0.00     0.026 C 
BRANCH  21  22
HETATM   22  C   UNK N   1      31.474  22.306  -3.006  0.00  0.00     0.164 C 
BRANCH  22  23
HETATM   23  O   UNK N   1      32.119  21.515  -2.157  0.00  0.00    -0.401 OA
HETATM   24  H   UNK N   1      33.084  21.427  -2.214  0.00  0.00     0.209 HD
ENDBRANCH  22  23
ENDBRANCH  21  22
ENDBRANCH  20  21
ENDBRANCH  19  20
ENDBRANCH  18  19
ENDBRANCH  17  18
ENDBRANCH  16  17
ENDBRANCH  15  16
ENDBRANCH  14  15
ENDBRANCH  13  14
ENDBRANCH   1  13
TORSDOF 21
ENDMDL
MODEL 2
REMARK VINA RESULT:      -4.4      1.326      4.280
REMARK  21 active torsions:
REMARK  status: ('A' for Active; 'I' for Inactive)
REMARK    1  A    between atoms: O_1  and  C_22 
REMARK    2  A    between atoms: C_2  and  C_3 
REMARK    3  A    between atoms: C_2  and  C_4 
REMARK    4  A    between atoms: C_3  and  C_5 
REMARK    5  A    between atoms: C_4  and  C_6 
REMARK    6  A    between atoms: C_5  and  C_7 
REMARK    7  A    between atoms: C_6  and  C_8 
REMARK    8  A    between atoms: C_7  and  C_9 
REMARK    9  A    between atoms: C_8  and  C_10 
REMARK   10  A    between atoms: C_9  and  C_11 
REMARK   11  A    between atoms: C_10  and  C_12 
REMARK   12  A    between atoms: C_11  and  C_13 
REMARK   13  A    between atoms: C_12  and  C_14 
REMARK   14  A    between atoms: C_13  and  C_15 
REMARK   15  A    between atoms: C_14  and  C_16 
REMARK   16  A    between atoms: C_15  and  C_17 
REMARK   17  A    between atoms: C_16  and  C_18 
REMARK   18  A    between atoms: C_17  and  C_19 
REMARK   19  A    between atoms: C_18  and  C_20 
REMARK   20  A    between atoms: C_19  and  C_21 
REMARK   21  A    between atoms: C_20  and  C_22 
ROOT
HETATM    1  C   UNK N   1      27.642  26.339  -7.685  0.00  0.00     0.000 C 
ENDROOT
BRANCH   1   2
HETATM    2  C   UNK N   1      26.247  26.185  -8.020  0.00  0.00     0.000 C 
BRANCH   2   3
HETATM    3  C   UNK N   1      25.897  25.263  -6.964  0.00  0.00     0.000 C 
BRANCH   3   4
HETATM    4  C   UNK N   1      25.417  26.078  -5.875  0.00  0.00     0.000 C 
BRANCH   4   5
HETATM    5  C   UNK N   1      25.934  25.315  -4.749  0.00  0.00     0.000 C 
BRANCH   5   6
HETATM    6  C   UNK N   1      26.278  26.334  -3.783  0.00  0.00     0.000 C 
BRANCH   6   7
HETATM    7  C   UNK N   1      25.631  27.553  -4.275  0.00  0.00     0.000 C 
BRANCH   7   8
HETATM    8  C   UNK N   1      26.189  28.540  -3.352  0.00  0.00     0.000 C 
BRANCH   8   9
HETATM    9  C   UNK N   1      26.435  29.806  -4.062  0.00  0.00     0.000 C 
BRANCH   9  10
HETATM   10  C   UNK N   1      27.050  30.620  -2.982  0.00  0.00    -0.000 C 
BRANCH  10  11
HETATM   11  C   UNK N   1      27.909  29.769  -2.113  0.00  0.00    -0.005 C 
HETATM   12  C   UNK N   1      29.286  30.376  -2.176  0.00  0.00     0.005 C 
ENDBRANCH  10  11
ENDBRANCH   9  10
ENDBRANCH   8   9
ENDBRANCH   7   8
ENDBRANCH   6   7
ENDBRANCH   5   6
ENDBRANCH   4   5
ENDBRANCH   3   4
ENDBRANCH   2   3
ENDBRANCH   1   2
BRANCH   1  13
HETATM   13  C   UNK N   1      28.002  27.659  -8.130  0.00  0.00     0.000 C 
BRANCH  13  14
HETATM   14  C   UNK N   1      28.205  28.295  -6.843  0.00  0.00     0.000 C 
BRANCH  14  15
HETATM   15  C   UNK N   1      29.015  27.338  -6.130  0.00  0.00     0.000 C 
BRANCH  15  16
HETATM   16  C   UNK N   1      29.627  28.135  -5.079  0.00  0.00     0.000 C 
BRANCH  16  17
HETATM   17  C   UNK N   1      29.775  27.135  -4.041  0.00  0.00     0.000 C 
BRANCH  17  18
HETATM   18  C   UNK N   1      30.170  25.886  -4.691  0.00  0.00     0.000 C 
BRANCH  18  19
HETATM   19  C   UNK N   1      30.397  25.053  -3.505  0.00  0.00     0.000 C 
BRANCH  19  20
HETATM   20  C   UNK N   1      30.118  23.644  -3.806  0.00  0.00     0.002 C 
BRANCH  20  21
HETATM   21  C   UNK N   1      30.695  22.961  -2.636  0.00  0.00     0.026 C 
BRANCH  21  22
HETATM   22  C   UNK N   1      31.484  21.749  -3.039  0.00  0.00     0.164 C 
BRANCH  22  23
HETATM   23  O   UNK N   1      32.335  21.461  -2.062  0.00  0.00    -0.401 OA
HETATM   24  H   UNK N   1      33.084  22.050  -1.882  0.00  0.00     0.209 HD
ENDBRANCH  22  23
ENDBRANCH  21  22
ENDBRANCH  20  21
ENDBRANCH  19  20
ENDBRANCH  18  19
ENDBRANCH  17  18
ENDBRANCH  16  17
ENDBRANCH  15  16
ENDBRANCH  14  15
ENDBRANCH  13  14
ENDBRANCH   1  13
TORSDOF 21
ENDMDL
MODEL 3
REMARK VINA RESULT:      -4.4     11.842     14.838
REMARK  21 active torsions:
REMARK  status: ('A' for Active; 'I' for Inactive)
REMARK    1  A    between atoms: O_1  and  C_22 
REMARK    2  A    between atoms: C_2  and  C_3 
REMARK    3  A    between atoms: C_2  and  C_4 
REMARK    4  A    between atoms: C_3  and  C_5 
REMARK    5  A    between atoms: C_4  and  C_6 
REMARK    6  A    between atoms: C_5  and  C_7 
REMARK    7  A    between atoms: C_6  and  C_8 
REMARK    8  A    between atoms: C_7  and  C_9 
REMARK    9  A    between atoms: C_8  and  C_10 
REMARK   10  A    between atoms: C_9  and  C_11 
REMARK   11  A    between atoms: C_10  and  C_12 
REMARK   12  A    between atoms: C_11  and  C_13 
REMARK   13  A    between atoms: C_12  and  C_14 
REMARK   14  A    between atoms: C_13  and  C_15 
REMARK   15  A    between atoms: C_14  and  C_16 
REMARK   16  A    between atoms: C_15  and  C_17 
REMARK   17  A    between atoms: C_16  and  C_18 
REMARK   18  A    between atoms: C_17  and  C_19 
REMARK   19  A    between atoms: C_18  and  C_20 
REMARK   20  A    between atoms: C_19  and  C_21 
REMARK   21  A    between atoms: C_20  and  C_22 
ROOT
HETATM    1  C   UNK N   1      32.499  16.063   4.669  0.00  0.00     0.000 C 
ENDROOT
BRANCH   1   2
HETATM    2  C   UNK N   1      32.433  17.130   3.699  0.00  0.00     0.000 C 
BRANCH   2   3
HETATM    3  C   UNK N   1      31.285  16.649   2.965  0.00  0.00     0.000 C 
BRANCH   3   4
HETATM    4  C   UNK N   1      30.305  16.288   3.960  0.00  0.00     0.000 C 
BRANCH   4   5
HETATM    5  C   UNK N   1      29.086  16.574   3.220  0.00  0.00     0.000 C 
BRANCH   5   6
HETATM    6  C   UNK N   1      28.180  17.056   4.239  0.00  0.00     0.000 C 
BRANCH   6   7
HETATM    7  C   UNK N   1      28.968  18.012   5.021  0.00  0.00     0.000 C 
BRANCH   7   8
HETATM    8  C   UNK N   1      27.906  18.884   5.521  0.00  0.00     0.000 C 
BRANCH   8   9
HETATM    9  C   UNK N   1      27.325  19.652   4.407  0.00  0.00     0.000 C 
BRANCH   9  10
HETATM   10  C   UNK N   1      26.986  20.926   5.092  0.00  0.00    -0.000 C 
BRANCH  10  11
HETATM   11  C   UNK N   1      27.389  20.872   6.524  0.00  0.00    -0.005 C 
HETATM   12  C   UNK N   1      26.267  21.521   7.291  0.00  0.00     0.005 C 
ENDBRANCH  10  11
ENDBRANCH   9  10
ENDBRANCH   8   9
ENDBRANCH   7   8
ENDBRANCH   6   7
ENDBRANCH   5   6
ENDBRANCH   4   5
ENDBRANCH   3   4
ENDBRANCH   2   3
ENDBRANCH   1   2
BRANCH   1  13
HETATM   13  C   UNK N   1      33.880  15.991   5.069  0.00  0.00     0.000 C 
BRANCH  13  14
HETATM   14  C   UNK N   1      33.998  17.272   5.740  0.00  0.00     0.000 C 
BRANCH  14  15
HETATM   15  C   UNK N   1      34.300  16.901   7.100  0.00  0.00     0.000 C 
BRANCH  15  16
HETATM   16  C   UNK N   1      34.028  18.118   7.847  0.00  0.00     0.000 C 
BRANCH  16  17
HETATM   17  C   UNK N   1      32.579  18.088   7.884  0.00  0.00     0.000 C 
BRANCH  17  18
HETATM   18  C   UNK N   1      32.184  16.814   8.480  0.00  0.00     0.000 C 
BRANCH  18  19
HETATM   19  C   UNK N   1      30.727  16.978   8.467  0.00  0.00     0.000 C 
BRANCH  19  20
HETATM   20  C   UNK N   1      30.360  18.343   8.866  0.00  0.00     0.002 C 
BRANCH  20  21
HETATM   21  C   UNK N   1      29.409  18.096   9.962  0.00  0.00     0.026 C 
BRANCH  21  22
HETATM   22  C   UNK N   1      28.125  17.504   9.456  0.00  0.00     0.164 C 
BRANCH  22  23
HETATM   23  O   UNK N   1      27.304  18.496   9.138  0.00  0.00    -0.401 OA
HETATM   24  H   UNK N   1      26.655  18.379   8.427  0.00  0.00     0.209 HD
ENDBRANCH  22  23
ENDBRANCH  21  22
ENDBRANCH  20  21
ENDBRANCH  19  20
ENDBRANCH  18  19
ENDBRANCH  17  18
ENDBRANCH  16  17
ENDBRANCH  15  16
ENDBRANCH  14  15
ENDBRANCH  13  14
ENDBRANCH   1  13
TORSDOF 21
ENDMDL
MODEL 4
REMARK VINA RESULT:      -4.4      2.421      5.498
REMARK  21 active torsions:
REMARK  status: ('A' for Active; 'I' for Inactive)
REMARK    1  A    between atoms: O_1  and  C_22 
REMARK    2  A    between atoms: C_2  and  C_3 
REMARK    3  A    between atoms: C_2  and  C_4 
REMARK    4  A    between atoms: C_3  and  C_5 
REMARK    5  A    between atoms: C_4  and  C_6 
REMARK    6  A    between atoms: C_5  and  C_7 
REMARK    7  A    between atoms: C_6  and  C_8 
REMARK    8  A    between atoms: C_7  and  C_9 
REMARK    9  A    between atoms: C_8  and  C_10 
REMARK   10  A    between atoms: C_9  and  C_11 
REMARK   11  A    between atoms: C_10  and  C_12 
REMARK   12  A    between atoms: C_11  and  C_13 
REMARK   13  A    between atoms: C_12  and  C_14 
REMARK   14  A    between atoms: C_13  and  C_15 
REMARK   15  A    between atoms: C_14  and  C_16 
REMARK   16  A    between atoms: C_15  and  C_17 
REMARK   17  A    between atoms: C_16  and  C_18 
REMARK   18  A    between atoms: C_17  and  C_19 
REMARK   19  A    between atoms: C_18  and  C_20 
REMARK   20  A    between atoms: C_19  and  C_21 
REMARK   21  A    between atoms: C_20  and  C_22 
ROOT
HETATM    1  C   UNK N   1      29.013  26.508  -7.220  0.00  0.00     0.000 C 
ENDROOT
BRANCH   1   2
HETATM    2  C   UNK N   1      29.928  26.525  -6.104  0.00  0.00     0.000 C 
BRANCH   2   3
HETATM    3  C   UNK N   1      29.515  25.280  -5.499  0.00  0.00     0.000 C 
BRANCH   3   4
HETATM    4  C   UNK N   1      29.028  25.624  -4.185  0.00  0.00     0.000 C 
BRANCH   4   5
HETATM    5  C   UNK N   1      28.983  24.300  -3.584  0.00  0.00     0.000 C 
BRANCH   5   6
HETATM    6  C   UNK N   1      30.346  24.082  -3.152  0.00  0.00     0.000 C 
BRANCH   6   7
HETATM    7  C   UNK N   1      30.285  22.889  -2.303  0.00  0.00     0.000 C 
BRANCH   7   8
HETATM    8  C   UNK N   1      31.249  22.029  -2.987  0.00  0.00     0.000 C 
BRANCH   8   9
HETATM    9  C   UNK N   1      30.538  20.980  -3.738  0.00  0.00     0.000 C 
BRANCH   9  10
HETATM   10  C   UNK N   1      31.401  20.863  -4.941  0.00  0.00    -0.000 C 
BRANCH  10  11
HETATM   11  C   UNK N   1      30.972  21.832  -5.987  0.00  0.00    -0.005 C 
HETATM   12  C   UNK N   1      29.495  21.606  -6.175  0.00  0.00     0.005 C 
ENDBRANCH  10  11
ENDBRANCH   9  10
ENDBRANCH   8   9
ENDBRANCH   7   8
ENDBRANCH   6   7
ENDBRANCH   5   6
ENDBRANCH   4   5
ENDBRANCH   3   4
ENDBRANCH   2   3
ENDBRANCH   1   2
BRANCH   1  13
HETATM   13  C   UNK N   1      28.329  27.773  -7.176  0.00  0.00     0.000 C 
BRANCH  13  14
HETATM   14  C   UNK N   1      26.958  27.301  -7.196  0.00  0.00     0.000 C 
BRANCH  14  15
HETATM   15  C   UNK N   1      26.433  27.768  -5.936  0.00  0.00     0.000 C 
BRANCH  15  16
HETATM   16  C   UNK N   1      25.159  27.077  -5.828  0.00  0.00     0.000 C 
BRANCH  16  17
HETATM   17  C   UNK N   1      25.559  25.728  -6.176  0.00  0.00     0.000 C 
BRANCH  17  18
HETATM   18  C   UNK N   1      25.513  24.930  -4.952  0.00  0.00     0.000 C 
BRANCH  18  19
HETATM   19  C   UNK N   1      25.870  23.618  -5.500  0.00  0.00     0.000 C 
BRANCH  19  20
HETATM   20  C   UNK N   1      26.037  23.698  -6.957  0.00  0.00     0.002 C 
BRANCH  20  21
HETATM   21  C   UNK N   1      26.047  22.276  -7.341  0.00  0.00     0.026 C 
BRANCH  21  22
HETATM   22  C   UNK N   1      24.729  21.852  -7.921  0.00  0.00     0.164 C 
BRANCH  22  23
HETATM   23  O   UNK N   1      23.938  21.472  -6.926  0.00  0.00    -0.401 OA
HETATM   24  H   UNK N   1      23.697  20.537  -6.828  0.00  0.00     0.209 HD
ENDBRANCH  22  23
ENDBRANCH  21  22
ENDBRANCH  20  21
ENDBRANCH  19  20
ENDBRANCH  18  19
ENDBRANCH  17  18
ENDBRANCH  16  17
ENDBRANCH  15  16
ENDBRANCH  14  15
ENDBRANCH  13  14
ENDBRANCH   1  13
TORSDOF 21
ENDMDL
MODEL 5
REMARK VINA RESULT:      -4.4      1.675      3.329
REMARK  21 active torsions:
REMARK  status: ('A' for Active; 'I' for Inactive)
REMARK    1  A    between atoms: O_1  and  C_22 
REMARK    2  A    between atoms: C_2  and  C_3 
REMARK    3  A    between atoms: C_2  and  C_4 
REMARK    4  A    between atoms: C_3  and  C_5 
REMARK    5  A    between atoms: C_4  and  C_6 
REMARK    6  A    between atoms: C_5  and  C_7 
REMARK    7  A    between atoms: C_6  and  C_8 
REMARK    8  A    between atoms: C_7  and  C_9 
REMARK    9  A    between atoms: C_8  and  C_10 
REMARK   10  A    between atoms: C_9  and  C_11 
REMARK   11  A    between atoms: C_10  and  C_12 
REMARK   12  A    between atoms: C_11  and  C_13 
REMARK   13  A    between atoms: C_12  and  C_14 
REMARK   14  A    between atoms: C_13  and  C_15 
REMARK   15  A    between atoms: C_14  and  C_16 
REMARK   16  A    between atoms: C_15  and  C_17 
REMARK   17  A    between atoms: C_16  and  C_18 
REMARK   18  A    between atoms: C_17  and  C_19 
REMARK   19  A    between atoms: C_18  and  C_20 
REMARK   20  A    between atoms: C_19  and  C_21 
REMARK   21  A    between atoms: C_20  and  C_22 
ROOT
HETATM    1  C   UNK N   1      25.144  27.898  -4.485  0.00  0.00     0.000 C 
ENDROOT
BRANCH   1   2
HETATM    2  C   UNK N   1      26.261  27.999  -3.577  0.00  0.00     0.000 C 
BRANCH   2   3
HETATM    3  C   UNK N   1      26.738  29.294  -4.004  0.00  0.00     0.000 C 
BRANCH   3   4
HETATM    4  C   UNK N   1      28.081  29.080  -4.486  0.00  0.00     0.000 C 
BRANCH   4   5
HETATM    5  C   UNK N   1      28.049  29.909  -5.680  0.00  0.00     0.000 C 
BRANCH   5   6
HETATM    6  C   UNK N   1      28.038  28.945  -6.758  0.00  0.00     0.000 C 
BRANCH   6   7
HETATM    7  C   UNK N   1      28.946  27.882  -6.321  0.00  0.00     0.000 C 
BRANCH   7   8
HETATM    8  C   UNK N   1      28.776  26.924  -7.413  0.00  0.00     0.000 C 
BRANCH   8   9
HETATM    9  C   UNK N   1      27.523  27.205  -8.133  0.00  0.00     0.000 C 
BRANCH   9  10
HETATM   10  C   UNK N   1      27.303  25.911  -8.829  0.00  0.00    -0.000 C 
BRANCH  10  11
HETATM   11  C   UNK N   1      25.865  25.531  -8.784  0.00  0.00    -0.005 C 
HETATM   12  C   UNK N   1      25.360  25.666 -10.197  0.00  0.00     0.005 C 
ENDBRANCH  10  11
ENDBRANCH   9  10
ENDBRANCH   8   9
ENDBRANCH   7   8
ENDBRANCH   6   7
ENDBRANCH   5   6
ENDBRANCH   4   5
ENDBRANCH   3   4
ENDBRANCH   2   3
ENDBRANCH   1   2
BRANCH   1  13
HETATM   13  C   UNK N   1      25.416  26.747  -5.304  0.00  0.00     0.000 C 
BRANCH  13  14
HETATM   14  C   UNK N   1      25.908  25.841  -4.283  0.00  0.00     0.000 C 
BRANCH  14  15
HETATM   15  C   UNK N   1      26.056  24.596  -4.995  0.00  0.00     0.000 C 
BRANCH  15  16
HETATM   16  C   UNK N   1      27.494  24.485  -5.177  0.00  0.00     0.000 C 
BRANCH  16  17
HETATM   17  C   UNK N   1      27.557  23.399  -6.136  0.00  0.00     0.000 C 
BRANCH  17  18
HETATM   18  C   UNK N   1      28.966  23.058  -6.318  0.00  0.00     0.000 C 
BRANCH  18  19
HETATM   19  C   UNK N   1      29.366  22.909  -4.915  0.00  0.00     0.000 C 
BRANCH  19  20
HETATM   20  C   UNK N   1      30.347  21.826  -4.773  0.00  0.00     0.002 C 
BRANCH  20  21
HETATM   21  C   UNK N   1      30.330  21.586  -3.320  0.00  0.00     0.026 C 
BRANCH  21  22
HETATM   22  C   UNK N   1      29.731  22.745  -2.577  0.00  0.00     0.164 C 
BRANCH  22  23
HETATM   23  O   UNK N   1      30.537  23.059  -1.571  0.00  0.00    -0.401 OA
HETATM   24  H   UNK N   1      30.610  22.469  -0.805  0.00  0.00     0.209 HD
ENDBRANCH  22  23
ENDBRANCH  21  22
ENDBRANCH  20  21
ENDBRANCH  19  20
ENDBRANCH  18  19
ENDBRANCH  17  18
ENDBRANCH  16  17
ENDBRANCH  15  16
ENDBRANCH  14  15
ENDBRANCH  13  14
ENDBRANCH   1  13
TORSDOF 21
ENDMDL
MODEL 6
REMARK VINA RESULT:      -4.3     10.586     14.764
REMARK  21 active torsions:
REMARK  status: ('A' for Active; 'I' for Inactive)
REMARK    1  A    between atoms: O_1  and  C_22 
REMARK    2  A    between atoms: C_2  and  C_3 
REMARK    3  A    between atoms: C_2  and  C_4 
REMARK    4  A    between atoms: C_3  and  C_5 
REMARK    5  A    between atoms: C_4  and  C_6 
REMARK    6  A    between atoms: C_5  and  C_7 
REMARK    7  A    between atoms: C_6  and  C_8 
REMARK    8  A    between atoms: C_7  and  C_9 
REMARK    9  A    between atoms: C_8  and  C_10 
REMARK   10  A    between atoms: C_9  and  C_11 
REMARK   11  A    between atoms: C_10  and  C_12 
REMARK   12  A    between atoms: C_11  and  C_13 
REMARK   13  A    between atoms: C_12  and  C_14 
REMARK   14  A    between atoms: C_13  and  C_15 
REMARK   15  A    between atoms: C_14  and  C_16 
REMARK   16  A    between atoms: C_15  and  C_17 
REMARK   17  A    between atoms: C_16  and  C_18 
REMARK   18  A    between atoms: C_17  and  C_19 
REMARK   19  A    between atoms: C_18  and  C_20 
REMARK   20  A    between atoms: C_19  and  C_21 
REMARK   21  A    between atoms: C_20  and  C_22 
ROOT
HETATM    1  C   UNK N   1      32.290  17.886   7.973  0.00  0.00     0.000 C 
ENDROOT
BRANCH   1   2
HETATM    2  C   UNK N   1      33.257  17.170   8.770  0.00  0.00     0.000 C 
BRANCH   2   3
HETATM    3  C   UNK N   1      33.727  16.273   7.740  0.00  0.00     0.000 C 
BRANCH   3   4
HETATM    4  C   UNK N   1      34.022  17.105   6.598  0.00  0.00     0.000 C 
BRANCH   4   5
HETATM    5  C   UNK N   1      34.219  16.077   5.588  0.00  0.00     0.000 C 
BRANCH   5   6
HETATM    6  C   UNK N   1      32.990  16.115   4.826  0.00  0.00     0.000 C 
BRANCH   6   7
HETATM    7  C   UNK N   1      32.926  17.476   4.286  0.00  0.00     0.000 C 
BRANCH   7   8
HETATM    8  C   UNK N   1      31.497  17.574   3.989  0.00  0.00     0.000 C 
BRANCH   8   9
HETATM    9  C   UNK N   1      30.912  16.226   3.901  0.00  0.00     0.000 C 
BRANCH   9  10
HETATM   10  C   UNK N   1      29.746  16.483   3.016  0.00  0.00    -0.000 C 
BRANCH  10  11
HETATM   11  C   UNK N   1      28.693  15.452   3.226  0.00  0.00    -0.005 C 
HETATM   12  C   UNK N   1      29.264  14.481   4.227  0.00  0.00     0.005 C 
ENDBRANCH  10  11
ENDBRANCH   9  10
ENDBRANCH   8   9
ENDBRANCH   7   8
ENDBRANCH   6   7
ENDBRANCH   5   6
ENDBRANCH   4   5
ENDBRANCH   3   4
ENDBRANCH   2   3
ENDBRANCH   1   2
BRANCH   1  13
HETATM   13  C   UNK N   1      31.025  17.679   8.625  0.00  0.00     0.000 C 
BRANCH  13  14
HETATM   14  C   UNK N   1      30.319  16.994   7.558  0.00  0.00     0.000 C 
BRANCH  14  15
HETATM   15  C   UNK N   1      29.346  17.969   7.132  0.00  0.00     0.000 C 
BRANCH  15  16
HETATM   16  C   UNK N   1      28.323  17.160   6.490  0.00  0.00     0.000 C 
BRANCH  16  17
HETATM   17  C   UNK N   1      27.453  18.198   5.972  0.00  0.00     0.000 C 
BRANCH  17  18
HETATM   18  C   UNK N   1      28.270  19.077   5.138  0.00  0.00     0.000 C 
BRANCH  18  19
HETATM   19  C   UNK N   1      27.375  19.227   3.987  0.00  0.00     0.000 C 
BRANCH  19  20
HETATM   20  C   UNK N   1      26.420  20.318   4.216  0.00  0.00     0.002 C 
BRANCH  20  21
HETATM   21  C   UNK N   1      25.693  20.362   2.937  0.00  0.00     0.026 C 
BRANCH  21  22
HETATM   22  C   UNK N   1      24.217  20.171   3.135  0.00  0.00     0.164 C 
BRANCH  22  23
HETATM   23  O   UNK N   1      23.622  21.351   3.012  0.00  0.00    -0.401 OA
HETATM   24  H   UNK N   1      22.683  21.445   3.233  0.00  0.00     0.209 HD
ENDBRANCH  22  23
ENDBRANCH  21  22
ENDBRANCH  20  21
ENDBRANCH  19  20
ENDBRANCH  18  19
ENDBRANCH  17  18
ENDBRANCH  16  17
ENDBRANCH  15  16
ENDBRANCH  14  15
ENDBRANCH  13  14
ENDBRANCH   1  13
TORSDOF 21
ENDMDL
MODEL 7
REMARK VINA RESULT:      -4.3      2.112      4.612
REMARK  21 active torsions:
REMARK  status: ('A' for Active; 'I' for Inactive)
REMARK    1  A    between atoms: O_1  and  C_22 
REMARK    2  A    between atoms: C_2  and  C_3 
REMARK    3  A    between atoms: C_2  and  C_4 
REMARK    4  A    between atoms: C_3  and  C_5 
REMARK    5  A    between atoms: C_4  and  C_6 
REMARK    6  A    between atoms: C_5  and  C_7 
REMARK    7  A    between atoms: C_6  and  C_8 
REMARK    8  A    between atoms: C_7  and  C_9 
REMARK    9  A    between atoms: C_8  and  C_10 
REMARK   10  A    between atoms: C_9  and  C_11 
REMARK   11  A    between atoms: C_10  and  C_12 
REMARK   12  A    between atoms: C_11  and  C_13 
REMARK   13  A    between atoms: C_12  and  C_14 
REMARK   14  A    between atoms: C_13  and  C_15 
REMARK   15  A    between atoms: C_14  and  C_16 
REMARK   16  A    between atoms: C_15  and  C_17 
REMARK   17  A    between atoms: C_16  and  C_18 
REMARK   18  A    between atoms: C_17  and  C_19 
REMARK   19  A    between atoms: C_18  and  C_20 
REMARK   20  A    between atoms: C_19  and  C_21 
REMARK   21  A    between atoms: C_20  and  C_22 
ROOT
HETATM    1  C   UNK N   1      27.062  23.603  -6.524  0.00  0.00     0.000 C 
ENDROOT
BRANCH   1   2
HETATM    2  C   UNK N   1      25.840  23.355  -5.797  0.00  0.00     0.000 C 
BRANCH   2   3
HETATM    3  C   UNK N   1      25.827  24.575  -5.024  0.00  0.00     0.000 C 
BRANCH   3   4
HETATM    4  C   UNK N   1      26.596  24.296  -3.835  0.00  0.00     0.000 C 
BRANCH   4   5
HETATM    5  C   UNK N   1      27.296  25.563  -3.691  0.00  0.00     0.000 C 
BRANCH   5   6
HETATM    6  C   UNK N   1      26.225  26.534  -3.647  0.00  0.00     0.000 C 
BRANCH   6   7
HETATM    7  C   UNK N   1      26.884  27.829  -3.840  0.00  0.00     0.000 C 
BRANCH   7   8
HETATM    8  C   UNK N   1      26.284  28.244  -5.107  0.00  0.00     0.000 C 
BRANCH   8   9
HETATM    9  C   UNK N   1      27.328  28.363  -6.138  0.00  0.00     0.000 C 
BRANCH   9  10
HETATM   10  C   UNK N   1      26.919  27.286  -7.077  0.00  0.00    -0.000 C 
BRANCH  10  11
HETATM   11  C   UNK N   1      28.053  26.911  -7.966  0.00  0.00    -0.005 C 
HETATM   12  C   UNK N   1      27.437  26.593  -9.304  0.00  0.00     0.005 C 
ENDBRANCH  10  11
ENDBRANCH   9  10
ENDBRANCH   8   9
ENDBRANCH   7   8
ENDBRANCH   6   7
ENDBRANCH   5   6
ENDBRANCH   4   5
ENDBRANCH   3   4
ENDBRANCH   2   3
ENDBRANCH   1   2
BRANCH   1  13
HETATM   13  C   UNK N   1      26.853  23.040  -7.832  0.00  0.00     0.000 C 
BRANCH  13  14
HETATM   14  C   UNK N   1      28.095  22.305  -7.974  0.00  0.00     0.000 C 
BRANCH  14  15
HETATM   15  C   UNK N   1      27.656  20.934  -8.054  0.00  0.00     0.000 C 
BRANCH  15  16
HETATM   16  C   UNK N   1      28.899  20.182  -8.003  0.00  0.00     0.000 C 
BRANCH  16  17
HETATM   17  C   UNK N   1      29.552  20.825  -6.880  0.00  0.00     0.000 C 
BRANCH  17  18
HETATM   18  C   UNK N   1      30.696  19.996  -6.507  0.00  0.00     0.000 C 
BRANCH  18  19
HETATM   19  C   UNK N   1      31.178  20.751  -5.346  0.00  0.00     0.000 C 
BRANCH  19  20
HETATM   20  C   UNK N   1      30.125  21.637  -4.835  0.00  0.00     0.002 C 
BRANCH  20  21
HETATM   21  C   UNK N   1      30.312  21.529  -3.379  0.00  0.00     0.026 C 
BRANCH  21  22
HETATM   22  C   UNK N   1      29.818  22.755  -2.667  0.00  0.00     0.164 C 
BRANCH  22  23
HETATM   23  O   UNK N   1      30.613  22.984  -1.629  0.00  0.00    -0.401 OA
HETATM   24  H   UNK N   1      30.523  23.806  -1.122  0.00  0.00     0.209 HD
ENDBRANCH  22  23
ENDBRANCH  21  22
ENDBRANCH  20  21
ENDBRANCH  19  20
ENDBRANCH  18  19
ENDBRANCH  17  18
ENDBRANCH  16  17
ENDBRANCH  15  16
ENDBRANCH  14  15
ENDBRANCH  13  14
ENDBRANCH   1  13
TORSDOF 21
ENDMDL
MODEL 8
REMARK VINA RESULT:      -4.2      1.857      4.103
REMARK  21 active torsions:
REMARK  status: ('A' for Active; 'I' for Inactive)
REMARK    1  A    between atoms: O_1  and  C_22 
REMARK    2  A    between atoms: C_2  and  C_3 
REMARK    3  A    between atoms: C_2  and  C_4 
REMARK    4  A    between atoms: C_3  and  C_5 
REMARK    5  A    between atoms: C_4  and  C_6 
REMARK    6  A    between atoms: C_5  and  C_7 
REMARK    7  A    between atoms: C_6  and  C_8 
REMARK    8  A    between atoms: C_7  and  C_9 
REMARK    9  A    between atoms: C_8  and  C_10 
REMARK   10  A    between atoms: C_9  and  C_11 
REMARK   11  A    between atoms: C_10  and  C_12 
REMARK   12  A    between atoms: C_11  and  C_13 
REMARK   13  A    between atoms: C_12  and  C_14 
REMARK   14  A    between atoms: C_13  and  C_15 
REMARK   15  A    between atoms: C_14  and  C_16 
REMARK   16  A    between atoms: C_15  and  C_17 
REMARK   17  A    between atoms: C_16  and  C_18 
REMARK   18  A    between atoms: C_17  and  C_19 
REMARK   19  A    between atoms: C_18  and  C_20 
REMARK   20  A    between atoms: C_19  and  C_21 
REMARK   21  A    between atoms: C_20  and  C_22 
ROOT
HETATM    1  C   UNK N   1      25.798  26.473  -6.712  0.00  0.00     0.000 C 
ENDROOT
BRANCH   1   2
HETATM    2  C   UNK N   1      24.953  26.697  -5.564  0.00  0.00     0.000 C 
BRANCH   2   3
HETATM    3  C   UNK N   1      25.531  27.952  -5.143  0.00  0.00     0.000 C 
BRANCH   3   4
HETATM    4  C   UNK N   1      25.540  27.917  -3.700  0.00  0.00     0.000 C 
BRANCH   4   5
HETATM    5  C   UNK N   1      26.595  28.882  -3.437  0.00  0.00     0.000 C 
BRANCH   5   6
HETATM    6  C   UNK N   1      27.804  28.095  -3.539  0.00  0.00     0.000 C 
BRANCH   6   7
HETATM    7  C   UNK N   1      28.883  29.078  -3.664  0.00  0.00     0.000 C 
BRANCH   7   8
HETATM    8  C   UNK N   1      30.038  28.247  -3.324  0.00  0.00     0.000 C 
BRANCH   8   9
HETATM    9  C   UNK N   1      29.867  26.899  -3.891  0.00  0.00     0.000 C 
BRANCH   9  10
HETATM   10  C   UNK N   1      31.224  26.332  -3.680  0.00  0.00    -0.000 C 
BRANCH  10  11
HETATM   11  C   UNK N   1      31.753  25.758  -4.948  0.00  0.00    -0.005 C 
HETATM   12  C   UNK N   1      30.557  25.577  -5.847  0.00  0.00     0.005 C 
ENDBRANCH  10  11
ENDBRANCH   9  10
ENDBRANCH   8   9
ENDBRANCH   7   8
ENDBRANCH   6   7
ENDBRANCH   5   6
ENDBRANCH   4   5
ENDBRANCH   3   4
ENDBRANCH   2   3
ENDBRANCH   1   2
BRANCH   1  13
HETATM   13  C   UNK N   1      26.931  25.735  -6.220  0.00  0.00     0.000 C 
BRANCH  13  14
HETATM   14  C   UNK N   1      26.238  24.610  -5.623  0.00  0.00     0.000 C 
BRANCH  14  15
HETATM   15  C   UNK N   1      27.258  23.991  -4.813  0.00  0.00     0.000 C 
BRANCH  15  16
HETATM   16  C   UNK N   1      27.021  24.552  -3.493  0.00  0.00     0.000 C 
BRANCH  16  17
HETATM   17  C   UNK N   1      27.836  23.669  -2.681  0.00  0.00     0.000 C 
BRANCH  17  18
HETATM   18  C   UNK N   1      29.044  23.365  -3.445  0.00  0.00     0.000 C 
BRANCH  18  19
HETATM   19  C   UNK N   1      29.987  23.157  -2.341  0.00  0.00     0.000 C 
BRANCH  19  20
HETATM   20  C   UNK N   1      31.022  22.189  -2.724  0.00  0.00     0.002 C 
BRANCH  20  21
HETATM   21  C   UNK N   1      30.894  22.167  -4.190  0.00  0.00     0.026 C 
BRANCH  21  22
HETATM   22  C   UNK N   1      31.994  21.370  -4.828  0.00  0.00     0.164 C 
BRANCH  22  23
HETATM   23  O   UNK N   1      31.516  20.170  -5.136  0.00  0.00    -0.401 OA
HETATM   24  H   UNK N   1      31.560  19.450  -4.489  0.00  0.00     0.209 HD
ENDBRANCH  22  23
ENDBRANCH  21  22
ENDBRANCH  20  21
ENDBRANCH  19  20
ENDBRANCH  18  19
ENDBRANCH  17  18
ENDBRANCH  16  17
ENDBRANCH  15  16
ENDBRANCH  14  15
ENDBRANCH  13  14
ENDBRANCH   1  13
TORSDOF 21
ENDMDL
MODEL 9
REMARK VINA RESULT:      -4.1      1.273      2.181
REMARK  21 active torsions:
REMARK  status: ('A' for Active; 'I' for Inactive)
REMARK    1  A    between atoms: O_1  and  C_22 
REMARK    2  A    between atoms: C_2  and  C_3 
REMARK    3  A    between atoms: C_2  and  C_4 
REMARK    4  A    between atoms: C_3  and  C_5 
REMARK    5  A    between atoms: C_4  and  C_6 
REMARK    6  A    between atoms: C_5  and  C_7 
REMARK    7  A    between atoms: C_6  and  C_8 
REMARK    8  A    between atoms: C_7  and  C_9 
REMARK    9  A    between atoms: C_8  and  C_10 
REMARK   10  A    between atoms: C_9  and  C_11 
REMARK   11  A    between atoms: C_10  and  C_12 
REMARK   12  A    between atoms: C_11  and  C_13 
REMARK   13  A    between atoms: C_12  and  C_14 
REMARK   14  A    between atoms: C_13  and  C_15 
REMARK   15  A    between atoms: C_14  and  C_16 
REMARK   16  A    between atoms: C_15  and  C_17 
REMARK   17  A    between atoms: C_16  and  C_18 
REMARK   18  A    between atoms: C_17  and  C_19 
REMARK   19  A    between atoms: C_18  and  C_20 
REMARK   20  A    between atoms: C_19  and  C_21 
REMARK   21  A    between atoms: C_20  and  C_22 
ROOT
HETATM    1  C   UNK N   1      28.832  28.684  -5.229  0.00  0.00     0.000 C 
ENDROOT
BRANCH   1   2
HETATM    2  C   UNK N   1      27.599  28.938  -5.934  0.00  0.00     0.000 C 
BRANCH   2   3
HETATM    3  C   UNK N   1      26.755  29.138  -4.779  0.00  0.00     0.000 C 
BRANCH   3   4
HETATM    4  C   UNK N   1      25.889  27.985  -4.720  0.00  0.00     0.000 C 
BRANCH   4   5
HETATM    5  C   UNK N   1      26.024  27.647  -3.312  0.00  0.00     0.000 C 
BRANCH   5   6
HETATM    6  C   UNK N   1      26.410  26.254  -3.337  0.00  0.00     0.000 C 
BRANCH   6   7
HETATM    7  C   UNK N   1      25.828  25.724  -4.572  0.00  0.00     0.000 C 
BRANCH   7   8
HETATM    8  C   UNK N   1      26.171  24.309  -4.441  0.00  0.00     0.000 C 
BRANCH   8   9
HETATM    9  C   UNK N   1      26.114  23.656  -5.759  0.00  0.00     0.000 C 
BRANCH   9  10
HETATM   10  C   UNK N   1      26.727  24.703  -6.617  0.00  0.00    -0.000 C 
BRANCH  10  11
HETATM   11  C   UNK N   1      26.011  24.797  -7.918  0.00  0.00    -0.005 C 
HETATM   12  C   UNK N   1      26.030  26.256  -8.293  0.00  0.00     0.005 C 
ENDBRANCH  10  11
ENDBRANCH   9  10
ENDBRANCH   8   9
ENDBRANCH   7   8
ENDBRANCH   6   7
ENDBRANCH   5   6
ENDBRANCH   4   5
ENDBRANCH   3   4
ENDBRANCH   2   3
ENDBRANCH   1   2
BRANCH   1  13
HETATM   13  C   UNK N   1      29.556  27.746  -6.045  0.00  0.00     0.000 C 
BRANCH  13  14
HETATM   14  C   UNK N   1      29.479  26.578  -5.188  0.00  0.00     0.000 C 
BRANCH  14  15
HETATM   15  C   UNK N   1      30.743  26.599  -4.494  0.00  0.00     0.000 C 
BRANCH  15  16
HETATM   16  C   UNK N   1      30.633  25.485  -3.567  0.00  0.00     0.000 C 
BRANCH  16  17
HETATM   17  C   UNK N   1      29.840  24.562  -4.355  0.00  0.00     0.000 C 
BRANCH  17  18
HETATM   18  C   UNK N   1      29.609  23.374  -3.535  0.00  0.00     0.000 C 
BRANCH  18  19
HETATM   19  C   UNK N   1      30.105  22.343  -4.452  0.00  0.00     0.000 C 
BRANCH  19  20
HETATM   20  C   UNK N   1      30.487  21.135  -3.709  0.00  0.00     0.002 C 
BRANCH  20  21
HETATM   21  C   UNK N   1      31.628  21.615  -2.911  0.00  0.00     0.026 C 
BRANCH  21  22
HETATM   22  C   UNK N   1      32.936  21.303  -3.577  0.00  0.00     0.164 C 
BRANCH  22  23
HETATM   23  O   UNK N   1      33.436  20.205  -3.024  0.00  0.00    -0.401 OA
HETATM   24  H   UNK N   1      32.844  19.489  -2.746  0.00  0.00     0.209 HD
ENDBRANCH  22  23
ENDBRANCH  21  22
ENDBRANCH  20  21
ENDBRANCH  19  20
ENDBRANCH  18  19
ENDBRANCH  17  18
ENDBRANCH  16  17
ENDBRANCH  15  16
ENDBRANCH  14  15
ENDBRANCH  13  14
ENDBRANCH   1  13
TORSDOF 21
ENDMDL
