MODEL 1
REMARK VINA RESULT:      -6.7      0.000      0.000
REMARK  6 active torsions:
REMARK  status: ('A' for Active; 'I' for Inactive)
REMARK    1  A    between atoms: C_13  and  O_2 
REMARK    2  A    between atoms: C_15  and  O_3 
REMARK    3  A    between atoms: O_4  and  C_17 
REMARK    4  A    between atoms: C_14  and  N_5 
REMARK    5  A    between atoms: N_12  and  C_21 
REMARK    6  A    between atoms: C_16  and  C_17 
ROOT
HETATM    1  N   UNK N   1      31.600  16.931   7.351  0.00  0.00    -0.297 N 
HETATM    2  N   UNK N   1      29.895  17.471   5.983  0.00  0.00    -0.346 N 
ATOM      3  HN  UNK N   1      29.325  17.595   5.147  1.00  0.00     0.167 HD
HETATM    4  N   UNK N   1      30.566  17.699   9.404  0.00  0.00    -0.336 N 
ATOM      5  HN  UNK N   1      31.353  17.449  10.003  1.00  0.00     0.168 HD
HETATM    6  N   UNK N   1      28.387  18.615   9.109  0.00  0.00    -0.337 N 
ATOM      7  HN  UNK N   1      27.555  19.045   9.513  1.00  0.00     0.168 HD
HETATM    8  C   UNK N   1      30.608  17.476   8.069  0.00  0.00     0.142 A 
HETATM    9  C   UNK N   1      31.146  16.932   6.069  0.00  0.00     0.188 A 
HETATM   10  C   UNK N   1      29.588  17.801   7.250  0.00  0.00     0.122 A 
HETATM   11  C   UNK N   1      28.444  18.393   7.762  0.00  0.00     0.131 A 
HETATM   12  C   UNK N   1      29.436  18.269   9.927  0.00  0.00     0.183 A 
ENDROOT
BRANCH   1  13
HETATM   13  C   UNK N   1      32.920  16.481   7.810  0.00  0.00     0.262 C 
HETATM   14  O   UNK N   1      32.802  15.552   8.872  0.00  0.00    -0.353 OA
HETATM   15  C   UNK N   1      33.776  15.933   9.820  0.00  0.00     0.179 C 
HETATM   16  C   UNK N   1      34.755  16.825   9.109  0.00  0.00     0.182 C 
HETATM   17  C   UNK N   1      33.804  17.615   8.290  0.00  0.00     0.198 C 
BRANCH  15  18
HETATM   18  C   UNK N   1      34.490  14.719  10.388  0.00  0.00     0.198 C 
BRANCH  18  19
HETATM   19  O   UNK N   1      33.976  14.418  11.650  0.00  0.00    -0.398 OA
HETATM   20  H   UNK N   1      33.097  14.025  11.761  0.00  0.00     0.209 HD
ENDBRANCH  18  19
ENDBRANCH  15  18
BRANCH  16  21
HETATM   21  O   UNK N   1      35.464  17.634   9.997  0.00  0.00    -0.390 OA
HETATM   22  H   UNK N   1      36.144  18.323   9.938  0.00  0.00     0.210 HD
ENDBRANCH  16  21
BRANCH  17  23
HETATM   23  O   UNK N   1      34.473  18.220   7.228  0.00  0.00    -0.388 OA
HETATM   24  H   UNK N   1      35.185  17.816   6.707  0.00  0.00     0.210 HD
ENDBRANCH  17  23
ENDBRANCH   1  13
BRANCH  11  25
HETATM   25  N   UNK N   1      27.371  18.762   6.927  0.00  0.00    -0.383 N 
HETATM   26  H   UNK N   1      26.484  18.345   7.013  0.00  0.00     0.157 HD
HETATM   27  H   UNK N   1      27.513  19.454   6.241  0.00  0.00     0.157 HD
ENDBRANCH  11  25
TORSDOF 6
ENDMDL
MODEL 2
REMARK VINA RESULT:      -6.3      1.529      1.928
REMARK  6 active torsions:
REMARK  status: ('A' for Active; 'I' for Inactive)
REMARK    1  A    between atoms: C_13  and  O_2 
REMARK    2  A    between atoms: C_15  and  O_3 
REMARK    3  A    between atoms: O_4  and  C_17 
REMARK    4  A    between atoms: C_14  and  N_5 
REMARK    5  A    between atoms: N_12  and  C_21 
REMARK    6  A    between atoms: C_16  and  C_17 
ROOT
HETATM    1  N   UNK N   1      31.813  16.956   5.848  0.00  0.00    -0.297 N 
HETATM    2  N   UNK N   1      30.856  17.773   3.981  0.00  0.00    -0.346 N 
ATOM      3  HN  UNK N   1      30.716  18.091   3.022  1.00  0.00     0.167 HD
HETATM    4  N   UNK N   1      29.854  17.129   7.265  0.00  0.00    -0.336 N 
ATOM      5  HN  UNK N   1      30.311  16.760   8.099  1.00  0.00     0.168 HD
HETATM    6  N   UNK N   1      27.936  18.015   6.165  0.00  0.00    -0.337 N 
ATOM      7  HN  UNK N   1      26.956  18.296   6.202  1.00  0.00     0.168 HD
HETATM    8  C   UNK N   1      30.532  17.262   6.101  0.00  0.00     0.142 A 
HETATM    9  C   UNK N   1      31.997  17.274   4.539  0.00  0.00     0.188 A 
HETATM   10  C   UNK N   1      29.960  17.752   4.983  0.00  0.00     0.122 A 
HETATM   11  C   UNK N   1      28.633  18.151   4.998  0.00  0.00     0.131 A 
HETATM   12  C   UNK N   1      28.537  17.504   7.291  0.00  0.00     0.183 A 
ENDROOT
BRANCH   1  13
HETATM   13  C   UNK N   1      32.832  16.449   6.776  0.00  0.00     0.262 C 
HETATM   14  O   UNK N   1      32.273  15.523   7.691  0.00  0.00    -0.353 OA
HETATM   15  C   UNK N   1      32.815  15.859   8.950  0.00  0.00     0.179 C 
HETATM   16  C   UNK N   1      34.028  16.710   8.692  0.00  0.00     0.182 C 
HETATM   17  C   UNK N   1      33.502  17.542   7.583  0.00  0.00     0.198 C 
BRANCH  15  18
HETATM   18  C   UNK N   1      33.204  14.615   9.728  0.00  0.00     0.198 C 
BRANCH  18  19
HETATM   19  O   UNK N   1      33.300  14.919  11.085  0.00  0.00    -0.398 OA
HETATM   20  H   UNK N   1      32.664  15.504  11.523  0.00  0.00     0.209 HD
ENDBRANCH  18  19
ENDBRANCH  15  18
BRANCH  16  21
HETATM   21  O   UNK N   1      34.366  17.485   9.801  0.00  0.00    -0.390 OA
HETATM   22  H   UNK N   1      34.079  18.326  10.190  0.00  0.00     0.210 HD
ENDBRANCH  16  21
BRANCH  17  23
HETATM   23  O   UNK N   1      34.556  18.120   6.876  0.00  0.00    -0.388 OA
HETATM   24  H   UNK N   1      35.496  17.917   7.000  0.00  0.00     0.210 HD
ENDBRANCH  17  23
ENDBRANCH   1  13
BRANCH  11  25
HETATM   25  N   UNK N   1      28.014  18.688   3.851  0.00  0.00    -0.383 N 
HETATM   26  H   UNK N   1      27.685  19.615   3.829  0.00  0.00     0.157 HD
HETATM   27  H   UNK N   1      27.909  18.121   3.052  0.00  0.00     0.157 HD
ENDBRANCH  11  25
TORSDOF 6
ENDMDL
MODEL 3
REMARK VINA RESULT:      -6.2      8.430     11.159
REMARK  6 active torsions:
REMARK  status: ('A' for Active; 'I' for Inactive)
REMARK    1  A    between atoms: C_13  and  O_2 
REMARK    2  A    between atoms: C_15  and  O_3 
REMARK    3  A    between atoms: O_4  and  C_17 
REMARK    4  A    between atoms: C_14  and  N_5 
REMARK    5  A    between atoms: N_12  and  C_21 
REMARK    6  A    between atoms: C_16  and  C_17 
ROOT
HETATM    1  N   UNK N   1      35.306  13.081  17.087  0.00  0.00    -0.297 N 
HETATM    2  N   UNK N   1      35.204  13.247  19.331  0.00  0.00    -0.346 N 
ATOM      3  HN  UNK N   1      35.178  13.632  20.275  1.00  0.00     0.167 HD
HETATM    4  N   UNK N   1      35.194  10.662  16.980  0.00  0.00    -0.336 N 
ATOM      5  HN  UNK N   1      35.246  10.613  15.962  1.00  0.00     0.168 HD
HETATM    6  N   UNK N   1      35.042   9.603  19.108  0.00  0.00    -0.337 N 
ATOM      7  HN  UNK N   1      34.976   8.746  19.658  1.00  0.00     0.168 HD
HETATM    8  C   UNK N   1      35.220  11.854  17.622  0.00  0.00     0.142 A 
HETATM    9  C   UNK N   1      35.292  13.928  18.152  0.00  0.00     0.188 A 
HETATM   10  C   UNK N   1      35.161  11.954  18.964  0.00  0.00     0.122 A 
HETATM   11  C   UNK N   1      35.077  10.811  19.744  0.00  0.00     0.131 A 
HETATM   12  C   UNK N   1      35.096   9.525  17.736  0.00  0.00     0.183 A 
ENDROOT
BRANCH   1  13
HETATM   13  C   UNK N   1      35.448  13.455  15.675  0.00  0.00     0.262 C 
HETATM   14  O   UNK N   1      34.627  12.650  14.848  0.00  0.00    -0.353 OA
HETATM   15  C   UNK N   1      35.428  12.302  13.740  0.00  0.00     0.179 C 
HETATM   16  C   UNK N   1      36.581  13.267  13.712  0.00  0.00     0.182 C 
HETATM   17  C   UNK N   1      36.869  13.334  15.164  0.00  0.00     0.198 C 
BRANCH  15  18
HETATM   18  C   UNK N   1      34.639  12.389  12.446  0.00  0.00     0.198 C 
BRANCH  18  19
HETATM   19  O   UNK N   1      34.335  13.722  12.169  0.00  0.00    -0.398 OA
HETATM   20  H   UNK N   1      34.591  14.140  11.333  0.00  0.00     0.209 HD
ENDBRANCH  18  19
ENDBRANCH  15  18
BRANCH  16  21
HETATM   21  O   UNK N   1      37.665  12.764  12.994  0.00  0.00    -0.390 OA
HETATM   22  H   UNK N   1      38.193  13.035  12.227  0.00  0.00     0.210 HD
ENDBRANCH  16  21
BRANCH  17  23
HETATM   23  O   UNK N   1      37.611  14.478  15.454  0.00  0.00    -0.388 OA
HETATM   24  H   UNK N   1      38.010  15.072  14.799  0.00  0.00     0.210 HD
ENDBRANCH  17  23
ENDBRANCH   1  13
BRANCH  11  25
HETATM   25  N   UNK N   1      35.036  10.883  21.151  0.00  0.00    -0.383 N 
HETATM   26  H   UNK N   1      35.845  11.061  21.682  0.00  0.00     0.157 HD
HETATM   27  H   UNK N   1      34.176  10.752  21.614  0.00  0.00     0.157 HD
ENDBRANCH  11  25
TORSDOF 6
ENDMDL
MODEL 4
REMARK VINA RESULT:      -6.0      3.809      6.727
REMARK  6 active torsions:
REMARK  status: ('A' for Active; 'I' for Inactive)
REMARK    1  A    between atoms: C_13  and  O_2 
REMARK    2  A    between atoms: C_15  and  O_3 
REMARK    3  A    between atoms: O_4  and  C_17 
REMARK    4  A    between atoms: C_14  and  N_5 
REMARK    5  A    between atoms: N_12  and  C_21 
REMARK    6  A    between atoms: C_16  and  C_17 
ROOT
HETATM    1  N   UNK N   1      35.031  16.100   9.728  0.00  0.00    -0.297 N 
HETATM    2  N   UNK N   1      36.580  15.657  11.301  0.00  0.00    -0.346 N 
ATOM      3  HN  UNK N   1      37.160  15.724  12.137  1.00  0.00     0.167 HD
HETATM    4  N   UNK N   1      35.515  14.191   8.314  0.00  0.00    -0.336 N 
ATOM      5  HN  UNK N   1      34.809  14.414   7.612  1.00  0.00     0.168 HD
HETATM    6  N   UNK N   1      37.268  12.800   9.129  0.00  0.00    -0.337 N 
ATOM      7  HN  UNK N   1      37.857  11.975   9.015  1.00  0.00     0.168 HD
HETATM    8  C   UNK N   1      35.693  14.980   9.399  0.00  0.00     0.142 A 
HETATM    9  C   UNK N   1      35.586  16.503  10.901  0.00  0.00     0.188 A 
HETATM   10  C   UNK N   1      36.621  14.717  10.341  0.00  0.00     0.122 A 
HETATM   11  C   UNK N   1      37.444  13.608  10.216  0.00  0.00     0.131 A 
HETATM   12  C   UNK N   1      36.310  13.083   8.185  0.00  0.00     0.183 A 
ENDROOT
BRANCH   1  13
HETATM   13  C   UNK N   1      33.979  16.793   8.975  0.00  0.00     0.262 C 
HETATM   14  O   UNK N   1      33.039  15.874   8.445  0.00  0.00    -0.353 OA
HETATM   15  C   UNK N   1      32.794  16.301   7.123  0.00  0.00     0.179 C 
HETATM   16  C   UNK N   1      33.266  17.725   7.026  0.00  0.00     0.182 C 
HETATM   17  C   UNK N   1      34.513  17.616   7.820  0.00  0.00     0.198 C 
BRANCH  15  18
HETATM   18  C   UNK N   1      31.317  16.213   6.784  0.00  0.00     0.198 C 
BRANCH  18  19
HETATM   19  O   UNK N   1      30.751  17.488   6.814  0.00  0.00    -0.398 OA
HETATM   20  H   UNK N   1      30.106  17.775   6.150  0.00  0.00     0.209 HD
ENDBRANCH  18  19
ENDBRANCH  15  18
BRANCH  16  21
HETATM   21  O   UNK N   1      33.526  18.101   5.709  0.00  0.00    -0.390 OA
HETATM   22  H   UNK N   1      33.994  17.727   4.946  0.00  0.00     0.210 HD
ENDBRANCH  16  21
BRANCH  17  23
HETATM   23  O   UNK N   1      34.924  18.879   8.245  0.00  0.00    -0.388 OA
HETATM   24  H   UNK N   1      35.636  19.056   8.879  0.00  0.00     0.210 HD
ENDBRANCH  17  23
ENDBRANCH   1  13
BRANCH  11  25
HETATM   25  N   UNK N   1      38.437  13.320  11.173  0.00  0.00    -0.383 N 
HETATM   26  H   UNK N   1      39.369  13.611  11.051  0.00  0.00     0.157 HD
HETATM   27  H   UNK N   1      38.193  12.815  11.982  0.00  0.00     0.157 HD
ENDBRANCH  11  25
TORSDOF 6
ENDMDL
MODEL 5
REMARK VINA RESULT:      -5.9      5.380      8.114
REMARK  6 active torsions:
REMARK  status: ('A' for Active; 'I' for Inactive)
REMARK    1  A    between atoms: C_13  and  O_2 
REMARK    2  A    between atoms: C_15  and  O_3 
REMARK    3  A    between atoms: O_4  and  C_17 
REMARK    4  A    between atoms: C_14  and  N_5 
REMARK    5  A    between atoms: N_12  and  C_21 
REMARK    6  A    between atoms: C_16  and  C_17 
ROOT
HETATM    1  N   UNK N   1      35.656  14.264  12.978  0.00  0.00    -0.297 N 
HETATM    2  N   UNK N   1      36.816  13.644  14.805  0.00  0.00    -0.346 N 
ATOM      3  HN  UNK N   1      37.447  13.663  15.606  1.00  0.00     0.167 HD
HETATM    4  N   UNK N   1      34.515  12.151  12.641  0.00  0.00    -0.336 N 
ATOM      5  HN  UNK N   1      34.004  12.454  11.812  1.00  0.00     0.168 HD
HETATM    6  N   UNK N   1      35.070  10.482  14.247  0.00  0.00    -0.337 N 
ATOM      7  HN  UNK N   1      34.952   9.533  14.601  1.00  0.00     0.168 HD
HETATM    8  C   UNK N   1      35.362  12.991  13.283  0.00  0.00     0.142 A 
HETATM    9  C   UNK N   1      36.550  14.652  13.926  0.00  0.00     0.188 A 
HETATM   10  C   UNK N   1      36.058  12.620  14.376  0.00  0.00     0.122 A 
HETATM   11  C   UNK N   1      35.928  11.336  14.881  0.00  0.00     0.131 A 
HETATM   12  C   UNK N   1      34.364  10.884  13.138  0.00  0.00     0.183 A 
ENDROOT
BRANCH   1  13
HETATM   13  C   UNK N   1      35.182  15.064  11.842  0.00  0.00     0.262 C 
HETATM   14  O   UNK N   1      33.898  14.641  11.420  0.00  0.00    -0.353 OA
HETATM   15  C   UNK N   1      33.954  14.610  10.010  0.00  0.00     0.179 C 
HETATM   16  C   UNK N   1      35.141  15.436   9.599  0.00  0.00     0.182 C 
HETATM   17  C   UNK N   1      36.103  15.002  10.640  0.00  0.00     0.198 C 
BRANCH  15  18
HETATM   18  C   UNK N   1      32.684  15.177   9.400  0.00  0.00     0.198 C 
BRANCH  18  19
HETATM   19  O   UNK N   1      31.676  15.215  10.363  0.00  0.00    -0.398 OA
HETATM   20  H   UNK N   1      31.852  15.013  11.294  0.00  0.00     0.209 HD
ENDBRANCH  18  19
ENDBRANCH  15  18
BRANCH  16  21
HETATM   21  O   UNK N   1      35.587  15.108   8.319  0.00  0.00    -0.390 OA
HETATM   22  H   UNK N   1      35.659  14.305   7.779  0.00  0.00     0.210 HD
ENDBRANCH  16  21
BRANCH  17  23
HETATM   23  O   UNK N   1      37.141  15.925  10.749  0.00  0.00    -0.388 OA
HETATM   24  H   UNK N   1      37.039  16.890  10.757  0.00  0.00     0.210 HD
ENDBRANCH  17  23
ENDBRANCH   1  13
BRANCH  11  25
HETATM   25  N   UNK N   1      36.659  10.914  16.009  0.00  0.00    -0.383 N 
HETATM   26  H   UNK N   1      36.790   9.959  16.210  0.00  0.00     0.157 HD
HETATM   27  H   UNK N   1      37.047  11.589  16.611  0.00  0.00     0.157 HD
ENDBRANCH  11  25
TORSDOF 6
ENDMDL
MODEL 6
REMARK VINA RESULT:      -5.9      8.750     11.502
REMARK  6 active torsions:
REMARK  status: ('A' for Active; 'I' for Inactive)
REMARK    1  A    between atoms: C_13  and  O_2 
REMARK    2  A    between atoms: C_15  and  O_3 
REMARK    3  A    between atoms: O_4  and  C_17 
REMARK    4  A    between atoms: C_14  and  N_5 
REMARK    5  A    between atoms: N_12  and  C_21 
REMARK    6  A    between atoms: C_16  and  C_17 
ROOT
HETATM    1  N   UNK N   1      23.283  19.168   3.804  0.00  0.00    -0.297 N 
HETATM    2  N   UNK N   1      24.957  20.477   3.060  0.00  0.00    -0.346 N 
ATOM      3  HN  UNK N   1      25.469  21.222   2.589  1.00  0.00     0.167 HD
HETATM    4  N   UNK N   1      24.673  17.611   5.038  0.00  0.00    -0.336 N 
ATOM      5  HN  UNK N   1      23.897  17.031   5.359  1.00  0.00     0.168 HD
HETATM    6  N   UNK N   1      27.002  18.097   4.934  0.00  0.00    -0.337 N 
ATOM      7  HN  UNK N   1      27.959  17.861   5.196  1.00  0.00     0.168 HD
HETATM    8  C   UNK N   1      24.454  18.695   4.257  0.00  0.00     0.142 A 
HETATM    9  C   UNK N   1      23.609  20.266   3.071  0.00  0.00     0.188 A 
HETATM   10  C   UNK N   1      25.455  19.478   3.810  0.00  0.00     0.122 A 
HETATM   11  C   UNK N   1      26.769  19.183   4.139  0.00  0.00     0.131 A 
HETATM   12  C   UNK N   1      25.964  17.317   5.385  0.00  0.00     0.183 A 
ENDROOT
BRANCH   1  13
HETATM   13  C   UNK N   1      21.938  18.609   3.990  0.00  0.00     0.262 C 
HETATM   14  O   UNK N   1      21.896  17.244   3.612  0.00  0.00    -0.353 OA
HETATM   15  C   UNK N   1      20.704  17.092   2.872  0.00  0.00     0.179 C 
HETATM   16  C   UNK N   1      19.836  18.277   3.189  0.00  0.00     0.182 C 
HETATM   17  C   UNK N   1      20.873  19.336   3.195  0.00  0.00     0.198 C 
BRANCH  15  18
HETATM   18  C   UNK N   1      19.991  15.804   3.242  0.00  0.00     0.198 C 
BRANCH  18  19
HETATM   19  O   UNK N   1      19.252  15.344   2.152  0.00  0.00    -0.398 OA
HETATM   20  H   UNK N   1      19.043  15.918   1.399  0.00  0.00     0.209 HD
ENDBRANCH  18  19
ENDBRANCH  15  18
BRANCH  16  21
HETATM   21  O   UNK N   1      18.877  18.501   2.202  0.00  0.00    -0.390 OA
HETATM   22  H   UNK N   1      18.157  19.132   2.044  0.00  0.00     0.210 HD
ENDBRANCH  16  21
BRANCH  17  23
HETATM   23  O   UNK N   1      20.409  20.459   3.879  0.00  0.00    -0.388 OA
HETATM   24  H   UNK N   1      20.924  20.990   4.506  0.00  0.00     0.210 HD
ENDBRANCH  17  23
ENDBRANCH   1  13
BRANCH  11  25
HETATM   25  N   UNK N   1      27.839  19.971   3.669  0.00  0.00    -0.383 N 
HETATM   26  H   UNK N   1      27.683  20.812   3.181  0.00  0.00     0.157 HD
HETATM   27  H   UNK N   1      28.763  19.673   3.831  0.00  0.00     0.157 HD
ENDBRANCH  11  25
TORSDOF 6
ENDMDL
MODEL 7
REMARK VINA RESULT:      -5.9      1.874      3.227
REMARK  6 active torsions:
REMARK  status: ('A' for Active; 'I' for Inactive)
REMARK    1  A    between atoms: C_13  and  O_2 
REMARK    2  A    between atoms: C_15  and  O_3 
REMARK    3  A    between atoms: O_4  and  C_17 
REMARK    4  A    between atoms: C_14  and  N_5 
REMARK    5  A    between atoms: N_12  and  C_21 
REMARK    6  A    between atoms: C_16  and  C_17 
ROOT
HETATM    1  N   UNK N   1      31.345  16.782   6.653  0.00  0.00    -0.297 N 
HETATM    2  N   UNK N   1      29.096  16.887   6.640  0.00  0.00    -0.346 N 
ATOM      3  HN  UNK N   1      28.126  16.947   6.949  1.00  0.00     0.167 HD
HETATM    4  N   UNK N   1      31.632  16.653   4.249  0.00  0.00    -0.336 N 
ATOM      5  HN  UNK N   1      32.651  16.602   4.281  1.00  0.00     0.168 HD
HETATM    6  N   UNK N   1      29.590  16.687   3.024  0.00  0.00    -0.337 N 
ATOM      7  HN  UNK N   1      29.106  16.665   2.127  1.00  0.00     0.168 HD
HETATM    8  C   UNK N   1      30.904  16.742   5.387  0.00  0.00     0.142 A 
HETATM    9  C   UNK N   1      30.220  16.874   7.412  0.00  0.00     0.188 A 
HETATM   10  C   UNK N   1      29.557  16.804   5.380  0.00  0.00     0.122 A 
HETATM   11  C   UNK N   1      28.865  16.769   4.179  0.00  0.00     0.131 A 
HETATM   12  C   UNK N   1      30.963  16.633   3.055  0.00  0.00     0.183 A 
ENDROOT
BRANCH   1  13
HETATM   13  C   UNK N   1      32.725  16.685   7.143  0.00  0.00     0.262 C 
HETATM   14  O   UNK N   1      32.756  16.375   8.525  0.00  0.00    -0.353 OA
HETATM   15  C   UNK N   1      33.740  17.220   9.081  0.00  0.00     0.179 C 
HETATM   16  C   UNK N   1      34.588  17.716   7.943  0.00  0.00     0.182 C 
HETATM   17  C   UNK N   1      33.521  17.959   6.942  0.00  0.00     0.198 C 
BRANCH  15  18
HETATM   18  C   UNK N   1      34.598  16.472  10.086  0.00  0.00     0.198 C 
BRANCH  18  19
HETATM   19  O   UNK N   1      35.638  17.293  10.521  0.00  0.00    -0.398 OA
HETATM   20  H   UNK N   1      36.527  17.235  10.137  0.00  0.00     0.209 HD
ENDBRANCH  18  19
ENDBRANCH  15  18
BRANCH  16  21
HETATM   21  O   UNK N   1      35.263  18.892   8.270  0.00  0.00    -0.390 OA
HETATM   22  H   UNK N   1      35.506  19.366   9.081  0.00  0.00     0.210 HD
ENDBRANCH  16  21
BRANCH  17  23
HETATM   23  O   UNK N   1      34.069  18.018   5.662  0.00  0.00    -0.388 OA
HETATM   24  H   UNK N   1      34.946  17.689   5.409  0.00  0.00     0.210 HD
ENDBRANCH  17  23
ENDBRANCH   1  13
BRANCH  11  25
HETATM   25  N   UNK N   1      27.457  16.810   4.142  0.00  0.00    -0.383 N 
HETATM   26  H   UNK N   1      26.963  17.655   4.248  0.00  0.00     0.157 HD
HETATM   27  H   UNK N   1      26.955  15.974   4.007  0.00  0.00     0.157 HD
ENDBRANCH  11  25
TORSDOF 6
ENDMDL
MODEL 8
REMARK VINA RESULT:      -5.7      2.424      3.599
REMARK  6 active torsions:
REMARK  status: ('A' for Active; 'I' for Inactive)
REMARK    1  A    between atoms: C_13  and  O_2 
REMARK    2  A    between atoms: C_15  and  O_3 
REMARK    3  A    between atoms: O_4  and  C_17 
REMARK    4  A    between atoms: C_14  and  N_5 
REMARK    5  A    between atoms: N_12  and  C_21 
REMARK    6  A    between atoms: C_16  and  C_17 
ROOT
HETATM    1  N   UNK N   1      31.490  17.191   7.008  0.00  0.00    -0.297 N 
HETATM    2  N   UNK N   1      30.546  17.767   8.970  0.00  0.00    -0.346 N 
ATOM      3  HN  UNK N   1      30.421  17.993   9.957  1.00  0.00     0.167 HD
HETATM    4  N   UNK N   1      29.460  17.279   5.686  0.00  0.00    -0.336 N 
ATOM      5  HN  UNK N   1      29.910  17.013   4.810  1.00  0.00     0.168 HD
HETATM    6  N   UNK N   1      27.518  17.880   6.928  0.00  0.00    -0.337 N 
ATOM      7  HN  UNK N   1      26.515  18.062   6.952  1.00  0.00     0.168 HD
HETATM    8  C   UNK N   1      30.175  17.389   6.830  0.00  0.00     0.142 A 
HETATM    9  C   UNK N   1      31.703  17.430   8.330  0.00  0.00     0.188 A 
HETATM   10  C   UNK N   1      29.611  17.732   8.005  0.00  0.00     0.122 A 
HETATM   11  C   UNK N   1      28.249  17.980   8.077  0.00  0.00     0.131 A 
HETATM   12  C   UNK N   1      28.116  17.536   5.738  0.00  0.00     0.183 A 
ENDROOT
BRANCH   1  13
HETATM   13  C   UNK N   1      32.489  16.753   6.027  0.00  0.00     0.262 C 
HETATM   14  O   UNK N   1      32.205  15.447   5.557  0.00  0.00    -0.353 OA
HETATM   15  C   UNK N   1      33.444  14.771   5.542  0.00  0.00     0.179 C 
HETATM   16  C   UNK N   1      34.518  15.822   5.591  0.00  0.00     0.182 C 
HETATM   17  C   UNK N   1      33.902  16.744   6.574  0.00  0.00     0.198 C 
BRANCH  15  18
HETATM   18  C   UNK N   1      33.592  13.928   4.288  0.00  0.00     0.198 C 
BRANCH  18  19
HETATM   19  O   UNK N   1      34.348  14.619   3.342  0.00  0.00    -0.398 OA
HETATM   20  H   UNK N   1      34.512  15.572   3.417  0.00  0.00     0.209 HD
ENDBRANCH  18  19
ENDBRANCH  15  18
BRANCH  16  21
HETATM   21  O   UNK N   1      35.729  15.309   6.054  0.00  0.00    -0.390 OA
HETATM   22  H   UNK N   1      36.530  15.658   6.476  0.00  0.00     0.210 HD
ENDBRANCH  16  21
BRANCH  17  23
HETATM   23  O   UNK N   1      34.489  18.006   6.482  0.00  0.00    -0.388 OA
HETATM   24  H   UNK N   1      34.150  18.747   5.955  0.00  0.00     0.210 HD
ENDBRANCH  17  23
ENDBRANCH   1  13
BRANCH  11  25
HETATM   25  N   UNK N   1      27.628  18.319   9.296  0.00  0.00    -0.383 N 
HETATM   26  H   UNK N   1      26.681  18.113   9.466  0.00  0.00     0.157 HD
HETATM   27  H   UNK N   1      28.154  18.773   9.994  0.00  0.00     0.157 HD
ENDBRANCH  11  25
TORSDOF 6
ENDMDL
MODEL 9
REMARK VINA RESULT:      -5.7      4.430      7.258
REMARK  6 active torsions:
REMARK  status: ('A' for Active; 'I' for Inactive)
REMARK    1  A    between atoms: C_13  and  O_2 
REMARK    2  A    between atoms: C_15  and  O_3 
REMARK    3  A    between atoms: O_4  and  C_17 
REMARK    4  A    between atoms: C_14  and  N_5 
REMARK    5  A    between atoms: N_12  and  C_21 
REMARK    6  A    between atoms: C_16  and  C_17 
ROOT
HETATM    1  N   UNK N   1      35.073  14.780  10.960  0.00  0.00    -0.297 N 
HETATM    2  N   UNK N   1      36.456  15.273  12.666  0.00  0.00    -0.346 N 
ATOM      3  HN  UNK N   1      37.098  15.773  13.281  1.00  0.00     0.167 HD
HETATM    4  N   UNK N   1      34.559  12.517  11.662  0.00  0.00    -0.336 N 
ATOM      5  HN  UNK N   1      33.939  12.316  10.876  1.00  0.00     0.168 HD
HETATM    6  N   UNK N   1      35.648  11.855  13.673  0.00  0.00    -0.337 N 
ATOM      7  HN  UNK N   1      35.821  11.142  14.382  1.00  0.00     0.168 HD
HETATM    8  C   UNK N   1      35.167  13.722  11.778  0.00  0.00     0.142 A 
HETATM    9  C   UNK N   1      35.870  15.728  11.522  0.00  0.00     0.188 A 
HETATM   10  C   UNK N   1      35.996  14.017  12.798  0.00  0.00     0.122 A 
HETATM   11  C   UNK N   1      36.262  13.070  13.776  0.00  0.00     0.131 A 
HETATM   12  C   UNK N   1      34.799  11.578  12.628  0.00  0.00     0.183 A 
ENDROOT
BRANCH   1  13
HETATM   13  C   UNK N   1      34.332  14.897   9.698  0.00  0.00     0.262 C 
HETATM   14  O   UNK N   1      35.137  15.471   8.684  0.00  0.00    -0.353 OA
HETATM   15  C   UNK N   1      34.311  16.408   8.028  0.00  0.00     0.179 C 
HETATM   16  C   UNK N   1      32.890  16.065   8.383  0.00  0.00     0.182 C 
HETATM   17  C   UNK N   1      33.077  15.738   9.817  0.00  0.00     0.198 C 
BRANCH  15  18
HETATM   18  C   UNK N   1      34.504  16.349   6.523  0.00  0.00     0.198 C 
BRANCH  18  19
HETATM   19  O   UNK N   1      34.197  17.588   5.960  0.00  0.00    -0.398 OA
HETATM   20  H   UNK N   1      34.444  18.420   6.391  0.00  0.00     0.209 HD
ENDBRANCH  18  19
ENDBRANCH  15  18
BRANCH  16  21
HETATM   21  O   UNK N   1      32.033  17.151   8.210  0.00  0.00    -0.390 OA
HETATM   22  H   UNK N   1      31.155  17.306   7.827  0.00  0.00     0.210 HD
ENDBRANCH  16  21
BRANCH  17  23
HETATM   23  O   UNK N   1      32.002  14.982  10.280  0.00  0.00    -0.388 OA
HETATM   24  H   UNK N   1      32.065  14.219  10.877  0.00  0.00     0.210 HD
ENDBRANCH  17  23
ENDBRANCH   1  13
BRANCH  11  25
HETATM   25  N   UNK N   1      37.141  13.343  14.843  0.00  0.00    -0.383 N 
HETATM   26  H   UNK N   1      37.879  12.733  15.071  0.00  0.00     0.157 HD
HETATM   27  H   UNK N   1      37.015  14.164  15.372  0.00  0.00     0.157 HD
ENDBRANCH  11  25
TORSDOF 6
ENDMDL
