MODEL 1
REMARK VINA RESULT:      -7.0      0.000      0.000
REMARK  7 active torsions:
REMARK  status: ('A' for Active; 'I' for Inactive)
REMARK    1  A    between atoms: C_8  and  O_2 
REMARK    2  A    between atoms: C_18  and  O_3 
REMARK    3  A    between atoms: O_4  and  C_27 
REMARK    4  A    between atoms: N_5  and  C_22 
REMARK    5  A    between atoms: C_10  and  C_18 
REMARK    6  A    between atoms: C_18  and  C_23 
REMARK    7  A    between atoms: C_22  and  C_24 
ROOT
HETATM    1  O   UNK N   1      27.518  25.011  -3.263  0.00  0.00    -0.338 OA
HETATM    2  N   UNK N   1      27.221  23.989  -8.395  0.00  0.00     0.094 N 
HETATM    3  C   UNK N   1      28.738  24.860  -6.553  0.00  0.00     0.006 C 
HETATM    4  C   UNK N   1      27.676  24.445  -5.538  0.00  0.00     0.031 C 
HETATM    5  C   UNK N   1      29.782  24.341  -4.135  0.00  0.00     0.094 C 
HETATM    6  C   UNK N   1      28.224  24.143  -4.115  0.00  0.00     0.178 C 
HETATM    7  C   UNK N   1      30.327  23.373  -5.252  0.00  0.00     0.058 C 
HETATM    8  C   UNK N   1      29.751  23.715  -6.654  0.00  0.00     0.023 C 
HETATM    9  C   UNK N   1      27.934  25.179  -7.873  0.00  0.00     0.236 C 
HETATM   10  C   UNK N   1      29.546  26.075  -6.021  0.00  0.00     0.016 C 
HETATM   11  C   UNK N   1      30.141  25.779  -4.616  0.00  0.00     0.042 C 
HETATM   12  C   UNK N   1      26.850  23.244  -6.037  0.00  0.00     0.048 C 
HETATM   13  C   UNK N   1      26.854  25.624  -5.284  0.00  0.00    -0.003 C 
HETATM   14  C   UNK N   1      26.866  26.327  -7.681  0.00  0.00     0.076 C 
HETATM   15  C   UNK N   1      26.241  23.474  -7.427  0.00  0.00     0.274 C 
HETATM   16  C   UNK N   1      26.367  26.485  -6.253  0.00  0.00    -0.046 C 
HETATM   17  C   UNK N   1      26.761  25.864  -3.968  0.00  0.00     0.110 C 
HETATM   18  C   UNK N   1      25.610  27.590  -5.829  0.00  0.00     0.011 C 
HETATM   19  C   UNK N   1      26.011  26.947  -3.497  0.00  0.00     0.099 C 
HETATM   20  C   UNK N   1      25.396  27.797  -4.443  0.00  0.00     0.040 C 
ENDROOT
BRANCH   7  21
HETATM   21  C   UNK N   1      31.830  22.934  -5.308  0.00  0.00     0.067 C 
HETATM   22  C   UNK N   1      32.728  23.903  -4.541  0.00  0.00     0.047 C 
BRANCH  21  23
HETATM   23  O   UNK N   1      32.278  22.946  -6.637  0.00  0.00    -0.389 OA
HETATM   24  H   UNK N   1      32.482  22.162  -7.171  0.00  0.00     0.210 HD
ENDBRANCH  21  23
BRANCH  21  25
HETATM   25  C   UNK N   1      31.978  21.481  -4.767  0.00  0.00    -0.020 C 
HETATM   26  C   UNK N   1      32.660  21.472  -3.405  0.00  0.00     0.017 C 
HETATM   27  C   UNK N   1      30.634  20.785  -4.620  0.00  0.00     0.017 C 
HETATM   28  C   UNK N   1      32.837  20.642  -5.706  0.00  0.00     0.017 C 
ENDBRANCH  21  25
ENDBRANCH   7  21
BRANCH   5  29
HETATM   29  O   UNK N   1      30.358  23.995  -2.886  0.00  0.00    -0.382 OA
HETATM   30  C   UNK N   1      29.566  23.041  -2.226  0.00  0.00     0.202 C 
ENDBRANCH   5  29
BRANCH   2  31
HETATM   31  C   UNK N   1      28.090  22.893  -8.838  0.00  0.00     0.277 C 
BRANCH  31  32
HETATM   32  C   UNK N   1      27.362  21.557  -8.878  0.00  0.00     0.014 A 
HETATM   33  C   UNK N   1      28.201  20.490  -8.215  0.00  0.00     0.007 A 
HETATM   34  C   UNK N   1      28.158  20.591  -9.727  0.00  0.00     0.007 A 
ENDBRANCH  31  32
ENDBRANCH   2  31
BRANCH  19  35
HETATM   35  O   UNK N   1      25.896  27.189  -2.180  0.00  0.00    -0.358 OA
HETATM   36  H   UNK N   1      25.182  26.826  -1.695  0.00  0.00     0.217 HD
ENDBRANCH  19  35
TORSDOF 7
ENDMDL
MODEL 2
REMARK VINA RESULT:      -6.8      2.109      5.948
REMARK  7 active torsions:
REMARK  status: ('A' for Active; 'I' for Inactive)
REMARK    1  A    between atoms: C_8  and  O_2 
REMARK    2  A    between atoms: C_18  and  O_3 
REMARK    3  A    between atoms: O_4  and  C_27 
REMARK    4  A    between atoms: N_5  and  C_22 
REMARK    5  A    between atoms: C_10  and  C_18 
REMARK    6  A    between atoms: C_18  and  C_23 
REMARK    7  A    between atoms: C_22  and  C_24 
ROOT
HETATM    1  O   UNK N   1      29.565  23.325  -6.160  0.00  0.00    -0.338 OA
HETATM    2  N   UNK N   1      25.956  24.578  -9.749  0.00  0.00     0.094 N 
HETATM    3  C   UNK N   1      26.370  24.284  -7.260  0.00  0.00     0.006 C 
HETATM    4  C   UNK N   1      27.855  24.106  -7.569  0.00  0.00     0.031 C 
HETATM    5  C   UNK N   1      27.935  24.980  -5.193  0.00  0.00     0.094 C 
HETATM    6  C   UNK N   1      28.808  24.485  -6.401  0.00  0.00     0.178 C 
HETATM    7  C   UNK N   1      27.080  26.184  -5.741  0.00  0.00     0.058 C 
HETATM    8  C   UNK N   1      26.145  25.757  -6.905  0.00  0.00     0.023 C 
HETATM    9  C   UNK N   1      25.624  23.770  -8.552  0.00  0.00     0.236 C 
HETATM   10  C   UNK N   1      25.989  23.491  -5.979  0.00  0.00     0.016 C 
HETATM   11  C   UNK N   1      26.902  23.887  -4.785  0.00  0.00     0.042 C 
HETATM   12  C   UNK N   1      28.267  24.874  -8.839  0.00  0.00     0.048 C 
HETATM   13  C   UNK N   1      28.094  22.671  -7.680  0.00  0.00    -0.003 C 
HETATM   14  C   UNK N   1      25.948  22.262  -8.893  0.00  0.00     0.076 C 
HETATM   15  C   UNK N   1      27.394  24.532 -10.054  0.00  0.00     0.274 C 
HETATM   16  C   UNK N   1      27.289  21.776  -8.365  0.00  0.00    -0.046 C 
HETATM   17  C   UNK N   1      29.112  22.296  -6.891  0.00  0.00     0.110 C 
HETATM   18  C   UNK N   1      27.654  20.419  -8.348  0.00  0.00     0.011 C 
HETATM   19  C   UNK N   1      29.518  20.959  -6.848  0.00  0.00     0.099 C 
HETATM   20  C   UNK N   1      28.802  20.016  -7.618  0.00  0.00     0.040 C 
ENDROOT
BRANCH   7  21
HETATM   21  C   UNK N   1      26.413  27.231  -4.785  0.00  0.00     0.067 C 
HETATM   22  C   UNK N   1      26.277  26.688  -3.363  0.00  0.00     0.047 C 
BRANCH  21  23
HETATM   23  O   UNK N   1      25.112  27.514  -5.227  0.00  0.00    -0.389 OA
HETATM   24  H   UNK N   1      24.779  28.390  -5.478  0.00  0.00     0.210 HD
ENDBRANCH  21  23
BRANCH  21  25
HETATM   25  C   UNK N   1      27.224  28.561  -4.805  0.00  0.00    -0.020 C 
HETATM   26  C   UNK N   1      28.452  28.465  -3.909  0.00  0.00     0.017 C 
HETATM   27  C   UNK N   1      27.695  28.922  -6.205  0.00  0.00     0.017 C 
HETATM   28  C   UNK N   1      26.376  29.716  -4.286  0.00  0.00     0.017 C 
ENDBRANCH  21  25
ENDBRANCH   7  21
BRANCH   5  29
HETATM   29  O   UNK N   1      28.749  25.426  -4.121  0.00  0.00    -0.382 OA
HETATM   30  C   UNK N   1      29.106  24.349  -3.294  0.00  0.00     0.202 C 
ENDBRANCH   5  29
BRANCH   2  31
HETATM   31  C   UNK N   1      25.516  25.977  -9.691  0.00  0.00     0.277 C 
BRANCH  31  32
HETATM   32  C   UNK N   1      25.317  26.579 -11.075  0.00  0.00     0.014 A 
HETATM   33  C   UNK N   1      23.860  26.916 -11.287  0.00  0.00     0.007 A 
HETATM   34  C   UNK N   1      24.441  25.652 -11.890  0.00  0.00     0.007 A 
ENDBRANCH  31  32
ENDBRANCH   2  31
BRANCH  19  35
HETATM   35  O   UNK N   1      30.548  20.573  -6.076  0.00  0.00    -0.358 OA
HETATM   36  H   UNK N   1      31.282  20.132  -6.455  0.00  0.00     0.217 HD
ENDBRANCH  19  35
TORSDOF 7
ENDMDL
MODEL 3
REMARK VINA RESULT:      -6.7     12.731     16.411
REMARK  7 active torsions:
REMARK  status: ('A' for Active; 'I' for Inactive)
REMARK    1  A    between atoms: C_8  and  O_2 
REMARK    2  A    between atoms: C_18  and  O_3 
REMARK    3  A    between atoms: O_4  and  C_27 
REMARK    4  A    between atoms: N_5  and  C_22 
REMARK    5  A    between atoms: C_10  and  C_18 
REMARK    6  A    between atoms: C_18  and  C_23 
REMARK    7  A    between atoms: C_22  and  C_24 
ROOT
HETATM    1  O   UNK N   1      32.584  16.267   3.968  0.00  0.00    -0.338 OA
HETATM    2  N   UNK N   1      33.627  17.187   9.021  0.00  0.00     0.094 N 
HETATM    3  C   UNK N   1      33.170  15.365   7.311  0.00  0.00     0.006 C 
HETATM    4  C   UNK N   1      33.236  16.430   6.219  0.00  0.00     0.031 C 
HETATM    5  C   UNK N   1      33.893  14.348   4.935  0.00  0.00     0.094 C 
HETATM    6  C   UNK N   1      33.641  15.893   4.817  0.00  0.00     0.178 C 
HETATM    7  C   UNK N   1      35.007  14.174   6.035  0.00  0.00     0.058 C 
HETATM    8  C   UNK N   1      34.557  14.724   7.416  0.00  0.00     0.023 C 
HETATM    9  C   UNK N   1      32.674  16.135   8.597  0.00  0.00     0.236 C 
HETATM   10  C   UNK N   1      32.218  14.214   6.883  0.00  0.00     0.016 C 
HETATM   11  C   UNK N   1      32.630  13.632   5.502  0.00  0.00     0.042 C 
HETATM   12  C   UNK N   1      34.168  17.592   6.613  0.00  0.00     0.048 C 
HETATM   13  C   UNK N   1      31.866  16.868   5.974  0.00  0.00    -0.003 C 
HETATM   14  C   UNK N   1      31.265  16.822   8.398  0.00  0.00     0.076 C 
HETATM   15  C   UNK N   1      33.815  18.204   7.975  0.00  0.00     0.274 C 
HETATM   16  C   UNK N   1      30.931  17.158   6.953  0.00  0.00    -0.046 C 
HETATM   17  C   UNK N   1      31.572  16.800   4.667  0.00  0.00     0.110 C 
HETATM   18  C   UNK N   1      29.645  17.543   6.539  0.00  0.00     0.011 C 
HETATM   19  C   UNK N   1      30.308  17.182   4.206  0.00  0.00     0.099 C 
HETATM   20  C   UNK N   1      29.346  17.596   5.153  0.00  0.00     0.040 C 
ENDROOT
BRANCH   7  21
HETATM   21  C   UNK N   1      35.856  12.862   6.156  0.00  0.00     0.067 C 
HETATM   22  C   UNK N   1      35.140  11.668   5.527  0.00  0.00     0.047 C 
BRANCH  21  23
HETATM   23  O   UNK N   1      36.046  12.544   7.509  0.00  0.00    -0.389 OA
HETATM   24  H   UNK N   1      36.657  11.873   7.850  0.00  0.00     0.210 HD
ENDBRANCH  21  23
BRANCH  21  25
HETATM   25  C   UNK N   1      37.260  13.078   5.515  0.00  0.00    -0.020 C 
HETATM   26  C   UNK N   1      38.361  12.533   6.416  0.00  0.00     0.017 C 
HETATM   27  C   UNK N   1      37.382  12.393   4.163  0.00  0.00     0.017 C 
HETATM   28  C   UNK N   1      37.536  14.562   5.313  0.00  0.00     0.017 C 
ENDBRANCH  21  25
ENDBRANCH   7  21
BRANCH   5  29
HETATM   29  O   UNK N   1      34.353  13.809   3.706  0.00  0.00    -0.382 OA
HETATM   30  C   UNK N   1      33.282  13.266   2.977  0.00  0.00     0.202 C 
ENDBRANCH   5  29
BRANCH   2  31
HETATM   31  C   UNK N   1      34.937  16.693   9.461  0.00  0.00     0.277 C 
BRANCH  31  32
HETATM   32  C   UNK N   1      34.983  16.427  10.959  0.00  0.00     0.014 A 
HETATM   33  C   UNK N   1      36.094  15.456  11.278  0.00  0.00     0.007 A 
HETATM   34  C   UNK N   1      34.660  14.970  11.207  0.00  0.00     0.007 A 
ENDBRANCH  31  32
ENDBRANCH   2  31
BRANCH  19  35
HETATM   35  O   UNK N   1      30.006  17.135   2.897  0.00  0.00    -0.358 OA
HETATM   36  H   UNK N   1      29.130  16.949   2.622  0.00  0.00     0.217 HD
ENDBRANCH  19  35
TORSDOF 7
ENDMDL
MODEL 4
REMARK VINA RESULT:      -6.7     14.964     17.565
REMARK  7 active torsions:
REMARK  status: ('A' for Active; 'I' for Inactive)
REMARK    1  A    between atoms: C_8  and  O_2 
REMARK    2  A    between atoms: C_18  and  O_3 
REMARK    3  A    between atoms: O_4  and  C_27 
REMARK    4  A    between atoms: N_5  and  C_22 
REMARK    5  A    between atoms: C_10  and  C_18 
REMARK    6  A    between atoms: C_18  and  C_23 
REMARK    7  A    between atoms: C_22  and  C_24 
ROOT
HETATM    1  O   UNK N   1      20.224  14.188   7.810  0.00  0.00    -0.338 OA
HETATM    2  N   UNK N   1      25.120  13.642   6.022  0.00  0.00     0.094 N 
HETATM    3  C   UNK N   1      22.733  12.810   5.776  0.00  0.00     0.006 C 
HETATM    4  C   UNK N   1      22.290  13.920   6.726  0.00  0.00     0.031 C 
HETATM    5  C   UNK N   1      20.179  13.538   5.380  0.00  0.00     0.094 C 
HETATM    6  C   UNK N   1      20.815  14.373   6.548  0.00  0.00     0.178 C 
HETATM    7  C   UNK N   1      21.088  13.797   4.119  0.00  0.00     0.058 C 
HETATM    8  C   UNK N   1      22.551  13.327   4.345  0.00  0.00     0.023 C 
HETATM    9  C   UNK N   1      24.217  12.481   6.200  0.00  0.00     0.236 C 
HETATM   10  C   UNK N   1      21.779  11.589   5.893  0.00  0.00     0.016 C 
HETATM   11  C   UNK N   1      20.299  12.012   5.675  0.00  0.00     0.042 C 
HETATM   12  C   UNK N   1      23.220  15.146   6.641  0.00  0.00     0.048 C 
HETATM   13  C   UNK N   1      22.252  13.338   8.064  0.00  0.00    -0.003 C 
HETATM   14  C   UNK N   1      24.338  12.011   7.704  0.00  0.00     0.076 C 
HETATM   15  C   UNK N   1      24.699  14.789   6.840  0.00  0.00     0.274 C 
HETATM   16  C   UNK N   1      23.225  12.517   8.609  0.00  0.00    -0.046 C 
HETATM   17  C   UNK N   1      21.067  13.568   8.648  0.00  0.00     0.110 C 
HETATM   18  C   UNK N   1      23.015  12.022   9.906  0.00  0.00     0.011 C 
HETATM   19  C   UNK N   1      20.815  13.104   9.943  0.00  0.00     0.099 C 
HETATM   20  C   UNK N   1      21.820  12.354  10.594  0.00  0.00     0.040 C 
ENDROOT
BRANCH   7  21
HETATM   21  C   UNK N   1      20.584  13.518   2.662  0.00  0.00     0.067 C 
HETATM   22  C   UNK N   1      19.104  13.138   2.642  0.00  0.00     0.047 C 
BRANCH  21  23
HETATM   23  O   UNK N   1      21.281  12.428   2.120  0.00  0.00    -0.389 OA
HETATM   24  H   UNK N   1      21.939  12.476   1.410  0.00  0.00     0.210 HD
ENDBRANCH  21  23
BRANCH  21  25
HETATM   25  C   UNK N   1      20.859  14.757   1.759  0.00  0.00    -0.020 C 
HETATM   26  C   UNK N   1      19.703  14.999   0.797  0.00  0.00     0.017 C 
HETATM   27  C   UNK N   1      21.060  16.025   2.574  0.00  0.00     0.017 C 
HETATM   28  C   UNK N   1      22.109  14.541   0.916  0.00  0.00     0.017 C 
ENDBRANCH  21  25
ENDBRANCH   7  21
BRANCH   5  29
HETATM   29  O   UNK N   1      18.856  13.965   5.105  0.00  0.00    -0.382 OA
HETATM   30  C   UNK N   1      18.749  15.358   5.246  0.00  0.00     0.202 C 
ENDBRANCH   5  29
BRANCH   2  31
HETATM   31  C   UNK N   1      25.301  14.076   4.632  0.00  0.00     0.277 C 
BRANCH  31  32
HETATM   32  C   UNK N   1      25.818  15.505   4.534  0.00  0.00     0.014 A 
HETATM   33  C   UNK N   1      25.017  16.276   3.511  0.00  0.00     0.007 A 
HETATM   34  C   UNK N   1      26.383  15.727   3.149  0.00  0.00     0.007 A 
ENDBRANCH  31  32
ENDBRANCH   2  31
BRANCH  19  35
HETATM   35  O   UNK N   1      19.638  13.343  10.547  0.00  0.00    -0.358 OA
HETATM   36  H   UNK N   1      19.508  13.094  11.440  0.00  0.00     0.217 HD
ENDBRANCH  19  35
TORSDOF 7
ENDMDL
MODEL 5
REMARK VINA RESULT:      -6.6      1.800      2.233
REMARK  7 active torsions:
REMARK  status: ('A' for Active; 'I' for Inactive)
REMARK    1  A    between atoms: C_8  and  O_2 
REMARK    2  A    between atoms: C_18  and  O_3 
REMARK    3  A    between atoms: O_4  and  C_27 
REMARK    4  A    between atoms: N_5  and  C_22 
REMARK    5  A    between atoms: C_10  and  C_18 
REMARK    6  A    between atoms: C_18  and  C_23 
REMARK    7  A    between atoms: C_22  and  C_24 
ROOT
HETATM    1  O   UNK N   1      29.578  26.547  -3.631  0.00  0.00    -0.338 OA
HETATM    2  N   UNK N   1      25.681  24.269  -6.295  0.00  0.00     0.094 N 
HETATM    3  C   UNK N   1      28.137  24.912  -6.385  0.00  0.00     0.006 C 
HETATM    4  C   UNK N   1      28.043  25.317  -4.916  0.00  0.00     0.031 C 
HETATM    5  C   UNK N   1      30.502  24.745  -5.126  0.00  0.00     0.094 C 
HETATM    6  C   UNK N   1      29.388  25.250  -4.140  0.00  0.00     0.178 C 
HETATM    7  C   UNK N   1      30.002  23.353  -5.668  0.00  0.00     0.058 C 
HETATM    8  C   UNK N   1      28.657  23.472  -6.435  0.00  0.00     0.023 C 
HETATM    9  C   UNK N   1      26.684  25.134  -6.959  0.00  0.00     0.236 C 
HETATM   10  C   UNK N   1      29.217  25.762  -7.110  0.00  0.00     0.016 C 
HETATM   11  C   UNK N   1      30.583  25.674  -6.375  0.00  0.00     0.042 C 
HETATM   12  C   UNK N   1      26.975  24.497  -4.166  0.00  0.00     0.048 C 
HETATM   13  C   UNK N   1      27.769  26.750  -4.890  0.00  0.00    -0.003 C 
HETATM   14  C   UNK N   1      26.188  26.628  -6.821  0.00  0.00     0.076 C 
HETATM   15  C   UNK N   1      25.602  24.538  -4.851  0.00  0.00     0.274 C 
HETATM   16  C   UNK N   1      26.846  27.403  -5.690  0.00  0.00    -0.046 C 
HETATM   17  C   UNK N   1      28.647  27.388  -4.102  0.00  0.00     0.110 C 
HETATM   18  C   UNK N   1      26.728  28.796  -5.553  0.00  0.00     0.011 C 
HETATM   19  C   UNK N   1      28.563  28.773  -3.926  0.00  0.00     0.099 C 
HETATM   20  C   UNK N   1      27.565  29.479  -4.633  0.00  0.00     0.040 C 
ENDROOT
BRANCH   7  21
HETATM   21  C   UNK N   1      30.980  22.318  -6.322  0.00  0.00     0.067 C 
HETATM   22  C   UNK N   1      32.202  23.005  -6.929  0.00  0.00     0.047 C 
BRANCH  21  23
HETATM   23  O   UNK N   1      30.333  21.656  -7.375  0.00  0.00    -0.389 OA
HETATM   24  H   UNK N   1      30.633  21.634  -8.297  0.00  0.00     0.210 HD
ENDBRANCH  21  23
BRANCH  21  25
HETATM   25  C   UNK N   1      31.399  21.247  -5.271  0.00  0.00    -0.020 C 
HETATM   26  C   UNK N   1      32.829  21.477  -4.799  0.00  0.00     0.017 C 
HETATM   27  C   UNK N   1      30.496  21.262  -4.048  0.00  0.00     0.017 C 
HETATM   28  C   UNK N   1      31.343  19.850  -5.875  0.00  0.00     0.017 C 
ENDBRANCH  21  25
ENDBRANCH   7  21
BRANCH   5  29
HETATM   29  O   UNK N   1      31.740  24.576  -4.457  0.00  0.00    -0.382 OA
HETATM   30  C   UNK N   1      32.628  25.611  -4.796  0.00  0.00     0.202 C 
ENDBRANCH   5  29
BRANCH   2  31
HETATM   31  C   UNK N   1      25.866  22.829  -6.511  0.00  0.00     0.277 C 
BRANCH  31  32
HETATM   32  C   UNK N   1      25.343  22.376  -7.867  0.00  0.00     0.014 A 
HETATM   33  C   UNK N   1      25.271  20.868  -7.915  0.00  0.00     0.007 A 
HETATM   34  C   UNK N   1      26.429  21.593  -8.573  0.00  0.00     0.007 A 
ENDBRANCH  31  32
ENDBRANCH   2  31
BRANCH  19  35
HETATM   35  O   UNK N   1      29.425  29.422  -3.125  0.00  0.00    -0.358 OA
HETATM   36  H   UNK N   1      29.766  29.002  -2.361  0.00  0.00     0.217 HD
ENDBRANCH  19  35
TORSDOF 7
ENDMDL
MODEL 6
REMARK VINA RESULT:      -6.4      2.472      5.787
REMARK  7 active torsions:
REMARK  status: ('A' for Active; 'I' for Inactive)
REMARK    1  A    between atoms: C_8  and  O_2 
REMARK    2  A    between atoms: C_18  and  O_3 
REMARK    3  A    between atoms: O_4  and  C_27 
REMARK    4  A    between atoms: N_5  and  C_22 
REMARK    5  A    between atoms: C_10  and  C_18 
REMARK    6  A    between atoms: C_18  and  C_23 
REMARK    7  A    between atoms: C_22  and  C_24 
ROOT
HETATM    1  O   UNK N   1      25.526  24.002  -6.538  0.00  0.00    -0.338 OA
HETATM    2  N   UNK N   1      30.543  22.723  -5.727  0.00  0.00     0.094 N 
HETATM    3  C   UNK N   1      28.997  24.297  -6.986  0.00  0.00     0.006 C 
HETATM    4  C   UNK N   1      27.831  23.735  -6.175  0.00  0.00     0.031 C 
HETATM    5  C   UNK N   1      26.975  26.048  -6.752  0.00  0.00     0.094 C 
HETATM    6  C   UNK N   1      26.627  24.704  -6.017  0.00  0.00     0.178 C 
HETATM    7  C   UNK N   1      28.309  26.568  -6.094  0.00  0.00     0.058 C 
HETATM    8  C   UNK N   1      29.482  25.566  -6.278  0.00  0.00     0.023 C 
HETATM    9  C   UNK N   1      30.041  23.116  -7.064  0.00  0.00     0.236 C 
HETATM   10  C   UNK N   1      28.503  24.770  -8.381  0.00  0.00     0.016 C 
HETATM   11  C   UNK N   1      27.325  25.775  -8.246  0.00  0.00     0.042 C 
HETATM   12  C   UNK N   1      28.287  23.249  -4.785  0.00  0.00     0.048 C 
HETATM   13  C   UNK N   1      27.238  22.668  -6.974  0.00  0.00    -0.003 C 
HETATM   14  C   UNK N   1      29.456  21.820  -7.751  0.00  0.00     0.076 C 
HETATM   15  C   UNK N   1      29.456  22.258  -4.853  0.00  0.00     0.274 C 
HETATM   16  C   UNK N   1      27.943  21.689  -7.654  0.00  0.00    -0.046 C 
HETATM   17  C   UNK N   1      25.915  22.850  -7.103  0.00  0.00     0.110 C 
HETATM   18  C   UNK N   1      27.211  20.750  -8.399  0.00  0.00     0.011 C 
HETATM   19  C   UNK N   1      25.142  21.936  -7.827  0.00  0.00     0.099 C 
HETATM   20  C   UNK N   1      25.797  20.851  -8.450  0.00  0.00     0.040 C 
ENDROOT
BRANCH   7  21
HETATM   21  C   UNK N   1      28.767  28.061  -6.216  0.00  0.00     0.067 C 
HETATM   22  C   UNK N   1      28.077  28.768  -7.382  0.00  0.00     0.047 C 
BRANCH  21  23
HETATM   23  O   UNK N   1      30.144  28.114  -6.479  0.00  0.00    -0.389 OA
HETATM   24  H   UNK N   1      30.707  28.898  -6.381  0.00  0.00     0.210 HD
ENDBRANCH  21  23
BRANCH  21  25
HETATM   25  C   UNK N   1      28.508  28.807  -4.873  0.00  0.00    -0.020 C 
HETATM   26  C   UNK N   1      29.732  29.607  -4.448  0.00  0.00     0.017 C 
HETATM   27  C   UNK N   1      27.333  29.767  -4.970  0.00  0.00     0.017 C 
HETATM   28  C   UNK N   1      28.209  27.814  -3.756  0.00  0.00     0.017 C 
ENDBRANCH  21  25
ENDBRANCH   7  21
BRANCH   5  29
HETATM   29  O   UNK N   1      25.951  27.011  -6.571  0.00  0.00    -0.382 OA
HETATM   30  C   UNK N   1      25.222  26.741  -5.402  0.00  0.00     0.202 C 
ENDBRANCH   5  29
BRANCH   2  31
HETATM   31  C   UNK N   1      31.319  23.757  -5.030  0.00  0.00     0.277 C 
BRANCH  31  32
HETATM   32  C   UNK N   1      32.660  23.237  -4.532  0.00  0.00     0.014 A 
HETATM   33  C   UNK N   1      33.735  23.516  -5.556  0.00  0.00     0.007 A 
HETATM   34  C   UNK N   1      33.128  22.130  -5.451  0.00  0.00     0.007 A 
ENDBRANCH  31  32
ENDBRANCH   2  31
BRANCH  19  35
HETATM   35  O   UNK N   1      23.814  22.097  -7.948  0.00  0.00    -0.358 OA
HETATM   36  H   UNK N   1      23.285  22.245  -7.190  0.00  0.00     0.217 HD
ENDBRANCH  19  35
TORSDOF 7
ENDMDL
MODEL 7
REMARK VINA RESULT:      -6.4     13.147     17.285
REMARK  7 active torsions:
REMARK  status: ('A' for Active; 'I' for Inactive)
REMARK    1  A    between atoms: C_8  and  O_2 
REMARK    2  A    between atoms: C_18  and  O_3 
REMARK    3  A    between atoms: O_4  and  C_27 
REMARK    4  A    between atoms: N_5  and  C_22 
REMARK    5  A    between atoms: C_10  and  C_18 
REMARK    6  A    between atoms: C_18  and  C_23 
REMARK    7  A    between atoms: C_22  and  C_24 
ROOT
HETATM    1  O   UNK N   1      35.171  16.254   8.969  0.00  0.00    -0.338 OA
HETATM    2  N   UNK N   1      35.111  12.466   5.346  0.00  0.00     0.094 N 
HETATM    3  C   UNK N   1      33.707  13.679   7.082  0.00  0.00     0.006 C 
HETATM    4  C   UNK N   1      34.861  14.661   7.270  0.00  0.00     0.031 C 
HETATM    5  C   UNK N   1      32.876  16.079   7.952  0.00  0.00     0.094 C 
HETATM    6  C   UNK N   1      34.437  16.065   7.784  0.00  0.00     0.178 C 
HETATM    7  C   UNK N   1      32.285  15.706   6.539  0.00  0.00     0.058 C 
HETATM    8  C   UNK N   1      32.736  14.296   6.070  0.00  0.00     0.023 C 
HETATM    9  C   UNK N   1      34.393  12.330   6.635  0.00  0.00     0.236 C 
HETATM   10  C   UNK N   1      32.894  13.545   8.399  0.00  0.00     0.016 C 
HETATM   11  C   UNK N   1      32.422  14.935   8.909  0.00  0.00     0.042 C 
HETATM   12  C   UNK N   1      35.694  14.814   5.983  0.00  0.00     0.048 C 
HETATM   13  C   UNK N   1      35.651  14.171   8.394  0.00  0.00    -0.003 C 
HETATM   14  C   UNK N   1      35.425  11.782   7.698  0.00  0.00     0.076 C 
HETATM   15  C   UNK N   1      36.183  13.471   5.425  0.00  0.00     0.274 C 
HETATM   16  C   UNK N   1      36.026  12.853   8.596  0.00  0.00    -0.046 C 
HETATM   17  C   UNK N   1      35.836  15.139   9.304  0.00  0.00     0.110 C 
HETATM   18  C   UNK N   1      36.768  12.550   9.750  0.00  0.00     0.011 C 
HETATM   19  C   UNK N   1      36.576  14.888  10.464  0.00  0.00     0.099 C 
HETATM   20  C   UNK N   1      37.080  13.585  10.668  0.00  0.00     0.040 C 
ENDROOT
BRANCH   7  21
HETATM   21  C   UNK N   1      30.802  16.026   6.150  0.00  0.00     0.067 C 
HETATM   22  C   UNK N   1      30.074  16.770   7.269  0.00  0.00     0.047 C 
BRANCH  21  23
HETATM   23  O   UNK N   1      30.098  14.831   5.945  0.00  0.00    -0.389 OA
HETATM   24  H   UNK N   1      29.358  14.709   5.330  0.00  0.00     0.210 HD
ENDBRANCH  21  23
BRANCH  21  25
HETATM   25  C   UNK N   1      30.765  16.835   4.819  0.00  0.00    -0.020 C 
HETATM   26  C   UNK N   1      29.660  17.883   4.848  0.00  0.00     0.017 C 
HETATM   27  C   UNK N   1      32.079  17.551   4.549  0.00  0.00     0.017 C 
HETATM   28  C   UNK N   1      30.484  15.915   3.638  0.00  0.00     0.017 C 
ENDBRANCH  21  25
ENDBRANCH   7  21
BRANCH   5  29
HETATM   29  O   UNK N   1      32.412  17.363   8.335  0.00  0.00    -0.382 OA
HETATM   30  C   UNK N   1      33.342  18.350   7.969  0.00  0.00     0.202 C 
ENDBRANCH   5  29
BRANCH   2  31
HETATM   31  C   UNK N   1      34.255  12.758   4.190  0.00  0.00     0.277 C 
BRANCH  31  32
HETATM   32  C   UNK N   1      34.994  13.526   3.102  0.00  0.00     0.014 A 
HETATM   33  C   UNK N   1      34.130  14.653   2.587  0.00  0.00     0.007 A 
HETATM   34  C   UNK N   1      34.247  13.364   1.797  0.00  0.00     0.007 A 
ENDBRANCH  31  32
ENDBRANCH   2  31
BRANCH  19  35
HETATM   35  O   UNK N   1      36.783  15.854  11.375  0.00  0.00    -0.358 OA
HETATM   36  H   UNK N   1      36.904  16.742  11.102  0.00  0.00     0.217 HD
ENDBRANCH  19  35
TORSDOF 7
ENDMDL
MODEL 8
REMARK VINA RESULT:      -6.4     12.239     13.785
REMARK  7 active torsions:
REMARK  status: ('A' for Active; 'I' for Inactive)
REMARK    1  A    between atoms: C_8  and  O_2 
REMARK    2  A    between atoms: C_18  and  O_3 
REMARK    3  A    between atoms: O_4  and  C_27 
REMARK    4  A    between atoms: N_5  and  C_22 
REMARK    5  A    between atoms: C_10  and  C_18 
REMARK    6  A    between atoms: C_18  and  C_23 
REMARK    7  A    between atoms: C_22  and  C_24 
ROOT
HETATM    1  O   UNK N   1      31.046  16.070   7.611  0.00  0.00    -0.338 OA
HETATM    2  N   UNK N   1      28.222  15.636   3.216  0.00  0.00     0.094 N 
HETATM    3  C   UNK N   1      30.474  16.342   4.157  0.00  0.00     0.006 C 
HETATM    4  C   UNK N   1      30.043  15.776   5.507  0.00  0.00     0.031 C 
HETATM    5  C   UNK N   1      32.564  15.587   5.663  0.00  0.00     0.094 C 
HETATM    6  C   UNK N   1      31.215  15.332   6.426  0.00  0.00     0.178 C 
HETATM    7  C   UNK N   1      32.460  14.775   4.317  0.00  0.00     0.058 C 
HETATM    8  C   UNK N   1      31.275  15.255   3.434  0.00  0.00     0.023 C 
HETATM    9  C   UNK N   1      29.131  16.782   3.455  0.00  0.00     0.236 C 
HETATM   10  C   UNK N   1      31.470  17.517   4.360  0.00  0.00     0.016 C 
HETATM   11  C   UNK N   1      32.675  17.083   5.241  0.00  0.00     0.042 C 
HETATM   12  C   UNK N   1      29.047  14.611   5.344  0.00  0.00     0.048 C 
HETATM   13  C   UNK N   1      29.484  16.886   6.271  0.00  0.00    -0.003 C 
HETATM   14  C   UNK N   1      28.327  17.861   4.283  0.00  0.00     0.076 C 
HETATM   15  C   UNK N   1      27.837  14.977   4.474  0.00  0.00     0.274 C 
HETATM   16  C   UNK N   1      28.604  17.835   5.778  0.00  0.00    -0.046 C 
HETATM   17  C   UNK N   1      30.061  16.970   7.479  0.00  0.00     0.110 C 
HETATM   18  C   UNK N   1      28.184  18.856   6.647  0.00  0.00     0.011 C 
HETATM   19  C   UNK N   1      29.669  17.963   8.383  0.00  0.00     0.099 C 
HETATM   20  C   UNK N   1      28.689  18.894   7.972  0.00  0.00     0.040 C 
ENDROOT
BRANCH   7  21
HETATM   21  C   UNK N   1      33.726  14.400   3.474  0.00  0.00     0.067 C 
HETATM   22  C   UNK N   1      35.014  14.624   4.265  0.00  0.00     0.047 C 
BRANCH  21  23
HETATM   23  O   UNK N   1      33.805  15.226   2.344  0.00  0.00    -0.389 OA
HETATM   24  H   UNK N   1      34.497  15.191   1.666  0.00  0.00     0.210 HD
ENDBRANCH  21  23
BRANCH  21  25
HETATM   25  C   UNK N   1      33.618  12.926   2.982  0.00  0.00    -0.020 C 
HETATM   26  C   UNK N   1      32.754  12.097   3.923  0.00  0.00     0.017 C 
HETATM   27  C   UNK N   1      33.013  12.832   1.590  0.00  0.00     0.017 C 
HETATM   28  C   UNK N   1      34.993  12.272   2.938  0.00  0.00     0.017 C 
ENDBRANCH  21  25
ENDBRANCH   7  21
BRANCH   5  29
HETATM   29  O   UNK N   1      33.673  15.120   6.413  0.00  0.00    -0.382 OA
HETATM   30  C   UNK N   1      34.247  16.171   7.146  0.00  0.00     0.202 C 
ENDBRANCH   5  29
BRANCH   2  31
HETATM   31  C   UNK N   1      28.730  14.630   2.276  0.00  0.00     0.277 C 
BRANCH  31  32
HETATM   32  C   UNK N   1      28.117  13.256   2.511  0.00  0.00     0.014 A 
HETATM   33  C   UNK N   1      29.206  12.212   2.599  0.00  0.00     0.007 A 
HETATM   34  C   UNK N   1      28.415  12.377   1.316  0.00  0.00     0.007 A 
ENDBRANCH  31  32
ENDBRANCH   2  31
BRANCH  19  35
HETATM   35  O   UNK N   1      30.227  18.047   9.602  0.00  0.00    -0.358 OA
HETATM   36  H   UNK N   1      30.869  18.705   9.783  0.00  0.00     0.217 HD
ENDBRANCH  19  35
TORSDOF 7
ENDMDL
MODEL 9
REMARK VINA RESULT:      -6.3     11.743     14.113
REMARK  7 active torsions:
REMARK  status: ('A' for Active; 'I' for Inactive)
REMARK    1  A    between atoms: C_8  and  O_2 
REMARK    2  A    between atoms: C_18  and  O_3 
REMARK    3  A    between atoms: O_4  and  C_27 
REMARK    4  A    between atoms: N_5  and  C_22 
REMARK    5  A    between atoms: C_10  and  C_18 
REMARK    6  A    between atoms: C_18  and  C_23 
REMARK    7  A    between atoms: C_22  and  C_24 
ROOT
HETATM    1  O   UNK N   1      26.421  18.026   3.438  0.00  0.00    -0.338 OA
HETATM    2  N   UNK N   1      30.578  16.673   6.330  0.00  0.00     0.094 N 
HETATM    3  C   UNK N   1      28.153  16.111   5.818  0.00  0.00     0.006 C 
HETATM    4  C   UNK N   1      28.201  17.125   4.677  0.00  0.00     0.031 C 
HETATM    5  C   UNK N   1      26.389  15.548   3.875  0.00  0.00     0.094 C 
HETATM    6  C   UNK N   1      27.191  16.853   3.528  0.00  0.00     0.178 C 
HETATM    7  C   UNK N   1      27.467  14.415   4.065  0.00  0.00     0.058 C 
HETATM    8  C   UNK N   1      28.452  14.732   5.223  0.00  0.00     0.023 C 
HETATM    9  C   UNK N   1      29.200  16.641   6.875  0.00  0.00     0.236 C 
HETATM   10  C   UNK N   1      26.711  16.008   6.386  0.00  0.00     0.016 C 
HETATM   11  C   UNK N   1      25.688  15.693   5.260  0.00  0.00     0.042 C 
HETATM   12  C   UNK N   1      29.621  17.258   4.094  0.00  0.00     0.048 C 
HETATM   13  C   UNK N   1      27.695  18.385   5.212  0.00  0.00    -0.003 C 
HETATM   14  C   UNK N   1      28.863  18.092   7.401  0.00  0.00     0.076 C 
HETATM   15  C   UNK N   1      30.680  17.562   5.162  0.00  0.00     0.274 C 
HETATM   16  C   UNK N   1      28.042  18.933   6.436  0.00  0.00    -0.046 C 
HETATM   17  C   UNK N   1      26.717  18.872   4.434  0.00  0.00     0.110 C 
HETATM   18  C   UNK N   1      27.438  20.146   6.807  0.00  0.00     0.011 C 
HETATM   19  C   UNK N   1      26.093  20.081   4.757  0.00  0.00     0.099 C 
HETATM   20  C   UNK N   1      26.488  20.744   5.940  0.00  0.00     0.040 C 
ENDROOT
BRANCH   7  21
HETATM   21  C   UNK N   1      27.095  12.895   3.989  0.00  0.00     0.067 C 
HETATM   22  C   UNK N   1      25.623  12.658   4.323  0.00  0.00     0.047 C 
BRANCH  21  23
HETATM   23  O   UNK N   1      27.838  12.177   4.937  0.00  0.00    -0.389 OA
HETATM   24  H   UNK N   1      27.476  11.730   5.718  0.00  0.00     0.210 HD
ENDBRANCH  21  23
BRANCH  21  25
HETATM   25  C   UNK N   1      27.450  12.332   2.580  0.00  0.00    -0.020 C 
HETATM   26  C   UNK N   1      28.223  11.024   2.693  0.00  0.00     0.017 C 
HETATM   27  C   UNK N   1      26.209  12.069   1.741  0.00  0.00     0.017 C 
HETATM   28  C   UNK N   1      28.331  13.312   1.815  0.00  0.00     0.017 C 
ENDBRANCH  21  25
ENDBRANCH   7  21
BRANCH   5  29
HETATM   29  O   UNK N   1      25.509  15.192   2.822  0.00  0.00    -0.382 OA
HETATM   30  C   UNK N   1      24.200  15.612   3.113  0.00  0.00     0.202 C 
ENDBRANCH   5  29
BRANCH   2  31
HETATM   31  C   UNK N   1      31.139  15.360   5.992  0.00  0.00     0.277 C 
BRANCH  31  32
HETATM   32  C   UNK N   1      32.495  15.126   6.642  0.00  0.00     0.014 A 
HETATM   33  C   UNK N   1      32.312  14.573   8.036  0.00  0.00     0.007 A 
HETATM   34  C   UNK N   1      32.629  16.042   7.838  0.00  0.00     0.007 A 
ENDBRANCH  31  32
ENDBRANCH   2  31
BRANCH  19  35
HETATM   35  O   UNK N   1      25.124  20.590   3.977  0.00  0.00    -0.358 OA
HETATM   36  H   UNK N   1      24.552  20.019   3.503  0.00  0.00     0.217 HD
ENDBRANCH  19  35
TORSDOF 7
ENDMDL
