MODEL 1
REMARK VINA RESULT:      -6.0      0.000      0.000
REMARK  3 active torsions:
REMARK  status: ('A' for Active; 'I' for Inactive)
REMARK    1  A    between atoms: O_2  and  C_11 
REMARK    2  A    between atoms: C_7  and  N_5 
REMARK    3  A    between atoms: C_8  and  C_11 
ROOT
HETATM    1  O   UNK N   1      22.575  17.348   5.566  0.00  0.00    -0.246 OA
HETATM    2  O   UNK N   1      26.934  18.302   5.309  0.00  0.00    -0.267 OA
HETATM    3  N   UNK N   1      23.188  18.981   4.126  0.00  0.00    -0.278 N 
HETATM    4  N   UNK N   1      24.764  17.782   5.456  0.00  0.00    -0.275 N 
HETATM    5  C   UNK N   1      24.201  19.721   3.593  0.00  0.00     0.111 A 
HETATM    6  C   UNK N   1      23.470  18.005   5.065  0.00  0.00     0.331 A 
HETATM    7  C   UNK N   1      25.525  19.500   3.980  0.00  0.00     0.022 A 
HETATM    8  C   UNK N   1      25.792  18.513   4.935  0.00  0.00     0.256 A 
HETATM    9  C   UNK N   1      26.620  20.319   3.385  0.00  0.00     0.056 C 
HETATM   10  H   UNK N   1      24.955  17.085   6.124  0.00  0.00     0.173 HD
ENDROOT
BRANCH   3  11
HETATM   11  C   UNK N   1      21.784  19.258   3.771  0.00  0.00     0.257 C 
HETATM   12  O   UNK N   1      21.583  20.530   3.177  0.00  0.00    -0.352 OA
HETATM   13  C   UNK N   1      20.460  20.351   2.332  0.00  0.00     0.170 C 
HETATM   14  C   UNK N   1      20.444  18.910   1.986  0.00  0.00     0.007 C 
HETATM   15  C   UNK N   1      21.226  18.275   2.813  0.00  0.00     0.025 C 
BRANCH  13  16
HETATM   16  C   UNK N   1      20.563  21.216   1.091  0.00  0.00     0.200 C 
BRANCH  16  17
HETATM   17  O   UNK N   1      20.605  20.395  -0.039  0.00  0.00    -0.398 OA
HETATM   18  H   UNK N   1      19.901  20.443  -0.704  0.00  0.00     0.209 HD
ENDBRANCH  16  17
ENDBRANCH  13  16
ENDBRANCH   3  11
TORSDOF 3
ENDMDL
MODEL 2
REMARK VINA RESULT:      -6.0      6.409      8.027
REMARK  3 active torsions:
REMARK  status: ('A' for Active; 'I' for Inactive)
REMARK    1  A    between atoms: O_2  and  C_11 
REMARK    2  A    between atoms: C_7  and  N_5 
REMARK    3  A    between atoms: C_8  and  C_11 
ROOT
HETATM    1  O   UNK N   1      19.558  13.074  10.487  0.00  0.00    -0.246 OA
HETATM    2  O   UNK N   1      23.588  11.636  11.775  0.00  0.00    -0.267 OA
HETATM    3  N   UNK N   1      21.340  13.812   9.306  0.00  0.00    -0.278 N 
HETATM    4  N   UNK N   1      21.552  12.318  11.154  0.00  0.00    -0.275 N 
HETATM    5  C   UNK N   1      22.694  13.805   9.145  0.00  0.00     0.111 A 
HETATM    6  C   UNK N   1      20.764  13.064  10.317  0.00  0.00     0.331 A 
HETATM    7  C   UNK N   1      23.507  13.045   9.989  0.00  0.00     0.022 A 
HETATM    8  C   UNK N   1      22.909  12.299  11.010  0.00  0.00     0.256 A 
HETATM    9  C   UNK N   1      24.986  13.049   9.797  0.00  0.00     0.056 C 
HETATM   10  H   UNK N   1      21.133  11.789  11.870  0.00  0.00     0.173 HD
ENDROOT
BRANCH   3  11
HETATM   11  C   UNK N   1      20.484  14.665   8.461  0.00  0.00     0.257 C 
HETATM   12  O   UNK N   1      19.775  15.658   9.185  0.00  0.00    -0.352 OA
HETATM   13  C   UNK N   1      19.609  16.718   8.259  0.00  0.00     0.170 C 
HETATM   14  C   UNK N   1      20.724  16.583   7.292  0.00  0.00     0.007 C 
HETATM   15  C   UNK N   1      21.244  15.394   7.419  0.00  0.00     0.025 C 
BRANCH  13  16
HETATM   16  C   UNK N   1      19.641  18.065   8.954  0.00  0.00     0.200 C 
BRANCH  16  17
HETATM   17  O   UNK N   1      20.406  18.955   8.196  0.00  0.00    -0.398 OA
HETATM   18  H   UNK N   1      21.146  19.432   8.601  0.00  0.00     0.209 HD
ENDBRANCH  16  17
ENDBRANCH  13  16
ENDBRANCH   3  11
TORSDOF 3
ENDMDL
MODEL 3
REMARK VINA RESULT:      -5.8     10.517     12.279
REMARK  3 active torsions:
REMARK  status: ('A' for Active; 'I' for Inactive)
REMARK    1  A    between atoms: O_2  and  C_11 
REMARK    2  A    between atoms: C_7  and  N_5 
REMARK    3  A    between atoms: C_8  and  C_11 
ROOT
HETATM    1  O   UNK N   1      34.965  19.161   8.328  0.00  0.00    -0.246 OA
HETATM    2  O   UNK N   1      35.562  16.067  11.498  0.00  0.00    -0.267 OA
HETATM    3  N   UNK N   1      34.096  17.109   7.940  0.00  0.00    -0.278 N 
HETATM    4  N   UNK N   1      35.271  17.649   9.945  0.00  0.00    -0.275 N 
HETATM    5  C   UNK N   1      33.916  15.835   8.389  0.00  0.00     0.111 A 
HETATM    6  C   UNK N   1      34.778  18.024   8.723  0.00  0.00     0.331 A 
HETATM    7  C   UNK N   1      34.410  15.442   9.636  0.00  0.00     0.022 A 
HETATM    8  C   UNK N   1      35.103  16.377  10.411  0.00  0.00     0.256 A 
HETATM    9  C   UNK N   1      34.202  14.044  10.111  0.00  0.00     0.056 C 
HETATM   10  H   UNK N   1      35.755  18.307  10.495  0.00  0.00     0.173 HD
ENDROOT
BRANCH   3  11
HETATM   11  C   UNK N   1      33.636  17.508   6.598  0.00  0.00     0.257 C 
HETATM   12  O   UNK N   1      34.292  16.824   5.542  0.00  0.00    -0.352 OA
HETATM   13  C   UNK N   1      33.335  16.788   4.497  0.00  0.00     0.170 C 
HETATM   14  C   UNK N   1      32.013  16.870   5.163  0.00  0.00     0.007 C 
HETATM   15  C   UNK N   1      32.188  17.274   6.389  0.00  0.00     0.025 C 
BRANCH  13  16
HETATM   16  C   UNK N   1      33.462  15.519   3.678  0.00  0.00     0.200 C 
BRANCH  16  17
HETATM   17  O   UNK N   1      33.602  15.854   2.329  0.00  0.00    -0.398 OA
HETATM   18  H   UNK N   1      33.447  16.765   2.033  0.00  0.00     0.209 HD
ENDBRANCH  16  17
ENDBRANCH  13  16
ENDBRANCH   3  11
TORSDOF 3
ENDMDL
MODEL 4
REMARK VINA RESULT:      -5.8     15.573     17.560
REMARK  3 active torsions:
REMARK  status: ('A' for Active; 'I' for Inactive)
REMARK    1  A    between atoms: O_2  and  C_11 
REMARK    2  A    between atoms: C_7  and  N_5 
REMARK    3  A    between atoms: C_8  and  C_11 
ROOT
HETATM    1  O   UNK N   1      33.919  12.010  14.876  0.00  0.00    -0.246 OA
HETATM    2  O   UNK N   1      35.635  14.283  18.320  0.00  0.00    -0.267 OA
HETATM    3  N   UNK N   1      35.599  13.454  14.421  0.00  0.00    -0.278 N 
HETATM    4  N   UNK N   1      34.760  13.113  16.628  0.00  0.00    -0.275 N 
HETATM    5  C   UNK N   1      36.485  14.373  14.900  0.00  0.00     0.111 A 
HETATM    6  C   UNK N   1      34.730  12.819  15.290  0.00  0.00     0.331 A 
HETATM    7  C   UNK N   1      36.528  14.678  16.263  0.00  0.00     0.022 A 
HETATM    8  C   UNK N   1      35.637  14.032  17.127  0.00  0.00     0.256 A 
HETATM    9  C   UNK N   1      37.504  15.686  16.768  0.00  0.00     0.056 C 
HETATM   10  H   UNK N   1      34.138  12.656  17.238  0.00  0.00     0.173 HD
ENDROOT
BRANCH   3  11
HETATM   11  C   UNK N   1      35.504  13.180  12.975  0.00  0.00     0.257 C 
HETATM   12  O   UNK N   1      34.947  14.247  12.226  0.00  0.00    -0.352 OA
HETATM   13  C   UNK N   1      35.541  14.126  10.945  0.00  0.00     0.170 C 
HETATM   14  C   UNK N   1      36.833  13.434  11.167  0.00  0.00     0.007 C 
HETATM   15  C   UNK N   1      36.819  12.896  12.353  0.00  0.00     0.025 C 
BRANCH  13  16
HETATM   16  C   UNK N   1      35.746  15.485  10.303  0.00  0.00     0.200 C 
BRANCH  16  17
HETATM   17  O   UNK N   1      36.846  16.111  10.894  0.00  0.00    -0.398 OA
HETATM   18  H   UNK N   1      37.234  15.753  11.708  0.00  0.00     0.209 HD
ENDBRANCH  16  17
ENDBRANCH  13  16
ENDBRANCH   3  11
TORSDOF 3
ENDMDL
MODEL 5
REMARK VINA RESULT:      -5.7      9.771     10.797
REMARK  3 active torsions:
REMARK  status: ('A' for Active; 'I' for Inactive)
REMARK    1  A    between atoms: O_2  and  C_11 
REMARK    2  A    between atoms: C_7  and  N_5 
REMARK    3  A    between atoms: C_8  and  C_11 
ROOT
HETATM    1  O   UNK N   1      30.724  22.980  -1.758  0.00  0.00    -0.246 OA
HETATM    2  O   UNK N   1      32.134  19.664  -4.402  0.00  0.00    -0.267 OA
HETATM    3  N   UNK N   1      29.761  22.810  -3.797  0.00  0.00    -0.278 N 
HETATM    4  N   UNK N   1      31.445  21.299  -3.041  0.00  0.00    -0.275 N 
HETATM    5  C   UNK N   1      29.699  22.145  -4.986  0.00  0.00     0.111 A 
HETATM    6  C   UNK N   1      30.640  22.385  -2.817  0.00  0.00     0.331 A 
HETATM    7  C   UNK N   1      30.510  21.033  -5.224  0.00  0.00     0.022 A 
HETATM    8  C   UNK N   1      31.399  20.621  -4.225  0.00  0.00     0.256 A 
HETATM    9  C   UNK N   1      30.427  20.317  -6.530  0.00  0.00     0.056 C 
HETATM   10  H   UNK N   1      32.067  21.004  -2.338  0.00  0.00     0.173 HD
ENDROOT
BRANCH   3  11
HETATM   11  C   UNK N   1      28.956  24.023  -3.569  0.00  0.00     0.257 C 
HETATM   12  O   UNK N   1      28.635  24.730  -4.756  0.00  0.00    -0.352 OA
HETATM   13  C   UNK N   1      27.400  25.362  -4.467  0.00  0.00     0.170 C 
HETATM   14  C   UNK N   1      26.760  24.531  -3.421  0.00  0.00     0.007 C 
HETATM   15  C   UNK N   1      27.661  23.741  -2.907  0.00  0.00     0.025 C 
BRANCH  13  16
HETATM   16  C   UNK N   1      26.530  25.459  -5.705  0.00  0.00     0.200 C 
BRANCH  16  17
HETATM   17  O   UNK N   1      25.270  24.926  -5.423  0.00  0.00    -0.398 OA
HETATM   18  H   UNK N   1      24.563  24.965  -6.085  0.00  0.00     0.209 HD
ENDBRANCH  16  17
ENDBRANCH  13  16
ENDBRANCH   3  11
TORSDOF 3
ENDMDL
MODEL 6
REMARK VINA RESULT:      -5.6     15.336     18.214
REMARK  3 active torsions:
REMARK  status: ('A' for Active; 'I' for Inactive)
REMARK    1  A    between atoms: O_2  and  C_11 
REMARK    2  A    between atoms: C_7  and  N_5 
REMARK    3  A    between atoms: C_8  and  C_11 
ROOT
HETATM    1  O   UNK N   1      35.443   9.634  15.048  0.00  0.00    -0.246 OA
HETATM    2  O   UNK N   1      35.160  11.548  19.077  0.00  0.00    -0.267 OA
HETATM    3  N   UNK N   1      35.482  11.894  15.119  0.00  0.00    -0.278 N 
HETATM    4  N   UNK N   1      35.316  10.550  17.083  0.00  0.00    -0.275 N 
HETATM    5  C   UNK N   1      35.434  13.020  15.886  0.00  0.00     0.111 A 
HETATM    6  C   UNK N   1      35.422  10.649  15.720  0.00  0.00     0.331 A 
HETATM    7  C   UNK N   1      35.331  12.931  17.277  0.00  0.00     0.022 A 
HETATM    8  C   UNK N   1      35.265  11.665  17.868  0.00  0.00     0.256 A 
HETATM    9  C   UNK N   1      35.282  14.174  18.099  0.00  0.00     0.056 C 
HETATM   10  H   UNK N   1      35.275   9.660  17.501  0.00  0.00     0.173 HD
ENDROOT
BRANCH   3  11
HETATM   11  C   UNK N   1      35.522  11.985  13.648  0.00  0.00     0.257 C 
HETATM   12  O   UNK N   1      34.594  12.911  13.106  0.00  0.00    -0.352 OA
HETATM   13  C   UNK N   1      35.202  13.359  11.907  0.00  0.00     0.170 C 
HETATM   14  C   UNK N   1      36.660  13.182  12.108  0.00  0.00     0.007 C 
HETATM   15  C   UNK N   1      36.847  12.395  13.130  0.00  0.00     0.025 C 
BRANCH  13  16
HETATM   16  C   UNK N   1      34.856  14.807  11.623  0.00  0.00     0.200 C 
BRANCH  16  17
HETATM   17  O   UNK N   1      33.504  14.898  11.282  0.00  0.00    -0.398 OA
HETATM   18  H   UNK N   1      33.231  15.391  10.493  0.00  0.00     0.209 HD
ENDBRANCH  16  17
ENDBRANCH  13  16
ENDBRANCH   3  11
TORSDOF 3
ENDMDL
MODEL 7
REMARK VINA RESULT:      -5.5      6.726      8.226
REMARK  3 active torsions:
REMARK  status: ('A' for Active; 'I' for Inactive)
REMARK    1  A    between atoms: O_2  and  C_11 
REMARK    2  A    between atoms: C_7  and  N_5 
REMARK    3  A    between atoms: C_8  and  C_11 
ROOT
HETATM    1  O   UNK N   1      21.963  14.865   6.837  0.00  0.00    -0.246 OA
HETATM    2  O   UNK N   1      22.767  11.522   9.693  0.00  0.00    -0.267 OA
HETATM    3  N   UNK N   1      20.638  14.731   8.665  0.00  0.00    -0.278 N 
HETATM    4  N   UNK N   1      22.410  13.189   8.247  0.00  0.00    -0.275 N 
HETATM    5  C   UNK N   1      20.328  14.063   9.813  0.00  0.00     0.111 A 
HETATM    6  C   UNK N   1      21.686  14.292   7.876  0.00  0.00     0.331 A 
HETATM    7  C   UNK N   1      21.062  12.941  10.204  0.00  0.00     0.022 A 
HETATM    8  C   UNK N   1      22.114  12.506   9.391  0.00  0.00     0.256 A 
HETATM    9  C   UNK N   1      20.708  12.224  11.464  0.00  0.00     0.056 C 
HETATM   10  H   UNK N   1      23.153  12.885   7.679  0.00  0.00     0.173 HD
ENDROOT
BRANCH   3  11
HETATM   11  C   UNK N   1      19.823  15.874   8.214  0.00  0.00     0.257 C 
HETATM   12  O   UNK N   1      18.507  15.883   8.742  0.00  0.00    -0.352 OA
HETATM   13  C   UNK N   1      18.158  17.255   8.797  0.00  0.00     0.170 C 
HETATM   14  C   UNK N   1      19.441  17.990   8.905  0.00  0.00     0.007 C 
HETATM   15  C   UNK N   1      20.411  17.183   8.581  0.00  0.00     0.025 C 
BRANCH  13  16
HETATM   16  C   UNK N   1      17.254  17.546   9.979  0.00  0.00     0.200 C 
BRANCH  16  17
HETATM   17  O   UNK N   1      17.573  18.801  10.504  0.00  0.00    -0.398 OA
HETATM   18  H   UNK N   1      18.297  19.321  10.121  0.00  0.00     0.209 HD
ENDBRANCH  16  17
ENDBRANCH  13  16
ENDBRANCH   3  11
TORSDOF 3
ENDMDL
MODEL 8
REMARK VINA RESULT:      -5.5     10.126     11.685
REMARK  3 active torsions:
REMARK  status: ('A' for Active; 'I' for Inactive)
REMARK    1  A    between atoms: O_2  and  C_11 
REMARK    2  A    between atoms: C_7  and  N_5 
REMARK    3  A    between atoms: C_8  and  C_11 
ROOT
HETATM    1  O   UNK N   1      26.409  24.043  -2.919  0.00  0.00    -0.246 OA
HETATM    2  O   UNK N   1      26.497  28.508  -3.101  0.00  0.00    -0.267 OA
HETATM    3  N   UNK N   1      26.828  24.983  -4.933  0.00  0.00    -0.278 N 
HETATM    4  N   UNK N   1      26.461  26.277  -2.962  0.00  0.00    -0.275 N 
HETATM    5  C   UNK N   1      26.980  26.129  -5.656  0.00  0.00     0.111 A 
HETATM    6  C   UNK N   1      26.567  25.057  -3.576  0.00  0.00     0.331 A 
HETATM    7  C   UNK N   1      26.879  27.379  -5.040  0.00  0.00     0.022 A 
HETATM    8  C   UNK N   1      26.607  27.435  -3.669  0.00  0.00     0.256 A 
HETATM    9  C   UNK N   1      27.048  28.622  -5.848  0.00  0.00     0.056 C 
HETATM   10  H   UNK N   1      26.275  26.319  -1.997  0.00  0.00     0.173 HD
ENDROOT
BRANCH   3  11
HETATM   11  C   UNK N   1      26.866  23.665  -5.591  0.00  0.00     0.257 C 
HETATM   12  O   UNK N   1      25.630  23.277  -6.167  0.00  0.00    -0.352 OA
HETATM   13  C   UNK N   1      25.993  22.444  -7.254  0.00  0.00     0.170 C 
HETATM   14  C   UNK N   1      27.356  22.872  -7.648  0.00  0.00     0.007 C 
HETATM   15  C   UNK N   1      27.859  23.595  -6.688  0.00  0.00     0.025 C 
BRANCH  13  16
HETATM   16  C   UNK N   1      25.016  22.584  -8.405  0.00  0.00     0.200 C 
BRANCH  16  17
HETATM   17  O   UNK N   1      23.791  22.023  -8.038  0.00  0.00    -0.398 OA
HETATM   18  H   UNK N   1      23.575  21.888  -7.102  0.00  0.00     0.209 HD
ENDBRANCH  16  17
ENDBRANCH  13  16
ENDBRANCH   3  11
TORSDOF 3
ENDMDL
MODEL 9
REMARK VINA RESULT:      -5.5      5.134      8.676
REMARK  3 active torsions:
REMARK  status: ('A' for Active; 'I' for Inactive)
REMARK    1  A    between atoms: O_2  and  C_11 
REMARK    2  A    between atoms: C_7  and  N_5 
REMARK    3  A    between atoms: C_8  and  C_11 
ROOT
HETATM    1  O   UNK N   1      28.956  16.816   4.234  0.00  0.00    -0.246 OA
HETATM    2  O   UNK N   1      26.740  20.616   3.442  0.00  0.00    -0.267 OA
HETATM    3  N   UNK N   1      28.565  18.168   6.005  0.00  0.00    -0.278 N 
HETATM    4  N   UNK N   1      27.830  18.697   3.797  0.00  0.00    -0.275 N 
HETATM    5  C   UNK N   1      28.030  19.336   6.462  0.00  0.00     0.111 A 
HETATM    6  C   UNK N   1      28.465  17.846   4.663  0.00  0.00     0.331 A 
HETATM    7  C   UNK N   1      27.375  20.210   5.590  0.00  0.00     0.022 A 
HETATM    8  C   UNK N   1      27.290  19.871   4.235  0.00  0.00     0.256 A 
HETATM    9  C   UNK N   1      26.795  21.482   6.109  0.00  0.00     0.056 C 
HETATM   10  H   UNK N   1      27.764  18.458   2.845  0.00  0.00     0.173 HD
ENDROOT
BRANCH   3  11
HETATM   11  C   UNK N   1      29.315  17.277   6.908  0.00  0.00     0.257 C 
HETATM   12  O   UNK N   1      30.723  17.379   6.774  0.00  0.00    -0.352 OA
HETATM   13  C   UNK N   1      31.224  17.053   8.058  0.00  0.00     0.170 C 
HETATM   14  C   UNK N   1      30.138  17.386   9.009  0.00  0.00     0.007 C 
HETATM   15  C   UNK N   1      29.029  17.532   8.339  0.00  0.00     0.025 C 
BRANCH  13  16
HETATM   16  C   UNK N   1      32.488  17.831   8.370  0.00  0.00     0.200 C 
BRANCH  16  17
HETATM   17  O   UNK N   1      33.249  17.119   9.300  0.00  0.00    -0.398 OA
HETATM   18  H   UNK N   1      32.820  16.688  10.056  0.00  0.00     0.209 HD
ENDBRANCH  16  17
ENDBRANCH  13  16
ENDBRANCH   3  11
TORSDOF 3
ENDMDL
