MODEL 1
REMARK VINA RESULT:      -7.7      0.000      0.000
REMARK  5 active torsions:
REMARK  status: ('A' for Active; 'I' for Inactive)
REMARK    1  A    between atoms: N_3  and  C_13 
REMARK    2  A    between atoms: N_4  and  C_16 
REMARK    3  A    between atoms: N_5  and  C_15 
REMARK    4  A    between atoms: C_13  and  C_14 
REMARK    5  A    between atoms: C_14  and  C_15 
ROOT
HETATM    1  C   UNK N   1      34.789  15.777   8.915  0.00  0.00     0.274 C 
ENDROOT
BRANCH   1   2
HETATM    2  N   UNK N   1      34.702  15.093  10.213  0.00  0.00     0.091 N 
HETATM    3  C   UNK N   1      34.570  13.647   9.954  0.00  0.00     0.292 C 
HETATM    4  C   UNK N   1      35.466  12.781  10.835  0.00  0.00     0.153 C 
HETATM    5  N   UNK N   1      35.459  13.301  12.185  0.00  0.00    -0.377 N 
HETATM    6  C   UNK N   1      35.782  14.697  12.410  0.00  0.00     0.153 C 
HETATM    7  C   UNK N   1      35.819  15.471  11.100  0.00  0.00     0.292 C 
BRANCH   5   8
HETATM    8  C   UNK N   1      35.006  12.498  13.268  0.00  0.00     0.031 A 
HETATM    9  C   UNK N   1      35.187  12.918  14.596  0.00  0.00     0.053 A 
HETATM   10  C   UNK N   1      34.794  12.097  15.656  0.00  0.00     0.036 A 
HETATM   11 Cl   UNK N   1      35.063  12.611  17.306  0.00  0.00    -0.084 Cl
HETATM   12  C   UNK N   1      34.210  10.855  15.399  0.00  0.00     0.024 A 
HETATM   13  C   UNK N   1      34.015  10.432  14.083  0.00  0.00     0.004 A 
HETATM   14  C   UNK N   1      34.419  11.246  13.023  0.00  0.00     0.029 A 
ENDBRANCH   5   8
ENDBRANCH   1   2
BRANCH   1  15
HETATM   15  C   UNK N   1      34.616  17.305   8.980  0.00  0.00     0.052 C 
BRANCH  15  16
HETATM   16  C   UNK N   1      33.895  17.866   7.758  0.00  0.00     0.156 C 
BRANCH  16  17
HETATM   17  N   UNK N   1      32.461  17.774   7.940  0.00  0.00    -0.240 N 
HETATM   18  N   UNK N   1      31.801  18.211   9.010  0.00  0.00    -0.279 N 
HETATM   19  C   UNK N   1      30.496  17.953   8.777  0.00  0.00     0.130 A 
ATOM     20  HN  UNK N   1      32.202  18.653   9.838  1.00  0.00     0.189 HD
HETATM   21  N   UNK N   1      30.314  17.357   7.585  0.00  0.00    -0.258 N 
HETATM   22  C   UNK N   1      29.421  18.245   9.608  0.00  0.00     0.050 A 
HETATM   23  C   UNK N   1      31.557  17.250   7.076  0.00  0.00     0.349 A 
HETATM   24  C   UNK N   1      29.103  16.995   7.101  0.00  0.00     0.103 A 
HETATM   25  O   UNK N   1      31.829  16.759   5.994  0.00  0.00    -0.244 OA
HETATM   26  C   UNK N   1      27.976  17.262   7.894  0.00  0.00     0.018 A 
HETATM   27  C   UNK N   1      28.139  17.890   9.148  0.00  0.00     0.005 A 
ENDBRANCH  16  17
ENDBRANCH  15  16
ENDBRANCH   1  15
TORSDOF 5
ENDMDL
MODEL 2
REMARK VINA RESULT:      -7.5      4.050      9.173
REMARK  5 active torsions:
REMARK  status: ('A' for Active; 'I' for Inactive)
REMARK    1  A    between atoms: N_3  and  C_13 
REMARK    2  A    between atoms: N_4  and  C_16 
REMARK    3  A    between atoms: N_5  and  C_15 
REMARK    4  A    between atoms: C_13  and  C_14 
REMARK    5  A    between atoms: C_14  and  C_15 
ROOT
HETATM    1  C   UNK N   1      35.781  15.090  10.161  0.00  0.00     0.274 C 
ENDROOT
BRANCH   1   2
HETATM    2  N   UNK N   1      34.908  15.676   9.134  0.00  0.00     0.091 N 
HETATM    3  C   UNK N   1      33.685  14.855   9.059  0.00  0.00     0.292 C 
HETATM    4  C   UNK N   1      32.398  15.674   9.005  0.00  0.00     0.153 C 
HETATM    5  N   UNK N   1      32.589  16.810   8.131  0.00  0.00    -0.377 N 
HETATM    6  C   UNK N   1      33.708  17.703   8.362  0.00  0.00     0.153 C 
HETATM    7  C   UNK N   1      34.683  17.115   9.370  0.00  0.00     0.292 C 
BRANCH   5   8
HETATM    8  C   UNK N   1      31.778  16.979   6.974  0.00  0.00     0.031 A 
HETATM    9  C   UNK N   1      32.349  16.962   5.691  0.00  0.00     0.053 A 
HETATM   10  C   UNK N   1      31.556  17.189   4.563  0.00  0.00     0.036 A 
HETATM   11 Cl   UNK N   1      32.283  17.209   2.973  0.00  0.00    -0.084 Cl
HETATM   12  C   UNK N   1      30.187  17.425   4.706  0.00  0.00     0.024 A 
HETATM   13  C   UNK N   1      29.607  17.433   5.976  0.00  0.00     0.004 A 
HETATM   14  C   UNK N   1      30.400  17.220   7.105  0.00  0.00     0.029 A 
ENDBRANCH   5   8
ENDBRANCH   1   2
BRANCH   1  15
HETATM   15  C   UNK N   1      35.055  14.226  11.207  0.00  0.00     0.052 C 
BRANCH  15  16
HETATM   16  C   UNK N   1      35.997  13.272  11.935  0.00  0.00     0.156 C 
BRANCH  16  17
HETATM   17  N   UNK N   1      36.030  13.586  13.349  0.00  0.00    -0.240 N 
HETATM   18  N   UNK N   1      36.868  14.452  13.915  0.00  0.00    -0.279 N 
HETATM   19  C   UNK N   1      36.561  14.464  15.230  0.00  0.00     0.130 A 
ATOM     20  HN  UNK N   1      37.594  14.996  13.449  1.00  0.00     0.189 HD
HETATM   21  N   UNK N   1      35.551  13.621  15.512  0.00  0.00    -0.258 N 
HETATM   22  C   UNK N   1      37.159  15.228  16.225  0.00  0.00     0.050 A 
HETATM   23  C   UNK N   1      35.234  13.077  14.320  0.00  0.00     0.349 A 
HETATM   24  C   UNK N   1      35.043  13.443  16.753  0.00  0.00     0.103 A 
HETATM   25  O   UNK N   1      34.354  12.252  14.141  0.00  0.00    -0.244 OA
HETATM   26  C   UNK N   1      35.604  14.187  17.803  0.00  0.00     0.018 A 
HETATM   27  C   UNK N   1      36.663  15.081  17.534  0.00  0.00     0.005 A 
ENDBRANCH  16  17
ENDBRANCH  15  16
ENDBRANCH   1  15
TORSDOF 5
ENDMDL
MODEL 3
REMARK VINA RESULT:      -7.3      3.031      4.773
REMARK  5 active torsions:
REMARK  status: ('A' for Active; 'I' for Inactive)
REMARK    1  A    between atoms: N_3  and  C_13 
REMARK    2  A    between atoms: N_4  and  C_16 
REMARK    3  A    between atoms: N_5  and  C_15 
REMARK    4  A    between atoms: C_13  and  C_14 
REMARK    5  A    between atoms: C_14  and  C_15 
ROOT
HETATM    1  C   UNK N   1      36.089  11.955  11.209  0.00  0.00     0.274 C 
ENDROOT
BRANCH   1   2
HETATM    2  N   UNK N   1      36.172  12.153  12.663  0.00  0.00     0.091 N 
HETATM    3  C   UNK N   1      34.815  11.993  13.218  0.00  0.00     0.292 C 
HETATM    4  C   UNK N   1      34.764  11.134  14.479  0.00  0.00     0.153 C 
HETATM    5  N   UNK N   1      35.885  11.464  15.331  0.00  0.00    -0.377 N 
HETATM    6  C   UNK N   1      37.228  11.424  14.785  0.00  0.00     0.153 C 
HETATM    7  C   UNK N   1      37.203  11.288  13.269  0.00  0.00     0.292 C 
BRANCH   5   8
HETATM    8  C   UNK N   1      35.674  11.960  16.647  0.00  0.00     0.031 A 
HETATM    9  C   UNK N   1      35.631  11.084  17.745  0.00  0.00     0.053 A 
HETATM   10  C   UNK N   1      35.361  11.571  19.026  0.00  0.00     0.036 A 
HETATM   11 Cl   UNK N   1      35.268  10.467  20.379  0.00  0.00    -0.084 Cl
HETATM   12  C   UNK N   1      35.142  12.937  19.224  0.00  0.00     0.024 A 
HETATM   13  C   UNK N   1      35.194  13.817  18.142  0.00  0.00     0.004 A 
HETATM   14  C   UNK N   1      35.449  13.331  16.859  0.00  0.00     0.029 A 
ENDBRANCH   5   8
ENDBRANCH   1   2
BRANCH   1  15
HETATM   15  C   UNK N   1      36.792  13.038  10.371  0.00  0.00     0.052 C 
BRANCH  15  16
HETATM   16  C   UNK N   1      36.467  14.450  10.847  0.00  0.00     0.156 C 
BRANCH  16  17
HETATM   17  N   UNK N   1      35.793  15.188   9.798  0.00  0.00    -0.240 N 
HETATM   18  N   UNK N   1      35.623  14.752   8.552  0.00  0.00    -0.279 N 
HETATM   19  C   UNK N   1      34.941  15.722   7.906  0.00  0.00     0.130 A 
ATOM     20  HN  UNK N   1      35.943  13.864   8.165  1.00  0.00     0.189 HD
HETATM   21  N   UNK N   1      34.679  16.766   8.714  0.00  0.00    -0.258 N 
HETATM   22  C   UNK N   1      34.519  15.713   6.583  0.00  0.00     0.050 A 
HETATM   23  C   UNK N   1      35.225  16.414   9.895  0.00  0.00     0.349 A 
HETATM   24  C   UNK N   1      34.004  17.871   8.321  0.00  0.00     0.103 A 
HETATM   25  O   UNK N   1      35.204  17.097  10.905  0.00  0.00    -0.244 OA
HETATM   26  C   UNK N   1      33.550  17.923   6.994  0.00  0.00     0.018 A 
HETATM   27  C   UNK N   1      33.809  16.840   6.127  0.00  0.00     0.005 A 
ENDBRANCH  16  17
ENDBRANCH  15  16
ENDBRANCH   1  15
TORSDOF 5
ENDMDL
MODEL 4
REMARK VINA RESULT:      -7.3      3.819      9.036
REMARK  5 active torsions:
REMARK  status: ('A' for Active; 'I' for Inactive)
REMARK    1  A    between atoms: N_3  and  C_13 
REMARK    2  A    between atoms: N_4  and  C_16 
REMARK    3  A    between atoms: N_5  and  C_15 
REMARK    4  A    between atoms: C_13  and  C_14 
REMARK    5  A    between atoms: C_14  and  C_15 
ROOT
HETATM    1  C   UNK N   1      34.662  15.964  10.521  0.00  0.00     0.274 C 
ENDROOT
BRANCH   1   2
HETATM    2  N   UNK N   1      34.255  16.222   9.132  0.00  0.00     0.091 N 
HETATM    3  C   UNK N   1      32.853  15.789   8.984  0.00  0.00     0.292 C 
HETATM    4  C   UNK N   1      31.979  16.787   8.230  0.00  0.00     0.153 C 
HETATM    5  N   UNK N   1      32.717  17.321   7.108  0.00  0.00    -0.377 N 
HETATM    6  C   UNK N   1      34.023  17.911   7.332  0.00  0.00     0.153 C 
HETATM    7  C   UNK N   1      34.525  17.618   8.738  0.00  0.00     0.292 C 
BRANCH   5   8
HETATM    8  C   UNK N   1      32.241  17.146   5.778  0.00  0.00     0.031 A 
HETATM    9  C   UNK N   1      30.952  16.642   5.539  0.00  0.00     0.053 A 
HETATM   10  C   UNK N   1      30.514  16.415   4.232  0.00  0.00     0.036 A 
HETATM   11 Cl   UNK N   1      28.924  15.746   3.947  0.00  0.00    -0.084 Cl
HETATM   12  C   UNK N   1      31.355  16.700   3.153  0.00  0.00     0.024 A 
HETATM   13  C   UNK N   1      32.634  17.212   3.379  0.00  0.00     0.004 A 
HETATM   14  C   UNK N   1      33.078  17.426   4.685  0.00  0.00     0.029 A 
ENDBRANCH   5   8
ENDBRANCH   1   2
BRANCH   1  15
HETATM   15  C   UNK N   1      36.183  15.882  10.742  0.00  0.00     0.052 C 
BRANCH  15  16
HETATM   16  C   UNK N   1      36.675  14.446  10.892  0.00  0.00     0.156 C 
BRANCH  16  17
HETATM   17  N   UNK N   1      36.292  13.920  12.187  0.00  0.00    -0.240 N 
HETATM   18  N   UNK N   1      36.784  14.336  13.351  0.00  0.00    -0.279 N 
HETATM   19  C   UNK N   1      36.159  13.609  14.303  0.00  0.00     0.130 A 
ATOM     20  HN  UNK N   1      37.490  15.059  13.496  1.00  0.00     0.189 HD
HETATM   21  N   UNK N   1      35.286  12.737  13.767  0.00  0.00    -0.258 N 
HETATM   22  C   UNK N   1      36.334  13.698  15.678  0.00  0.00     0.050 A 
HETATM   23  C   UNK N   1      35.386  12.944  12.439  0.00  0.00     0.349 A 
HETATM   24  C   UNK N   1      34.523  11.891  14.497  0.00  0.00     0.103 A 
HETATM   25  O   UNK N   1      34.749  12.346  11.589  0.00  0.00    -0.244 OA
HETATM   26  C   UNK N   1      34.653  11.932  15.894  0.00  0.00     0.018 A 
HETATM   27  C   UNK N   1      35.561  12.840  16.482  0.00  0.00     0.005 A 
ENDBRANCH  16  17
ENDBRANCH  15  16
ENDBRANCH   1  15
TORSDOF 5
ENDMDL
MODEL 5
REMARK VINA RESULT:      -7.2      4.491      9.849
REMARK  5 active torsions:
REMARK  status: ('A' for Active; 'I' for Inactive)
REMARK    1  A    between atoms: N_3  and  C_13 
REMARK    2  A    between atoms: N_4  and  C_16 
REMARK    3  A    between atoms: N_5  and  C_15 
REMARK    4  A    between atoms: C_13  and  C_14 
REMARK    5  A    between atoms: C_14  and  C_15 
ROOT
HETATM    1  C   UNK N   1      32.909  16.325   5.824  0.00  0.00     0.274 C 
ENDROOT
BRANCH   1   2
HETATM    2  N   UNK N   1      31.730  17.188   5.996  0.00  0.00     0.091 N 
HETATM    3  C   UNK N   1      31.098  17.356   4.675  0.00  0.00     0.292 C 
HETATM    4  C   UNK N   1      29.580  17.202   4.697  0.00  0.00     0.153 C 
HETATM    5  N   UNK N   1      29.047  17.860   5.870  0.00  0.00    -0.377 N 
HETATM    6  C   UNK N   1      29.576  17.521   7.176  0.00  0.00     0.153 C 
HETATM    7  C   UNK N   1      30.839  16.682   7.058  0.00  0.00     0.292 C 
BRANCH   5   8
HETATM    8  C   UNK N   1      28.117  18.929   5.740  0.00  0.00     0.031 A 
HETATM    9  C   UNK N   1      27.563  19.250   4.490  0.00  0.00     0.053 A 
HETATM   10  C   UNK N   1      26.698  20.339   4.360  0.00  0.00     0.036 A 
HETATM   11 Cl   UNK N   1      26.047  20.756   2.791  0.00  0.00    -0.084 Cl
HETATM   12  C   UNK N   1      26.371  21.110   5.478  0.00  0.00     0.024 A 
HETATM   13  C   UNK N   1      26.907  20.793   6.727  0.00  0.00     0.004 A 
HETATM   14  C   UNK N   1      27.782  19.714   6.856  0.00  0.00     0.029 A 
ENDBRANCH   5   8
ENDBRANCH   1   2
BRANCH   1  15
HETATM   15  C   UNK N   1      33.354  15.583   7.096  0.00  0.00     0.052 C 
BRANCH  15  16
HETATM   16  C   UNK N   1      34.556  16.240   7.767  0.00  0.00     0.156 C 
BRANCH  16  17
HETATM   17  N   UNK N   1      34.834  15.596   9.035  0.00  0.00    -0.240 N 
HETATM   18  N   UNK N   1      34.658  14.300   9.284  0.00  0.00    -0.279 N 
HETATM   19  C   UNK N   1      35.047  14.109  10.563  0.00  0.00     0.130 A 
ATOM     20  HN  UNK N   1      34.303  13.595   8.637  1.00  0.00     0.189 HD
HETATM   21  N   UNK N   1      35.459  15.255  11.134  0.00  0.00    -0.258 N 
HETATM   22  C   UNK N   1      35.057  12.910  11.267  0.00  0.00     0.050 A 
HETATM   23  C   UNK N   1      35.315  16.177  10.161  0.00  0.00     0.349 A 
HETATM   24  C   UNK N   1      35.906  15.344  12.407  0.00  0.00     0.103 A 
HETATM   25  O   UNK N   1      35.585  17.361  10.276  0.00  0.00    -0.244 OA
HETATM   26  C   UNK N   1      35.941  14.167  13.172  0.00  0.00     0.018 A 
HETATM   27  C   UNK N   1      35.516  12.950  12.596  0.00  0.00     0.005 A 
ENDBRANCH  16  17
ENDBRANCH  15  16
ENDBRANCH   1  15
TORSDOF 5
ENDMDL
MODEL 6
REMARK VINA RESULT:      -7.2      2.298      3.231
REMARK  5 active torsions:
REMARK  status: ('A' for Active; 'I' for Inactive)
REMARK    1  A    between atoms: N_3  and  C_13 
REMARK    2  A    between atoms: N_4  and  C_16 
REMARK    3  A    between atoms: N_5  and  C_15 
REMARK    4  A    between atoms: C_13  and  C_14 
REMARK    5  A    between atoms: C_14  and  C_15 
ROOT
HETATM    1  C   UNK N   1      32.654  16.982   8.245  0.00  0.00     0.274 C 
ENDROOT
BRANCH   1   2
HETATM    2  N   UNK N   1      33.325  16.431   9.432  0.00  0.00     0.091 N 
HETATM    3  C   UNK N   1      33.114  14.971   9.432  0.00  0.00     0.292 C 
HETATM    4  C   UNK N   1      34.375  14.169   9.746  0.00  0.00     0.153 C 
HETATM    5  N   UNK N   1      35.104  14.819  10.812  0.00  0.00    -0.377 N 
HETATM    6  C   UNK N   1      35.455  16.220  10.682  0.00  0.00     0.153 C 
HETATM    7  C   UNK N   1      34.735  16.861   9.505  0.00  0.00     0.292 C 
BRANCH   5   8
HETATM    8  C   UNK N   1      35.355  14.140  12.037  0.00  0.00     0.031 A 
HETATM    9  C   UNK N   1      34.745  12.904  12.309  0.00  0.00     0.053 A 
HETATM   10  C   UNK N   1      34.947  12.273  13.539  0.00  0.00     0.036 A 
HETATM   11 Cl   UNK N   1      34.149  10.756  13.884  0.00  0.00    -0.084 Cl
HETATM   12  C   UNK N   1      35.766  12.865  14.503  0.00  0.00     0.024 A 
HETATM   13  C   UNK N   1      36.386  14.087  14.239  0.00  0.00     0.004 A 
HETATM   14  C   UNK N   1      36.174  14.726  13.016  0.00  0.00     0.029 A 
ENDBRANCH   5   8
ENDBRANCH   1   2
BRANCH   1  15
HETATM   15  C   UNK N   1      31.453  17.895   8.550  0.00  0.00     0.052 C 
BRANCH  15  16
HETATM   16  C   UNK N   1      30.115  17.196   8.332  0.00  0.00     0.156 C 
BRANCH  16  17
HETATM   17  N   UNK N   1      29.271  17.992   7.464  0.00  0.00    -0.240 N 
HETATM   18  N   UNK N   1      28.511  19.007   7.868  0.00  0.00    -0.279 N 
HETATM   19  C   UNK N   1      27.905  19.484   6.759  0.00  0.00     0.130 A 
ATOM     20  HN  UNK N   1      28.408  19.355   8.821  1.00  0.00     0.189 HD
HETATM   21  N   UNK N   1      28.260  18.790   5.662  0.00  0.00    -0.258 N 
HETATM   22  C   UNK N   1      27.024  20.555   6.679  0.00  0.00     0.050 A 
HETATM   23  C   UNK N   1      29.114  17.857   6.125  0.00  0.00     0.349 A 
HETATM   24  C   UNK N   1      27.803  19.063   4.418  0.00  0.00     0.103 A 
HETATM   25  O   UNK N   1      29.671  17.017   5.438  0.00  0.00    -0.244 OA
HETATM   26  C   UNK N   1      26.908  20.134   4.270  0.00  0.00     0.018 A 
HETATM   27  C   UNK N   1      26.522  20.880   5.405  0.00  0.00     0.005 A 
ENDBRANCH  16  17
ENDBRANCH  15  16
ENDBRANCH   1  15
TORSDOF 5
ENDMDL
MODEL 7
REMARK VINA RESULT:      -7.0      6.220      9.518
REMARK  5 active torsions:
REMARK  status: ('A' for Active; 'I' for Inactive)
REMARK    1  A    between atoms: N_3  and  C_13 
REMARK    2  A    between atoms: N_4  and  C_16 
REMARK    3  A    between atoms: N_5  and  C_15 
REMARK    4  A    between atoms: C_13  and  C_14 
REMARK    5  A    between atoms: C_14  and  C_15 
ROOT
HETATM    1  C   UNK N   1      26.892  19.689   5.776  0.00  0.00     0.274 C 
ENDROOT
BRANCH   1   2
HETATM    2  N   UNK N   1      28.194  19.023   5.928  0.00  0.00     0.091 N 
HETATM    3  C   UNK N   1      28.314  18.580   7.330  0.00  0.00     0.292 C 
HETATM    4  C   UNK N   1      28.842  17.156   7.480  0.00  0.00     0.153 C 
HETATM    5  N   UNK N   1      29.915  16.940   6.534  0.00  0.00    -0.377 N 
HETATM    6  C   UNK N   1      29.689  17.214   5.128  0.00  0.00     0.153 C 
HETATM    7  C   UNK N   1      28.382  17.965   4.917  0.00  0.00     0.292 C 
BRANCH   5   8
HETATM    8  C   UNK N   1      31.221  16.598   6.985  0.00  0.00     0.031 A 
HETATM    9  C   UNK N   1      32.123  17.596   7.390  0.00  0.00     0.053 A 
HETATM   10  C   UNK N   1      33.423  17.259   7.773  0.00  0.00     0.036 A 
HETATM   11 Cl   UNK N   1      34.552  18.512   8.234  0.00  0.00    -0.084 Cl
HETATM   12  C   UNK N   1      33.830  15.922   7.765  0.00  0.00     0.024 A 
HETATM   13  C   UNK N   1      32.938  14.922   7.376  0.00  0.00     0.004 A 
HETATM   14  C   UNK N   1      31.643  15.259   6.979  0.00  0.00     0.029 A 
ENDBRANCH   5   8
ENDBRANCH   1   2
BRANCH   1  15
HETATM   15  C   UNK N   1      25.946  19.028   4.759  0.00  0.00     0.052 C 
BRANCH  15  16
HETATM   16  C   UNK N   1      25.176  20.048   3.926  0.00  0.00     0.156 C 
BRANCH  16  17
HETATM   17  N   UNK N   1      23.826  19.579   3.686  0.00  0.00    -0.240 N 
HETATM   18  N   UNK N   1      23.371  18.372   4.015  0.00  0.00    -0.279 N 
HETATM   19  C   UNK N   1      22.074  18.345   3.638  0.00  0.00     0.130 A 
ATOM     20  HN  UNK N   1      23.896  17.621   4.463  1.00  0.00     0.189 HD
HETATM   21  N   UNK N   1      21.698  19.506   3.072  0.00  0.00    -0.258 N 
HETATM   22  C   UNK N   1      21.178  17.295   3.790  0.00  0.00     0.050 A 
HETATM   23  C   UNK N   1      22.811  20.266   3.108  0.00  0.00     0.349 A 
HETATM   24  C   UNK N   1      20.450  19.749   2.610  0.00  0.00     0.103 A 
HETATM   25  O   UNK N   1      22.891  21.408   2.687  0.00  0.00    -0.244 OA
HETATM   26  C   UNK N   1      19.496  18.727   2.734  0.00  0.00     0.018 A 
HETATM   27  C   UNK N   1      19.864  17.499   3.327  0.00  0.00     0.005 A 
ENDBRANCH  16  17
ENDBRANCH  15  16
ENDBRANCH   1  15
TORSDOF 5
ENDMDL
MODEL 8
REMARK VINA RESULT:      -7.0      3.042      4.650
REMARK  5 active torsions:
REMARK  status: ('A' for Active; 'I' for Inactive)
REMARK    1  A    between atoms: N_3  and  C_13 
REMARK    2  A    between atoms: N_4  and  C_16 
REMARK    3  A    between atoms: N_5  and  C_15 
REMARK    4  A    between atoms: C_13  and  C_14 
REMARK    5  A    between atoms: C_14  and  C_15 
ROOT
HETATM    1  C   UNK N   1      36.426  11.588  11.385  0.00  0.00     0.274 C 
ENDROOT
BRANCH   1   2
HETATM    2  N   UNK N   1      36.104  11.535  12.818  0.00  0.00     0.091 N 
HETATM    3  C   UNK N   1      36.703  12.721  13.460  0.00  0.00     0.292 C 
HETATM    4  C   UNK N   1      35.766  13.431  14.433  0.00  0.00     0.153 C 
HETATM    5  N   UNK N   1      35.043  12.447  15.208  0.00  0.00    -0.377 N 
HETATM    6  C   UNK N   1      34.308  11.402  14.522  0.00  0.00     0.153 C 
HETATM    7  C   UNK N   1      34.654  11.367  13.041  0.00  0.00     0.292 C 
BRANCH   5   8
HETATM    8  C   UNK N   1      35.161  12.413  16.626  0.00  0.00     0.031 A 
HETATM    9  C   UNK N   1      35.284  11.190  17.305  0.00  0.00     0.053 A 
HETATM   10  C   UNK N   1      35.338  11.160  18.701  0.00  0.00     0.036 A 
HETATM   11 Cl   UNK N   1      35.448   9.629  19.539  0.00  0.00    -0.084 Cl
HETATM   12  C   UNK N   1      35.279  12.351  19.429  0.00  0.00     0.024 A 
HETATM   13  C   UNK N   1      35.169  13.573  18.763  0.00  0.00     0.004 A 
HETATM   14  C   UNK N   1      35.101  13.603  17.369  0.00  0.00     0.029 A 
ENDBRANCH   5   8
ENDBRANCH   1   2
BRANCH   1  15
HETATM   15  C   UNK N   1      35.659  12.661  10.591  0.00  0.00     0.052 C 
BRANCH  15  16
HETATM   16  C   UNK N   1      36.507  13.298   9.495  0.00  0.00     0.156 C 
BRANCH  16  17
HETATM   17  N   UNK N   1      35.788  14.396   8.883  0.00  0.00    -0.240 N 
HETATM   18  N   UNK N   1      35.323  15.458   9.537  0.00  0.00    -0.279 N 
HETATM   19  C   UNK N   1      34.738  16.244   8.606  0.00  0.00     0.130 A 
ATOM     20  HN  UNK N   1      35.394  15.641  10.538  1.00  0.00     0.189 HD
HETATM   21  N   UNK N   1      34.818  15.701   7.378  0.00  0.00    -0.258 N 
HETATM   22  C   UNK N   1      34.121  17.472   8.812  0.00  0.00     0.050 A 
HETATM   23  C   UNK N   1      35.477  14.542   7.572  0.00  0.00     0.349 A 
HETATM   24  C   UNK N   1      34.318  16.284   6.264  0.00  0.00     0.103 A 
HETATM   25  O   UNK N   1      35.757  13.743   6.694  0.00  0.00    -0.244 OA
HETATM   26  C   UNK N   1      33.681  17.527   6.405  0.00  0.00     0.018 A 
HETATM   27  C   UNK N   1      33.587  18.119   7.683  0.00  0.00     0.005 A 
ENDBRANCH  16  17
ENDBRANCH  15  16
ENDBRANCH   1  15
TORSDOF 5
ENDMDL
MODEL 9
REMARK VINA RESULT:      -6.9      1.798      2.536
REMARK  5 active torsions:
REMARK  status: ('A' for Active; 'I' for Inactive)
REMARK    1  A    between atoms: N_3  and  C_13 
REMARK    2  A    between atoms: N_4  and  C_16 
REMARK    3  A    between atoms: N_5  and  C_15 
REMARK    4  A    between atoms: C_13  and  C_14 
REMARK    5  A    between atoms: C_14  and  C_15 
ROOT
HETATM    1  C   UNK N   1      34.628  16.086   8.410  0.00  0.00     0.274 C 
ENDROOT
BRANCH   1   2
HETATM    2  N   UNK N   1      34.738  15.613   9.798  0.00  0.00     0.091 N 
HETATM    3  C   UNK N   1      35.130  14.192   9.762  0.00  0.00     0.292 C 
HETATM    4  C   UNK N   1      36.239  13.836  10.748  0.00  0.00     0.153 C 
HETATM    5  N   UNK N   1      36.000  14.512  12.004  0.00  0.00    -0.377 N 
HETATM    6  C   UNK N   1      35.806  15.949  12.011  0.00  0.00     0.153 C 
HETATM    7  C   UNK N   1      35.618  16.486  10.599  0.00  0.00     0.292 C 
BRANCH   5   8
HETATM    8  C   UNK N   1      35.817  13.769  13.203  0.00  0.00     0.031 A 
HETATM    9  C   UNK N   1      34.907  12.700  13.251  0.00  0.00     0.053 A 
HETATM   10  C   UNK N   1      34.687  12.015  14.449  0.00  0.00     0.036 A 
HETATM   11 Cl   UNK N   1      33.521  10.712  14.509  0.00  0.00    -0.084 Cl
HETATM   12  C   UNK N   1      35.379  12.384  15.604  0.00  0.00     0.024 A 
HETATM   13  C   UNK N   1      36.293  13.438  15.565  0.00  0.00     0.004 A 
HETATM   14  C   UNK N   1      36.504  14.133  14.373  0.00  0.00     0.029 A 
ENDBRANCH   5   8
ENDBRANCH   1   2
BRANCH   1  15
HETATM   15  C   UNK N   1      33.266  15.819   7.745  0.00  0.00     0.052 C 
BRANCH  15  16
HETATM   16  C   UNK N   1      32.092  16.170   8.653  0.00  0.00     0.156 C 
BRANCH  16  17
HETATM   17  N   UNK N   1      31.056  16.839   7.893  0.00  0.00    -0.240 N 
HETATM   18  N   UNK N   1      30.942  16.802   6.568  0.00  0.00    -0.279 N 
HETATM   19  C   UNK N   1      29.847  17.532   6.265  0.00  0.00     0.130 A 
ATOM     20  HN  UNK N   1      31.558  16.319   5.913  1.00  0.00     0.189 HD
HETATM   21  N   UNK N   1      29.266  18.036   7.369  0.00  0.00    -0.258 N 
HETATM   22  C   UNK N   1      29.320  17.771   5.002  0.00  0.00     0.050 A 
HETATM   23  C   UNK N   1      30.040  17.593   8.380  0.00  0.00     0.349 A 
HETATM   24  C   UNK N   1      28.150  18.800   7.351  0.00  0.00     0.103 A 
HETATM   25  O   UNK N   1      29.851  17.831   9.561  0.00  0.00    -0.244 OA
HETATM   26  C   UNK N   1      27.568  19.078   6.104  0.00  0.00     0.018 A 
HETATM   27  C   UNK N   1      28.156  18.559   4.930  0.00  0.00     0.005 A 
ENDBRANCH  16  17
ENDBRANCH  15  16
ENDBRANCH   1  15
TORSDOF 5
ENDMDL
