MODEL 1
REMARK VINA RESULT:      -7.6      0.000      0.000
REMARK  5 active torsions:
REMARK  status: ('A' for Active; 'I' for Inactive)
REMARK    1  A    between atoms: S_1  and  O_4 
REMARK    2  A    between atoms: S_1  and  C_22 
REMARK    3  A    between atoms: O_2  and  C_19 
REMARK    4  A    between atoms: C_9  and  C_19 
REMARK    5  A    between atoms: C_23  and  C_24 
ROOT
HETATM    1  C   UNK N   1      26.429  18.354   5.773  0.00  0.00     0.017 C 
HETATM    2  C   UNK N   1      25.918  19.088   4.494  0.00  0.00    -0.011 C 
HETATM    3  C   UNK N   1      27.876  18.815   6.164  0.00  0.00     0.046 C 
HETATM    4  C   UNK N   1      25.878  20.619   4.739  0.00  0.00     0.014 C 
HETATM    5  C   UNK N   1      26.317  16.804   5.697  0.00  0.00     0.011 C 
HETATM    6  C   UNK N   1      28.055  20.334   5.990  0.00  0.00     0.020 C 
HETATM    7  C   UNK N   1      26.736  21.100   5.920  0.00  0.00     0.002 C 
HETATM    8  C   UNK N   1      24.552  18.539   4.140  0.00  0.00    -0.042 A 
HETATM    9  C   UNK N   1      25.499  16.257   4.512  0.00  0.00     0.039 C 
HETATM   10  C   UNK N   1      26.823  18.836   3.292  0.00  0.00     0.021 C 
HETATM   11  C   UNK N   1      24.357  17.154   4.144  0.00  0.00    -0.050 A 
HETATM   12  C   UNK N   1      28.916  18.169   5.241  0.00  0.00     0.027 C 
HETATM   13  C   UNK N   1      23.493  19.375   3.791  0.00  0.00     0.034 A 
HETATM   14  C   UNK N   1      23.112  16.617   3.804  0.00  0.00     0.016 A 
HETATM   15  C   UNK N   1      22.251  18.859   3.422  0.00  0.00     0.079 A 
HETATM   16  C   UNK N   1      22.041  17.454   3.424  0.00  0.00    -0.031 A 
ENDROOT
BRANCH   3  17
HETATM   17  C   UNK N   1      28.180  18.443   7.604  0.00  0.00     0.148 C 
HETATM   18  O   UNK N   1      29.072  17.664   7.879  0.00  0.00    -0.649 OA
BRANCH  17  19
HETATM   19  O   UNK N   1      27.453  18.997   8.601  0.00  0.00    -0.776 OA
HETATM   20  H   UNK N   1      26.699  19.293   9.071  0.00  0.00     0.167 HD
ENDBRANCH  17  19
ENDBRANCH   3  17
BRANCH  15  21
HETATM   21  S   UNK N   1      21.049  20.062   2.847  0.00  0.00     0.130 S 
HETATM   22  O   UNK N   1      20.227  20.778   3.931  0.00  0.00    -0.598 OA
HETATM   23  O   UNK N   1      22.092  21.179   2.761  0.00  0.00    -0.598 OA
BRANCH  21  24
HETATM   24  O   UNK N   1      20.398  20.412   1.297  0.00  0.00    -0.292 OA
HETATM   25  H   UNK N   1      19.556  20.886   1.218  0.00  0.00     0.232 HD
ENDBRANCH  21  24
ENDBRANCH  15  21
BRANCH  16  26
HETATM   26  C   UNK N   1      20.709  16.840   3.022  0.00  0.00     0.012 C 
HETATM   27  C   UNK N   1      19.748  16.656   4.191  0.00  0.00     0.015 C 
HETATM   28  C   UNK N   1      20.893  15.484   2.369  0.00  0.00     0.015 C 
ENDBRANCH  16  26
TORSDOF 5
ENDMDL
MODEL 2
REMARK VINA RESULT:      -7.3     12.666     13.621
REMARK  5 active torsions:
REMARK  status: ('A' for Active; 'I' for Inactive)
REMARK    1  A    between atoms: S_1  and  O_4 
REMARK    2  A    between atoms: S_1  and  C_22 
REMARK    3  A    between atoms: O_2  and  C_19 
REMARK    4  A    between atoms: C_9  and  C_19 
REMARK    5  A    between atoms: C_23  and  C_24 
ROOT
HETATM    1  C   UNK N   1      27.721  26.954  -4.870  0.00  0.00     0.017 C 
HETATM    2  C   UNK N   1      26.961  26.589  -6.184  0.00  0.00    -0.011 C 
HETATM    3  C   UNK N   1      27.491  28.452  -4.467  0.00  0.00     0.046 C 
HETATM    4  C   UNK N   1      25.437  26.800  -5.994  0.00  0.00     0.014 C 
HETATM    5  C   UNK N   1      29.233  26.587  -4.893  0.00  0.00     0.011 C 
HETATM    6  C   UNK N   1      26.030  28.883  -4.690  0.00  0.00     0.020 C 
HETATM    7  C   UNK N   1      25.060  27.710  -4.813  0.00  0.00     0.002 C 
HETATM    8  C   UNK N   1      27.290  25.156  -6.545  0.00  0.00    -0.042 A 
HETATM    9  C   UNK N   1      29.682  25.706  -6.074  0.00  0.00     0.039 C 
HETATM   10  C   UNK N   1      27.404  27.456  -7.358  0.00  0.00     0.021 C 
HETATM   11  C   UNK N   1      28.623  24.734  -6.496  0.00  0.00    -0.050 A 
HETATM   12  C   UNK N   1      28.334  29.383  -5.346  0.00  0.00     0.027 C 
HETATM   13  C   UNK N   1      26.305  24.255  -6.943  0.00  0.00     0.034 A 
HETATM   14  C   UNK N   1      28.959  23.421  -6.841  0.00  0.00     0.016 A 
HETATM   15  C   UNK N   1      26.622  22.949  -7.319  0.00  0.00     0.079 A 
HETATM   16  C   UNK N   1      27.972  22.510  -7.272  0.00  0.00    -0.031 A 
ENDROOT
BRANCH   3  17
HETATM   17  C   UNK N   1      27.854  28.670  -3.009  0.00  0.00     0.148 C 
HETATM   18  O   UNK N   1      27.070  28.409  -2.118  0.00  0.00    -0.649 OA
BRANCH  17  19
HETATM   19  O   UNK N   1      29.077  29.152  -2.694  0.00  0.00    -0.776 OA
HETATM   20  H   UNK N   1      29.793  29.755  -2.649  0.00  0.00     0.167 HD
ENDBRANCH  17  19
ENDBRANCH   3  17
BRANCH  15  21
HETATM   21  S   UNK N   1      25.259  21.972  -7.959  0.00  0.00     0.130 S 
HETATM   22  O   UNK N   1      24.148  21.612  -6.959  0.00  0.00    -0.598 OA
HETATM   23  O   UNK N   1      24.520  23.204  -8.487  0.00  0.00    -0.598 OA
BRANCH  21  24
HETATM   24  O   UNK N   1      25.039  21.090  -9.416  0.00  0.00    -0.292 OA
HETATM   25  H   UNK N   1      24.500  20.283  -9.420  0.00  0.00     0.232 HD
ENDBRANCH  21  24
ENDBRANCH  15  21
BRANCH  16  26
HETATM   26  C   UNK N   1      28.372  21.100  -7.677  0.00  0.00     0.012 C 
HETATM   27  C   UNK N   1      29.609  20.586  -6.950  0.00  0.00     0.015 C 
HETATM   28  C   UNK N   1      28.648  21.003  -9.165  0.00  0.00     0.015 C 
ENDBRANCH  16  26
TORSDOF 5
ENDMDL
MODEL 3
REMARK VINA RESULT:      -6.7      5.139      8.424
REMARK  5 active torsions:
REMARK  status: ('A' for Active; 'I' for Inactive)
REMARK    1  A    between atoms: S_1  and  O_4 
REMARK    2  A    between atoms: S_1  and  C_22 
REMARK    3  A    between atoms: O_2  and  C_19 
REMARK    4  A    between atoms: C_9  and  C_19 
REMARK    5  A    between atoms: C_23  and  C_24 
ROOT
HETATM    1  C   UNK N   1      33.121  14.806   6.458  0.00  0.00     0.017 C 
HETATM    2  C   UNK N   1      32.759  16.061   7.313  0.00  0.00    -0.011 C 
HETATM    3  C   UNK N   1      34.493  14.186   6.896  0.00  0.00     0.046 C 
HETATM    4  C   UNK N   1      32.646  15.672   8.809  0.00  0.00     0.014 C 
HETATM    5  C   UNK N   1      33.060  15.051   4.923  0.00  0.00     0.011 C 
HETATM    6  C   UNK N   1      34.652  14.182   8.427  0.00  0.00     0.020 C 
HETATM    7  C   UNK N   1      33.333  14.347   9.178  0.00  0.00     0.002 C 
HETATM    8  C   UNK N   1      31.464  16.643   6.785  0.00  0.00    -0.042 A 
HETATM    9  C   UNK N   1      32.416  16.381   4.489  0.00  0.00     0.039 C 
HETATM   10  C   UNK N   1      33.817  17.154   7.198  0.00  0.00     0.021 C 
HETATM   11  C   UNK N   1      31.307  16.803   5.404  0.00  0.00    -0.050 A 
HETATM   12  C   UNK N   1      35.659  15.025   6.362  0.00  0.00     0.027 C 
HETATM   13  C   UNK N   1      30.437  17.041   7.638  0.00  0.00     0.034 A 
HETATM   14  C   UNK N   1      30.130  17.354   4.888  0.00  0.00     0.016 A 
HETATM   15  C   UNK N   1      29.266  17.619   7.146  0.00  0.00     0.079 A 
HETATM   16  C   UNK N   1      29.096  17.785   5.745  0.00  0.00    -0.031 A 
ENDROOT
BRANCH   3  17
HETATM   17  C   UNK N   1      34.619  12.763   6.382  0.00  0.00     0.148 C 
HETATM   18  O   UNK N   1      35.630  12.382   5.825  0.00  0.00    -0.649 OA
BRANCH  17  19
HETATM   19  O   UNK N   1      33.594  11.900   6.558  0.00  0.00    -0.776 OA
HETATM   20  H   UNK N   1      32.766  11.486   6.412  0.00  0.00     0.167 HD
ENDBRANCH  17  19
ENDBRANCH   3  17
BRANCH  15  21
HETATM   21  S   UNK N   1      28.117  18.222   8.386  0.00  0.00     0.130 S 
HETATM   22  O   UNK N   1      27.697  17.220   9.473  0.00  0.00    -0.598 OA
HETATM   23  O   UNK N   1      29.233  18.830   9.239  0.00  0.00    -0.598 OA
BRANCH  21  24
HETATM   24  O   UNK N   1      27.138  19.630   8.483  0.00  0.00    -0.292 OA
HETATM   25  H   UNK N   1      26.352  19.716   7.921  0.00  0.00     0.232 HD
ENDBRANCH  21  24
ENDBRANCH  15  21
BRANCH  16  26
HETATM   26  C   UNK N   1      27.843  18.416   5.158  0.00  0.00     0.012 C 
HETATM   27  C   UNK N   1      27.349  17.723   3.893  0.00  0.00     0.015 C 
HETATM   28  C   UNK N   1      28.059  19.878   4.819  0.00  0.00     0.015 C 
ENDBRANCH  16  26
TORSDOF 5
ENDMDL
MODEL 4
REMARK VINA RESULT:      -6.7     11.134     12.800
REMARK  5 active torsions:
REMARK  status: ('A' for Active; 'I' for Inactive)
REMARK    1  A    between atoms: S_1  and  O_4 
REMARK    2  A    between atoms: S_1  and  C_22 
REMARK    3  A    between atoms: O_2  and  C_19 
REMARK    4  A    between atoms: C_9  and  C_19 
REMARK    5  A    between atoms: C_23  and  C_24 
ROOT
HETATM    1  C   UNK N   1      31.817  22.437  -5.161  0.00  0.00     0.017 C 
HETATM    2  C   UNK N   1      30.411  21.762  -5.088  0.00  0.00    -0.011 C 
HETATM    3  C   UNK N   1      32.950  21.464  -4.684  0.00  0.00     0.046 C 
HETATM    4  C   UNK N   1      30.374  20.509  -6.001  0.00  0.00     0.014 C 
HETATM    5  C   UNK N   1      31.894  23.812  -4.437  0.00  0.00     0.011 C 
HETATM    6  C   UNK N   1      32.724  20.031  -5.202  0.00  0.00     0.020 C 
HETATM    7  C   UNK N   1      31.757  19.954  -6.380  0.00  0.00     0.002 C 
HETATM    8  C   UNK N   1      29.368  22.783  -5.492  0.00  0.00    -0.042 A 
HETATM    9  C   UNK N   1      30.542  24.406  -3.997  0.00  0.00     0.039 C 
HETATM   10  C   UNK N   1      30.067  21.312  -3.671  0.00  0.00     0.021 C 
HETATM   11  C   UNK N   1      29.435  24.070  -4.950  0.00  0.00    -0.050 A 
HETATM   12  C   UNK N   1      32.958  21.353  -3.155  0.00  0.00     0.027 C 
HETATM   13  C   UNK N   1      28.336  22.468  -6.373  0.00  0.00     0.034 A 
HETATM   14  C   UNK N   1      28.476  25.029  -5.290  0.00  0.00     0.016 A 
HETATM   15  C   UNK N   1      27.352  23.400  -6.704  0.00  0.00     0.079 A 
HETATM   16  C   UNK N   1      27.410  24.711  -6.160  0.00  0.00    -0.031 A 
ENDROOT
BRANCH   3  17
HETATM   17  C   UNK N   1      34.305  21.954  -5.160  0.00  0.00     0.148 C 
HETATM   18  O   UNK N   1      35.281  21.910  -4.438  0.00  0.00    -0.649 OA
BRANCH  17  19
HETATM   19  O   UNK N   1      34.433  22.437  -6.417  0.00  0.00    -0.776 OA
HETATM   20  H   UNK N   1      34.180  22.714  -7.276  0.00  0.00     0.167 HD
ENDBRANCH  17  19
ENDBRANCH   3  17
BRANCH  15  21
HETATM   21  S   UNK N   1      26.007  22.784  -7.721  0.00  0.00     0.130 S 
HETATM   22  O   UNK N   1      26.104  21.315  -8.164  0.00  0.00    -0.598 OA
HETATM   23  O   UNK N   1      25.133  22.461  -6.507  0.00  0.00    -0.598 OA
BRANCH  21  24
HETATM   24  O   UNK N   1      24.729  23.562  -8.562  0.00  0.00    -0.292 OA
HETATM   25  H   UNK N   1      24.926  24.200  -9.266  0.00  0.00     0.232 HD
ENDBRANCH  21  24
ENDBRANCH  15  21
BRANCH  16  26
HETATM   26  C   UNK N   1      26.360  25.762  -6.483  0.00  0.00     0.012 C 
HETATM   27  C   UNK N   1      26.939  27.159  -6.677  0.00  0.00     0.015 C 
HETATM   28  C   UNK N   1      25.308  25.854  -5.394  0.00  0.00     0.015 C 
ENDBRANCH  16  26
TORSDOF 5
ENDMDL
MODEL 5
REMARK VINA RESULT:      -6.6      4.444      5.445
REMARK  5 active torsions:
REMARK  status: ('A' for Active; 'I' for Inactive)
REMARK    1  A    between atoms: S_1  and  O_4 
REMARK    2  A    between atoms: S_1  and  C_22 
REMARK    3  A    between atoms: O_2  and  C_19 
REMARK    4  A    between atoms: C_9  and  C_19 
REMARK    5  A    between atoms: C_23  and  C_24 
ROOT
HETATM    1  C   UNK N   1      26.029  16.724   5.522  0.00  0.00     0.017 C 
HETATM    2  C   UNK N   1      24.599  16.246   5.120  0.00  0.00    -0.011 C 
HETATM    3  C   UNK N   1      26.647  17.674   4.438  0.00  0.00     0.046 C 
HETATM    4  C   UNK N   1      23.654  17.466   4.966  0.00  0.00     0.014 C 
HETATM    5  C   UNK N   1      26.999  15.566   5.895  0.00  0.00     0.011 C 
HETATM    6  C   UNK N   1      25.601  18.660   3.885  0.00  0.00     0.020 C 
HETATM    7  C   UNK N   1      24.373  18.811   4.779  0.00  0.00     0.002 C 
HETATM    8  C   UNK N   1      24.102  15.280   6.175  0.00  0.00    -0.042 A 
HETATM    9  C   UNK N   1      26.344  14.181   6.061  0.00  0.00     0.039 C 
HETATM   10  C   UNK N   1      24.601  15.492   3.794  0.00  0.00     0.021 C 
HETATM   11  C   UNK N   1      24.958  14.269   6.625  0.00  0.00    -0.050 A 
HETATM   12  C   UNK N   1      27.134  16.868   3.228  0.00  0.00     0.027 C 
HETATM   13  C   UNK N   1      22.811  15.359   6.694  0.00  0.00     0.034 A 
HETATM   14  C   UNK N   1      24.522  13.352   7.585  0.00  0.00     0.016 A 
HETATM   15  C   UNK N   1      22.347  14.437   7.632  0.00  0.00     0.079 A 
HETATM   16  C   UNK N   1      23.208  13.407   8.096  0.00  0.00    -0.031 A 
ENDROOT
BRANCH   3  17
HETATM   17  C   UNK N   1      27.808  18.459   5.021  0.00  0.00     0.148 C 
HETATM   18  O   UNK N   1      27.678  19.118   6.033  0.00  0.00    -0.649 OA
BRANCH  17  19
HETATM   19  O   UNK N   1      29.013  18.414   4.409  0.00  0.00    -0.776 OA
HETATM   20  H   UNK N   1      29.670  18.578   3.762  0.00  0.00     0.167 HD
ENDBRANCH  17  19
ENDBRANCH   3  17
BRANCH  15  21
HETATM   21  S   UNK N   1      20.613  14.584   8.073  0.00  0.00     0.130 S 
HETATM   22  O   UNK N   1      19.772  15.554   7.227  0.00  0.00    -0.598 OA
HETATM   23  O   UNK N   1      20.216  13.361   7.243  0.00  0.00    -0.598 OA
BRANCH  21  24
HETATM   24  O   UNK N   1      19.710  14.074   9.442  0.00  0.00    -0.292 OA
HETATM   25  H   UNK N   1      19.221  14.722   9.972  0.00  0.00     0.232 HD
ENDBRANCH  21  24
ENDBRANCH  15  21
BRANCH  16  26
HETATM   26  C   UNK N   1      22.748  12.373   9.111  0.00  0.00     0.012 C 
HETATM   27  C   UNK N   1      23.016  12.780  10.556  0.00  0.00     0.015 C 
HETATM   28  C   UNK N   1      23.419  11.032   8.886  0.00  0.00     0.015 C 
ENDBRANCH  16  26
TORSDOF 5
ENDMDL
MODEL 6
REMARK VINA RESULT:      -6.5      4.223      8.666
REMARK  5 active torsions:
REMARK  status: ('A' for Active; 'I' for Inactive)
REMARK    1  A    between atoms: S_1  and  O_4 
REMARK    2  A    between atoms: S_1  and  C_22 
REMARK    3  A    between atoms: O_2  and  C_19 
REMARK    4  A    between atoms: C_9  and  C_19 
REMARK    5  A    between atoms: C_23  and  C_24 
ROOT
HETATM    1  C   UNK N   1      27.859  18.381   4.657  0.00  0.00     0.017 C 
HETATM    2  C   UNK N   1      28.393  17.894   6.041  0.00  0.00    -0.011 C 
HETATM    3  C   UNK N   1      26.419  18.989   4.776  0.00  0.00     0.046 C 
HETATM    4  C   UNK N   1      28.463  19.084   7.033  0.00  0.00     0.014 C 
HETATM    5  C   UNK N   1      27.941  17.305   3.536  0.00  0.00     0.011 C 
HETATM    6  C   UNK N   1      26.271  19.858   6.039  0.00  0.00     0.020 C 
HETATM    7  C   UNK N   1      27.606  20.297   6.637  0.00  0.00     0.002 C 
HETATM    8  C   UNK N   1      29.751  17.257   5.833  0.00  0.00    -0.042 A 
HETATM    9  C   UNK N   1      28.756  16.045   3.886  0.00  0.00     0.039 C 
HETATM   10  C   UNK N   1      27.492  16.830   6.658  0.00  0.00     0.021 C 
HETATM   11  C   UNK N   1      29.918  16.349   4.782  0.00  0.00    -0.050 A 
HETATM   12  C   UNK N   1      25.372  17.877   4.916  0.00  0.00     0.027 C 
HETATM   13  C   UNK N   1      30.829  17.534   6.670  0.00  0.00     0.034 A 
HETATM   14  C   UNK N   1      31.155  15.730   4.575  0.00  0.00     0.016 A 
HETATM   15  C   UNK N   1      32.063  16.907   6.500  0.00  0.00     0.079 A 
HETATM   16  C   UNK N   1      32.245  15.984   5.435  0.00  0.00    -0.031 A 
ENDROOT
BRANCH   3  17
HETATM   17  C   UNK N   1      26.097  19.833   3.556  0.00  0.00     0.148 C 
HETATM   18  O   UNK N   1      26.903  20.624   3.106  0.00  0.00    -0.649 OA
BRANCH  17  19
HETATM   19  O   UNK N   1      24.897  19.692   2.949  0.00  0.00    -0.776 OA
HETATM   20  H   UNK N   1      24.060  19.932   2.603  0.00  0.00     0.167 HD
ENDBRANCH  17  19
ENDBRANCH   3  17
BRANCH  15  21
HETATM   21  S   UNK N   1      33.293  17.255   7.761  0.00  0.00     0.130 S 
HETATM   22  O   UNK N   1      34.536  18.037   7.306  0.00  0.00    -0.598 OA
HETATM   23  O   UNK N   1      32.559  18.510   8.241  0.00  0.00    -0.598 OA
BRANCH  21  24
HETATM   24  O   UNK N   1      33.530  16.661   9.354  0.00  0.00    -0.292 OA
HETATM   25  H   UNK N   1      32.924  16.918  10.066  0.00  0.00     0.232 HD
ENDBRANCH  21  24
ENDBRANCH  15  21
BRANCH  16  26
HETATM   26  C   UNK N   1      33.567  15.268   5.210  0.00  0.00     0.012 C 
HETATM   27  C   UNK N   1      33.874  15.006   3.740  0.00  0.00     0.015 C 
HETATM   28  C   UNK N   1      33.609  13.932   5.927  0.00  0.00     0.015 C 
ENDBRANCH  16  26
TORSDOF 5
ENDMDL
MODEL 7
REMARK VINA RESULT:      -6.5     11.514     13.408
REMARK  5 active torsions:
REMARK  status: ('A' for Active; 'I' for Inactive)
REMARK    1  A    between atoms: S_1  and  O_4 
REMARK    2  A    between atoms: S_1  and  C_22 
REMARK    3  A    between atoms: O_2  and  C_19 
REMARK    4  A    between atoms: C_9  and  C_19 
REMARK    5  A    between atoms: C_23  and  C_24 
ROOT
HETATM    1  C   UNK N   1      27.090  26.670  -5.060  0.00  0.00     0.017 C 
HETATM    2  C   UNK N   1      27.750  25.385  -4.466  0.00  0.00    -0.011 C 
HETATM    3  C   UNK N   1      27.141  27.866  -4.047  0.00  0.00     0.046 C 
HETATM    4  C   UNK N   1      29.239  25.658  -4.131  0.00  0.00     0.014 C 
HETATM    5  C   UNK N   1      25.654  26.442  -5.613  0.00  0.00     0.011 C 
HETATM    6  C   UNK N   1      28.492  27.929  -3.310  0.00  0.00     0.020 C 
HETATM    7  C   UNK N   1      29.603  27.147  -4.006  0.00  0.00     0.002 C 
HETATM    8  C   UNK N   1      27.597  24.261  -5.469  0.00  0.00    -0.042 A 
HETATM    9  C   UNK N   1      25.214  24.970  -5.728  0.00  0.00     0.039 C 
HETATM   10  C   UNK N   1      27.063  24.932  -3.182  0.00  0.00     0.021 C 
HETATM   11  C   UNK N   1      26.352  24.060  -6.076  0.00  0.00    -0.050 A 
HETATM   12  C   UNK N   1      26.082  27.691  -2.951  0.00  0.00     0.027 C 
HETATM   13  C   UNK N   1      28.654  23.412  -5.787  0.00  0.00     0.034 A 
HETATM   14  C   UNK N   1      26.176  23.019  -6.993  0.00  0.00     0.016 A 
HETATM   15  C   UNK N   1      28.492  22.350  -6.677  0.00  0.00     0.079 A 
HETATM   16  C   UNK N   1      27.233  22.137  -7.300  0.00  0.00    -0.031 A 
ENDROOT
BRANCH   3  17
HETATM   17  C   UNK N   1      26.908  29.181  -4.767  0.00  0.00     0.148 C 
HETATM   18  O   UNK N   1      27.438  29.417  -5.835  0.00  0.00    -0.649 OA
BRANCH  17  19
HETATM   19  O   UNK N   1      26.086  30.103  -4.217  0.00  0.00    -0.776 OA
HETATM   20  H   UNK N   1      25.374  30.709  -4.150  0.00  0.00     0.167 HD
ENDBRANCH  17  19
ENDBRANCH   3  17
BRANCH  15  21
HETATM   21  S   UNK N   1      29.907  21.259  -6.851  0.00  0.00     0.130 S 
HETATM   22  O   UNK N   1      31.270  21.936  -7.065  0.00  0.00    -0.598 OA
HETATM   23  O   UNK N   1      30.096  21.135  -5.337  0.00  0.00    -0.598 OA
BRANCH  21  24
HETATM   24  O   UNK N   1      30.050  19.567  -7.110  0.00  0.00    -0.292 OA
HETATM   25  H   UNK N   1      30.200  18.970  -6.360  0.00  0.00     0.232 HD
ENDBRANCH  21  24
ENDBRANCH  15  21
BRANCH  16  26
HETATM   26  C   UNK N   1      27.002  20.991  -8.272  0.00  0.00     0.012 C 
HETATM   27  C   UNK N   1      27.335  21.343  -9.717  0.00  0.00     0.015 C 
HETATM   28  C   UNK N   1      25.562  20.514  -8.241  0.00  0.00     0.015 C 
ENDBRANCH  16  26
TORSDOF 5
ENDMDL
MODEL 8
REMARK VINA RESULT:      -6.5     10.096     14.580
REMARK  5 active torsions:
REMARK  status: ('A' for Active; 'I' for Inactive)
REMARK    1  A    between atoms: S_1  and  O_4 
REMARK    2  A    between atoms: S_1  and  C_22 
REMARK    3  A    between atoms: O_2  and  C_19 
REMARK    4  A    between atoms: C_9  and  C_19 
REMARK    5  A    between atoms: C_23  and  C_24 
ROOT
HETATM    1  C   UNK N   1      34.052  15.405   9.620  0.00  0.00     0.017 C 
HETATM    2  C   UNK N   1      34.693  13.994   9.801  0.00  0.00    -0.011 C 
HETATM    3  C   UNK N   1      33.677  15.682   8.123  0.00  0.00     0.046 C 
HETATM    4  C   UNK N   1      33.697  12.894   9.351  0.00  0.00     0.014 C 
HETATM    5  C   UNK N   1      34.894  16.563  10.229  0.00  0.00     0.011 C 
HETATM    6  C   UNK N   1      33.071  14.437   7.449  0.00  0.00     0.020 C 
HETATM    7  C   UNK N   1      32.563  13.393   8.441  0.00  0.00     0.002 C 
HETATM    8  C   UNK N   1      35.092  13.831  11.252  0.00  0.00    -0.042 A 
HETATM    9  C   UNK N   1      36.071  16.127  11.123  0.00  0.00     0.039 C 
HETATM   10  C   UNK N   1      35.963  13.834   8.971  0.00  0.00     0.021 C 
HETATM   11  C   UNK N   1      35.771  14.875  11.889  0.00  0.00    -0.050 A 
HETATM   12  C   UNK N   1      34.930  16.023   7.307  0.00  0.00     0.027 C 
HETATM   13  C   UNK N   1      34.819  12.664  11.962  0.00  0.00     0.034 A 
HETATM   14  C   UNK N   1      36.168  14.747  13.224  0.00  0.00     0.016 A 
HETATM   15  C   UNK N   1      35.230  12.504  13.286  0.00  0.00     0.079 A 
HETATM   16  C   UNK N   1      35.920  13.558  13.943  0.00  0.00    -0.031 A 
ENDROOT
BRANCH   3  17
HETATM   17  C   UNK N   1      32.686  16.828   8.027  0.00  0.00     0.148 C 
HETATM   18  O   UNK N   1      32.784  17.676   7.162  0.00  0.00    -0.649 OA
BRANCH  17  19
HETATM   19  O   UNK N   1      31.667  16.900   8.913  0.00  0.00    -0.776 OA
HETATM   20  H   UNK N   1      30.921  17.249   9.358  0.00  0.00     0.167 HD
ENDBRANCH  17  19
ENDBRANCH   3  17
BRANCH  15  21
HETATM   21  S   UNK N   1      34.942  10.882  13.999  0.00  0.00     0.130 S 
HETATM   22  O   UNK N   1      33.523  10.609  14.523  0.00  0.00    -0.598 OA
HETATM   23  O   UNK N   1      34.667  10.244  12.635  0.00  0.00    -0.598 OA
BRANCH  21  24
HETATM   24  O   UNK N   1      35.996   9.619  14.491  0.00  0.00    -0.292 OA
HETATM   25  H   UNK N   1      36.941   9.663  14.277  0.00  0.00     0.232 HD
ENDBRANCH  21  24
ENDBRANCH  15  21
BRANCH  16  26
HETATM   26  C   UNK N   1      36.396  13.432  15.381  0.00  0.00     0.012 C 
HETATM   27  C   UNK N   1      35.263  13.240  16.382  0.00  0.00     0.015 C 
HETATM   28  C   UNK N   1      37.184  14.652  15.818  0.00  0.00     0.015 C 
ENDBRANCH  16  26
TORSDOF 5
ENDMDL
MODEL 9
REMARK VINA RESULT:      -6.4      9.135     12.797
REMARK  5 active torsions:
REMARK  status: ('A' for Active; 'I' for Inactive)
REMARK    1  A    between atoms: S_1  and  O_4 
REMARK    2  A    between atoms: S_1  and  C_22 
REMARK    3  A    between atoms: O_2  and  C_19 
REMARK    4  A    between atoms: C_9  and  C_19 
REMARK    5  A    between atoms: C_23  and  C_24 
ROOT
HETATM    1  C   UNK N   1      35.072  12.847  11.680  0.00  0.00     0.017 C 
HETATM    2  C   UNK N   1      35.916  13.886  10.877  0.00  0.00    -0.011 C 
HETATM    3  C   UNK N   1      35.853  12.312  12.931  0.00  0.00     0.046 C 
HETATM    4  C   UNK N   1      36.261  15.101  11.775  0.00  0.00     0.014 C 
HETATM    5  C   UNK N   1      34.508  11.686  10.812  0.00  0.00     0.011 C 
HETATM    6  C   UNK N   1      36.624  13.439  13.644  0.00  0.00     0.020 C 
HETATM    7  C   UNK N   1      36.130  14.838  13.284  0.00  0.00     0.002 C 
HETATM    8  C   UNK N   1      35.128  14.298   9.651  0.00  0.00    -0.042 A 
HETATM    9  C   UNK N   1      34.643  11.873   9.288  0.00  0.00     0.039 C 
HETATM   10  C   UNK N   1      37.231  13.291  10.380  0.00  0.00     0.021 C 
HETATM   11  C   UNK N   1      34.514  13.308   8.876  0.00  0.00    -0.050 A 
HETATM   12  C   UNK N   1      36.915  11.290  12.508  0.00  0.00     0.027 C 
HETATM   13  C   UNK N   1      35.015  15.632   9.265  0.00  0.00     0.034 A 
HETATM   14  C   UNK N   1      33.795  13.656   7.729  0.00  0.00     0.016 A 
HETATM   15  C   UNK N   1      34.326  15.998   8.109  0.00  0.00     0.079 A 
HETATM   16  C   UNK N   1      33.698  15.002   7.315  0.00  0.00    -0.031 A 
ENDROOT
BRANCH   3  17
HETATM   17  C   UNK N   1      34.897  11.666  13.916  0.00  0.00     0.148 C 
HETATM   18  O   UNK N   1      34.190  12.337  14.642  0.00  0.00    -0.649 OA
BRANCH  17  19
HETATM   19  O   UNK N   1      34.820  10.317  13.980  0.00  0.00    -0.776 OA
HETATM   20  H   UNK N   1      34.474   9.456  13.855  0.00  0.00     0.167 HD
ENDBRANCH  17  19
ENDBRANCH   3  17
BRANCH  15  21
HETATM   21  S   UNK N   1      34.414  17.737   7.671  0.00  0.00     0.130 S 
HETATM   22  O   UNK N   1      34.095  18.090   6.209  0.00  0.00    -0.598 OA
HETATM   23  O   UNK N   1      32.987  18.012   8.151  0.00  0.00    -0.598 OA
BRANCH  21  24
HETATM   24  O   UNK N   1      35.057  19.112   8.474  0.00  0.00    -0.292 OA
HETATM   25  H   UNK N   1      35.469  19.018   9.347  0.00  0.00     0.232 HD
ENDBRANCH  21  24
ENDBRANCH  15  21
BRANCH  16  26
HETATM   26  C   UNK N   1      32.941  15.348   6.043  0.00  0.00     0.012 C 
HETATM   27  C   UNK N   1      31.504  14.839   6.034  0.00  0.00     0.015 C 
HETATM   28  C   UNK N   1      33.629  14.786   4.813  0.00  0.00     0.015 C 
ENDBRANCH  16  26
TORSDOF 5
ENDMDL
