MODEL 1
REMARK VINA RESULT:      -4.7      0.000      0.000
REMARK  5 active torsions:
REMARK  status: ('A' for Active; 'I' for Inactive)
REMARK    1  A    between atoms: S_1  and  O_2 
REMARK    2  A    between atoms: S_1  and  C_8 
REMARK    3  A    between atoms: N_6  and  C_9 
REMARK       I    between atoms: N_6  and  C_10 
REMARK    4  A    between atoms: C_7  and  C_8 
REMARK    5  A    between atoms: C_7  and  C_9 
ROOT
HETATM    1  C   UNK N   1      28.396  24.131  -3.725  0.00  0.00     0.036 C 
ENDROOT
BRANCH   1   2
HETATM    2  C   UNK N   1      28.976  23.206  -2.665  0.00  0.00     0.157 C 
BRANCH   2   3
HETATM    3  S   UNK N   1      30.779  23.024  -2.864  0.00  0.00     0.094 S 
HETATM    4  O   UNK N   1      30.442  23.025  -1.365  0.00  0.00    -0.601 OA
HETATM    5  O   UNK N   1      30.148  21.684  -3.275  0.00  0.00    -0.601 OA
BRANCH   3   6
HETATM    6  O   UNK N   1      31.888  21.875  -2.237  0.00  0.00    -0.296 OA
HETATM    7  H   UNK N   1      31.786  21.442  -1.375  0.00  0.00     0.232 HD
ENDBRANCH   3   6
ENDBRANCH   2   3
ENDBRANCH   1   2
BRANCH   1   8
HETATM    8  C   UNK N   1      26.908  24.301  -3.464  0.00  0.00     0.123 C 
BRANCH   8   9
HETATM    9  N   UNK N   1      26.392  25.499  -4.085  0.00  0.00    -0.361 N 
HETATM   10  C   UNK N   1      25.558  25.474  -5.153  0.00  0.00     0.213 C 
HETATM   11  O   UNK N   1      25.165  24.412  -5.615  0.00  0.00    -0.274 OA
HETATM   12  C   UNK N   1      25.125  26.752  -5.779  0.00  0.00     0.117 C 
HETATM   13  H   UNK N   1      26.660  26.373  -3.717  0.00  0.00     0.162 HD
ENDBRANCH   8   9
ENDBRANCH   1   8
TORSDOF 5
ENDMDL
MODEL 2
REMARK VINA RESULT:      -4.5     13.821     14.335
REMARK  5 active torsions:
REMARK  status: ('A' for Active; 'I' for Inactive)
REMARK    1  A    between atoms: S_1  and  O_2 
REMARK    2  A    between atoms: S_1  and  C_8 
REMARK    3  A    between atoms: N_6  and  C_9 
REMARK       I    between atoms: N_6  and  C_10 
REMARK    4  A    between atoms: C_7  and  C_8 
REMARK    5  A    between atoms: C_7  and  C_9 
ROOT
HETATM    1  C   UNK N   1      32.194  16.045   8.100  0.00  0.00     0.036 C 
ENDROOT
BRANCH   1   2
HETATM    2  C   UNK N   1      33.659  16.448   8.014  0.00  0.00     0.157 C 
BRANCH   2   3
HETATM    3  S   UNK N   1      33.865  18.242   8.265  0.00  0.00     0.094 S 
HETATM    4  O   UNK N   1      34.669  17.494   9.340  0.00  0.00    -0.601 OA
HETATM    5  O   UNK N   1      34.683  17.870   7.018  0.00  0.00    -0.601 OA
BRANCH   3   6
HETATM    6  O   UNK N   1      35.266  19.221   8.425  0.00  0.00    -0.296 OA
HETATM    7  H   UNK N   1      35.491  19.711   9.230  0.00  0.00     0.232 HD
ENDBRANCH   3   6
ENDBRANCH   2   3
ENDBRANCH   1   2
BRANCH   1   8
HETATM    8  C   UNK N   1      31.361  17.064   7.340  0.00  0.00     0.123 C 
BRANCH   8   9
HETATM    9  N   UNK N   1      29.998  17.099   7.817  0.00  0.00    -0.361 N 
HETATM   10  C   UNK N   1      29.561  17.999   8.730  0.00  0.00     0.213 C 
HETATM   11  O   UNK N   1      30.309  18.865   9.163  0.00  0.00    -0.274 OA
HETATM   12  C   UNK N   1      28.159  17.927   9.223  0.00  0.00     0.117 C 
HETATM   13  H   UNK N   1      29.358  16.438   7.464  0.00  0.00     0.162 HD
ENDBRANCH   8   9
ENDBRANCH   1   8
TORSDOF 5
ENDMDL
MODEL 3
REMARK VINA RESULT:      -4.4     14.476     15.742
REMARK  5 active torsions:
REMARK  status: ('A' for Active; 'I' for Inactive)
REMARK    1  A    between atoms: S_1  and  O_2 
REMARK    2  A    between atoms: S_1  and  C_8 
REMARK    3  A    between atoms: N_6  and  C_9 
REMARK       I    between atoms: N_6  and  C_10 
REMARK    4  A    between atoms: C_7  and  C_8 
REMARK    5  A    between atoms: C_7  and  C_9 
ROOT
HETATM    1  C   UNK N   1      33.356  15.518   8.748  0.00  0.00     0.036 C 
ENDROOT
BRANCH   1   2
HETATM    2  C   UNK N   1      34.161  16.702   9.263  0.00  0.00     0.157 C 
BRANCH   2   3
HETATM    3  S   UNK N   1      35.210  16.222  10.674  0.00  0.00     0.094 S 
HETATM    4  O   UNK N   1      35.643  15.420   9.437  0.00  0.00    -0.601 OA
HETATM    5  O   UNK N   1      35.658  17.629  10.244  0.00  0.00    -0.601 OA
BRANCH   3   6
HETATM    6  O   UNK N   1      36.915  16.151  10.859  0.00  0.00    -0.296 OA
HETATM    7  H   UNK N   1      37.511  16.887  10.649  0.00  0.00     0.232 HD
ENDBRANCH   3   6
ENDBRANCH   2   3
ENDBRANCH   1   2
BRANCH   1   8
HETATM    8  C   UNK N   1      32.039  16.028   8.187  0.00  0.00     0.123 C 
BRANCH   8   9
HETATM    9  N   UNK N   1      31.411  16.974   9.080  0.00  0.00    -0.361 N 
HETATM   10  C   UNK N   1      30.292  17.664   8.752  0.00  0.00     0.213 C 
HETATM   11  O   UNK N   1      29.732  17.476   7.680  0.00  0.00    -0.274 OA
HETATM   12  C   UNK N   1      29.744  18.672   9.699  0.00  0.00     0.117 C 
HETATM   13  H   UNK N   1      31.815  17.126   9.965  0.00  0.00     0.162 HD
ENDBRANCH   8   9
ENDBRANCH   1   8
TORSDOF 5
ENDMDL
MODEL 4
REMARK VINA RESULT:      -4.4     13.339     15.199
REMARK  5 active torsions:
REMARK  status: ('A' for Active; 'I' for Inactive)
REMARK    1  A    between atoms: S_1  and  O_2 
REMARK    2  A    between atoms: S_1  and  C_8 
REMARK    3  A    between atoms: N_6  and  C_9 
REMARK       I    between atoms: N_6  and  C_10 
REMARK    4  A    between atoms: C_7  and  C_8 
REMARK    5  A    between atoms: C_7  and  C_9 
ROOT
HETATM    1  C   UNK N   1      33.048  16.328   8.814  0.00  0.00     0.036 C 
ENDROOT
BRANCH   1   2
HETATM    2  C   UNK N   1      34.563  16.457   8.862  0.00  0.00     0.157 C 
BRANCH   2   3
HETATM    3  S   UNK N   1      35.207  16.060  10.520  0.00  0.00     0.094 S 
HETATM    4  O   UNK N   1      36.008  15.270   9.473  0.00  0.00    -0.601 OA
HETATM    5  O   UNK N   1      35.677  17.486  10.190  0.00  0.00    -0.601 OA
BRANCH   3   6
HETATM    6  O   UNK N   1      36.795  16.095  11.169  0.00  0.00    -0.296 OA
HETATM    7  H   UNK N   1      37.205  16.888  11.547  0.00  0.00     0.232 HD
ENDBRANCH   3   6
ENDBRANCH   2   3
ENDBRANCH   1   2
BRANCH   1   8
HETATM    8  C   UNK N   1      32.476  17.538   8.093  0.00  0.00     0.123 C 
BRANCH   8   9
HETATM    9  N   UNK N   1      32.169  17.239   6.714  0.00  0.00    -0.361 N 
HETATM   10  C   UNK N   1      33.027  17.494   5.697  0.00  0.00     0.213 C 
HETATM   11  O   UNK N   1      34.139  17.956   5.918  0.00  0.00    -0.274 OA
HETATM   12  C   UNK N   1      32.611  17.221   4.295  0.00  0.00     0.117 C 
HETATM   13  H   UNK N   1      31.296  16.835   6.502  0.00  0.00     0.162 HD
ENDBRANCH   8   9
ENDBRANCH   1   8
TORSDOF 5
ENDMDL
MODEL 5
REMARK VINA RESULT:      -4.4      9.538     10.976
REMARK  5 active torsions:
REMARK  status: ('A' for Active; 'I' for Inactive)
REMARK    1  A    between atoms: S_1  and  O_2 
REMARK    2  A    between atoms: S_1  and  C_8 
REMARK    3  A    between atoms: N_6  and  C_9 
REMARK       I    between atoms: N_6  and  C_10 
REMARK    4  A    between atoms: C_7  and  C_8 
REMARK    5  A    between atoms: C_7  and  C_9 
ROOT
HETATM    1  C   UNK N   1      24.338  19.817   3.438  0.00  0.00     0.036 C 
ENDROOT
BRANCH   1   2
HETATM    2  C   UNK N   1      22.960  19.201   3.636  0.00  0.00     0.157 C 
BRANCH   2   3
HETATM    3  S   UNK N   1      21.697  20.084   2.664  0.00  0.00     0.094 S 
HETATM    4  O   UNK N   1      21.167  19.871   4.090  0.00  0.00    -0.601 OA
HETATM    5  O   UNK N   1      22.824  21.091   2.950  0.00  0.00    -0.601 OA
BRANCH   3   6
HETATM    6  O   UNK N   1      20.839  21.541   2.959  0.00  0.00    -0.296 OA
HETATM    7  H   UNK N   1      20.953  22.349   2.435  0.00  0.00     0.232 HD
ENDBRANCH   3   6
ENDBRANCH   2   3
ENDBRANCH   1   2
BRANCH   1   8
HETATM    8  C   UNK N   1      25.295  19.210   4.451  0.00  0.00     0.123 C 
BRANCH   8   9
HETATM    9  N   UNK N   1      25.807  20.206   5.363  0.00  0.00    -0.361 N 
HETATM   10  C   UNK N   1      27.108  20.582   5.387  0.00  0.00     0.213 C 
HETATM   11  O   UNK N   1      27.910  20.114   4.590  0.00  0.00    -0.274 OA
HETATM   12  C   UNK N   1      27.572  21.566   6.402  0.00  0.00     0.117 C 
HETATM   13  H   UNK N   1      25.183  20.629   5.996  0.00  0.00     0.162 HD
ENDBRANCH   8   9
ENDBRANCH   1   8
TORSDOF 5
ENDMDL
MODEL 6
REMARK VINA RESULT:      -4.3     16.557     18.326
REMARK  5 active torsions:
REMARK  status: ('A' for Active; 'I' for Inactive)
REMARK    1  A    between atoms: S_1  and  O_2 
REMARK    2  A    between atoms: S_1  and  C_8 
REMARK    3  A    between atoms: N_6  and  C_9 
REMARK       I    between atoms: N_6  and  C_10 
REMARK    4  A    between atoms: C_7  and  C_8 
REMARK    5  A    between atoms: C_7  and  C_9 
ROOT
HETATM    1  C   UNK N   1      34.981  15.522  11.398  0.00  0.00     0.036 C 
ENDROOT
BRANCH   1   2
HETATM    2  C   UNK N   1      36.263  14.763  11.708  0.00  0.00     0.157 C 
BRANCH   2   3
HETATM    3  S   UNK N   1      35.985  13.496  12.989  0.00  0.00     0.094 S 
HETATM    4  O   UNK N   1      36.353  14.822  13.673  0.00  0.00    -0.601 OA
HETATM    5  O   UNK N   1      34.605  13.867  12.422  0.00  0.00    -0.601 OA
BRANCH   3   6
HETATM    6  O   UNK N   1      34.985  13.481  14.384  0.00  0.00    -0.296 OA
HETATM    7  H   UNK N   1      34.152  12.987  14.445  0.00  0.00     0.232 HD
ENDBRANCH   3   6
ENDBRANCH   2   3
ENDBRANCH   1   2
BRANCH   1   8
HETATM    8  C   UNK N   1      35.328  16.756  10.580  0.00  0.00     0.123 C 
BRANCH   8   9
HETATM    9  N   UNK N   1      34.455  16.902   9.440  0.00  0.00    -0.361 N 
HETATM   10  C   UNK N   1      34.498  17.974   8.613  0.00  0.00     0.213 C 
HETATM   11  O   UNK N   1      35.327  18.858   8.778  0.00  0.00    -0.274 OA
HETATM   12  C   UNK N   1      33.519  18.085   7.498  0.00  0.00     0.117 C 
HETATM   13  H   UNK N   1      33.797  16.191   9.256  0.00  0.00     0.162 HD
ENDBRANCH   8   9
ENDBRANCH   1   8
TORSDOF 5
ENDMDL
MODEL 7
REMARK VINA RESULT:      -4.3     11.096     11.910
REMARK  5 active torsions:
REMARK  status: ('A' for Active; 'I' for Inactive)
REMARK    1  A    between atoms: S_1  and  O_2 
REMARK    2  A    between atoms: S_1  and  C_8 
REMARK    3  A    between atoms: N_6  and  C_9 
REMARK       I    between atoms: N_6  and  C_10 
REMARK    4  A    between atoms: C_7  and  C_8 
REMARK    5  A    between atoms: C_7  and  C_9 
ROOT
HETATM    1  C   UNK N   1      19.937  18.241   2.965  0.00  0.00     0.036 C 
ENDROOT
BRANCH   1   2
HETATM    2  C   UNK N   1      21.092  19.141   2.550  0.00  0.00     0.157 C 
BRANCH   2   3
HETATM    3  S   UNK N   1      20.528  20.460   1.425  0.00  0.00     0.094 S 
HETATM    4  O   UNK N   1      22.008  20.695   1.765  0.00  0.00    -0.601 OA
HETATM    5  O   UNK N   1      20.651  19.180   0.583  0.00  0.00    -0.601 OA
BRANCH   3   6
HETATM    6  O   UNK N   1      21.158  21.043  -0.061  0.00  0.00    -0.296 OA
HETATM    7  H   UNK N   1      21.379  20.472  -0.813  0.00  0.00     0.232 HD
ENDBRANCH   3   6
ENDBRANCH   2   3
ENDBRANCH   1   2
BRANCH   1   8
HETATM    8  C   UNK N   1      20.459  16.824   3.139  0.00  0.00     0.123 C 
BRANCH   8   9
HETATM    9  N   UNK N   1      19.636  15.863   2.442  0.00  0.00    -0.361 N 
HETATM   10  C   UNK N   1      19.928  15.409   1.200  0.00  0.00     0.213 C 
HETATM   11  O   UNK N   1      20.947  15.768   0.625  0.00  0.00    -0.274 OA
HETATM   12  C   UNK N   1      18.994  14.472   0.520  0.00  0.00     0.117 C 
HETATM   13  H   UNK N   1      18.825  15.525   2.888  0.00  0.00     0.162 HD
ENDBRANCH   8   9
ENDBRANCH   1   8
TORSDOF 5
ENDMDL
MODEL 8
REMARK VINA RESULT:      -4.3     18.508     20.695
REMARK  5 active torsions:
REMARK  status: ('A' for Active; 'I' for Inactive)
REMARK    1  A    between atoms: S_1  and  O_2 
REMARK    2  A    between atoms: S_1  and  C_8 
REMARK    3  A    between atoms: N_6  and  C_9 
REMARK       I    between atoms: N_6  and  C_10 
REMARK    4  A    between atoms: C_7  and  C_8 
REMARK    5  A    between atoms: C_7  and  C_9 
ROOT
HETATM    1  C   UNK N   1      36.073  13.955  11.660  0.00  0.00     0.036 C 
ENDROOT
BRANCH   1   2
HETATM    2  C   UNK N   1      35.993  15.465  11.489  0.00  0.00     0.157 C 
BRANCH   2   3
HETATM    3  S   UNK N   1      35.194  15.909   9.912  0.00  0.00     0.094 S 
HETATM    4  O   UNK N   1      34.132  15.335  10.863  0.00  0.00    -0.601 OA
HETATM    5  O   UNK N   1      35.512  17.227  10.637  0.00  0.00    -0.601 OA
BRANCH   3   6
HETATM    6  O   UNK N   1      33.822  16.876   9.557  0.00  0.00    -0.296 OA
HETATM    7  H   UNK N   1      32.992  16.838  10.058  0.00  0.00     0.232 HD
ENDBRANCH   3   6
ENDBRANCH   2   3
ENDBRANCH   1   2
BRANCH   1   8
HETATM    8  C   UNK N   1      36.104  13.631  13.145  0.00  0.00     0.123 C 
BRANCH   8   9
HETATM    9  N   UNK N   1      36.729  14.686  13.907  0.00  0.00    -0.361 N 
HETATM   10  C   UNK N   1      36.881  14.632  15.252  0.00  0.00     0.213 C 
HETATM   11  O   UNK N   1      36.526  13.645  15.882  0.00  0.00    -0.274 OA
HETATM   12  C   UNK N   1      37.473  15.789  15.975  0.00  0.00     0.117 C 
HETATM   13  H   UNK N   1      37.059  15.482  13.428  0.00  0.00     0.162 HD
ENDBRANCH   8   9
ENDBRANCH   1   8
TORSDOF 5
ENDMDL
MODEL 9
REMARK VINA RESULT:      -4.3     12.621     14.164
REMARK  5 active torsions:
REMARK  status: ('A' for Active; 'I' for Inactive)
REMARK    1  A    between atoms: S_1  and  O_2 
REMARK    2  A    between atoms: S_1  and  C_8 
REMARK    3  A    between atoms: N_6  and  C_9 
REMARK       I    between atoms: N_6  and  C_10 
REMARK    4  A    between atoms: C_7  and  C_8 
REMARK    5  A    between atoms: C_7  and  C_9 
ROOT
HETATM    1  C   UNK N   1      31.258  16.427   8.566  0.00  0.00     0.036 C 
ENDROOT
BRANCH   1   2
HETATM    2  C   UNK N   1      30.576  17.738   8.930  0.00  0.00     0.157 C 
BRANCH   2   3
HETATM    3  S   UNK N   1      28.841  17.467   9.415  0.00  0.00     0.094 S 
HETATM    4  O   UNK N   1      29.343  18.764  10.069  0.00  0.00    -0.601 OA
HETATM    5  O   UNK N   1      28.828  17.902   7.941  0.00  0.00    -0.601 OA
BRANCH   3   6
HETATM    6  O   UNK N   1      27.458  18.479   9.331  0.00  0.00    -0.296 OA
HETATM    7  H   UNK N   1      27.179  19.070  10.048  0.00  0.00     0.232 HD
ENDBRANCH   3   6
ENDBRANCH   2   3
ENDBRANCH   1   2
BRANCH   1   8
HETATM    8  C   UNK N   1      32.551  16.736   7.829  0.00  0.00     0.123 C 
BRANCH   8   9
HETATM    9  N   UNK N   1      32.349  16.796   6.400  0.00  0.00    -0.361 N 
HETATM   10  C   UNK N   1      33.211  17.418   5.561  0.00  0.00     0.213 C 
HETATM   11  O   UNK N   1      34.240  17.927   5.985  0.00  0.00    -0.274 OA
HETATM   12  C   UNK N   1      32.898  17.497   4.109  0.00  0.00     0.117 C 
HETATM   13  H   UNK N   1      31.548  16.367   6.020  0.00  0.00     0.162 HD
ENDBRANCH   8   9
ENDBRANCH   1   8
TORSDOF 5
ENDMDL
