REMARK  3 active torsions:
REMARK  status: ('A' for Active; 'I' for Inactive)
REMARK    1  A    between atoms: S_1  and  O_4 
REMARK    2  A    between atoms: S_1  and  N_5 
REMARK    3  A    between atoms: O_4  and  C_6 
ROOT
HETATM    1  C   UNK N   1       2.687   0.467   0.016  0.00  0.00     0.093 A 
HETATM    2  C   UNK N   1       2.030   1.664  -0.288  0.00  0.00     0.039 A 
HETATM    3  C   UNK N   1       0.636   1.699  -0.393  0.00  0.00     0.017 A 
HETATM    4  C   UNK N   1      -0.116   0.526  -0.212  0.00  0.00     0.005 A 
HETATM    5  C   UNK N   1       0.546  -0.678   0.106  0.00  0.00     0.093 A 
HETATM    6  C   UNK N   1       1.936  -0.699   0.226  0.00  0.00     0.076 A 
HETATM    7  C   UNK N   1      -1.513   0.512  -0.356  0.00  0.00    -0.033 A 
HETATM    8  C   UNK N   1      -2.198  -0.711  -0.194  0.00  0.00     0.025 A 
HETATM    9  C   UNK N   1      -1.459  -1.863   0.122  0.00  0.00     0.295 A 
HETATM   10  C   UNK N   1      -2.253   1.775  -0.708  0.00  0.00     0.040 C 
HETATM   11  C   UNK N   1      -3.688  -0.809  -0.376  0.00  0.00     0.045 C 
HETATM   12  O   UNK N   1      -2.025  -2.935   0.264  0.00  0.00    -0.259 OA
HETATM   13  O   UNK N   1      -0.139  -1.805   0.263  0.00  0.00    -0.274 OA
HETATM   14  C   UNK N   1      -4.440   0.001   0.668  0.00  0.00     0.005 C 
HETATM   15  C   UNK N   1      -4.551   1.459   0.250  0.00  0.00     0.001 C 
HETATM   16  C   UNK N   1      -3.221   2.184   0.393  0.00  0.00     0.005 C 
ENDROOT
BRANCH   1  17
HETATM   17  O   UNK N   1       4.046   0.441   0.054  0.00  0.00    -0.217 OA
BRANCH  17  18
HETATM   18  S   UNK N   1       4.968  -0.896   0.598  0.00  0.00     0.360 S 
HETATM   19  O   UNK N   1       6.292  -1.125  -0.145  0.00  0.00    -0.176 OA
HETATM   20  O   UNK N   1       5.788   0.382   0.837  0.00  0.00    -0.176 OA
BRANCH  18  21
HETATM   21  N   UNK N   1       4.640  -1.120  -1.126  0.00  0.00    -0.305 N 
HETATM   22  H   UNK N   1       4.433  -1.021  -2.120  0.00  0.00     0.171 HD
HETATM   23  H   UNK N   1       4.717  -2.137  -1.126  0.00  0.00     0.171 HD
ENDBRANCH  18  21
ENDBRANCH  17  18
ENDBRANCH   1  17
TORSDOF 3
