MODEL 1
REMARK VINA RESULT:      -7.2      0.000      0.000
REMARK  3 active torsions:
REMARK  status: ('A' for Active; 'I' for Inactive)
REMARK    1  A    between atoms: S_1  and  O_4 
REMARK    2  A    between atoms: S_1  and  N_5 
REMARK    3  A    between atoms: O_4  and  C_6 
ROOT
HETATM    1  C   UNK N   1      35.443  15.358   9.992  0.00  0.00     0.093 A 
HETATM    2  C   UNK N   1      34.923  14.074   9.800  0.00  0.00     0.039 A 
HETATM    3  C   UNK N   1      34.911  13.151  10.851  0.00  0.00     0.017 A 
HETATM    4  C   UNK N   1      35.439  13.502  12.105  0.00  0.00     0.005 A 
HETATM    5  C   UNK N   1      35.952  14.801  12.301  0.00  0.00     0.093 A 
HETATM    6  C   UNK N   1      35.944  15.720  11.251  0.00  0.00     0.076 A 
HETATM    7  C   UNK N   1      35.488  12.588  13.171  0.00  0.00    -0.033 A 
HETATM    8  C   UNK N   1      36.065  13.000  14.391  0.00  0.00     0.025 A 
HETATM    9  C   UNK N   1      36.552  14.313  14.498  0.00  0.00     0.295 A 
HETATM   10  C   UNK N   1      34.961  11.188  12.995  0.00  0.00     0.040 C 
HETATM   11  C   UNK N   1      36.189  12.061  15.559  0.00  0.00     0.045 C 
HETATM   12  O   UNK N   1      37.060  14.695  15.540  0.00  0.00    -0.259 OA
HETATM   13  O   UNK N   1      36.475  15.152  13.471  0.00  0.00    -0.274 OA
HETATM   14  C   UNK N   1      34.830  11.640  16.094  0.00  0.00     0.005 C 
HETATM   15  C   UNK N   1      34.271  10.470  15.299  0.00  0.00     0.001 C 
HETATM   16  C   UNK N   1      33.788  10.909  13.924  0.00  0.00     0.005 C 
ENDROOT
BRANCH   1  17
HETATM   17  O   UNK N   1      35.501  16.220   8.942  0.00  0.00    -0.217 OA
BRANCH  17  18
HETATM   18  S   UNK N   1      34.131  16.779   8.079  0.00  0.00     0.360 S 
HETATM   19  O   UNK N   1      34.403  17.914   7.081  0.00  0.00    -0.176 OA
HETATM   20  O   UNK N   1      35.128  16.192   7.068  0.00  0.00    -0.176 OA
BRANCH  18  21
HETATM   21  N   UNK N   1      34.840  18.155   8.936  0.00  0.00    -0.305 N 
HETATM   22  H   UNK N   1      35.447  18.849   9.373  0.00  0.00     0.171 HD
HETATM   23  H   UNK N   1      33.957  18.597   9.193  0.00  0.00     0.171 HD
ENDBRANCH  18  21
ENDBRANCH  17  18
ENDBRANCH   1  17
TORSDOF 3
ENDMDL
MODEL 2
REMARK VINA RESULT:      -7.1      3.553      7.243
REMARK  3 active torsions:
REMARK  status: ('A' for Active; 'I' for Inactive)
REMARK    1  A    between atoms: S_1  and  O_4 
REMARK    2  A    between atoms: S_1  and  N_5 
REMARK    3  A    between atoms: O_4  and  C_6 
ROOT
HETATM    1  C   UNK N   1      35.382  14.532  11.860  0.00  0.00     0.093 A 
HETATM    2  C   UNK N   1      34.589  13.663  11.104  0.00  0.00     0.039 A 
HETATM    3  C   UNK N   1      34.037  14.084   9.890  0.00  0.00     0.017 A 
HETATM    4  C   UNK N   1      34.260  15.392   9.428  0.00  0.00     0.005 A 
HETATM    5  C   UNK N   1      35.069  16.265  10.186  0.00  0.00     0.093 A 
HETATM    6  C   UNK N   1      35.630  15.829  11.387  0.00  0.00     0.076 A 
HETATM    7  C   UNK N   1      33.684  15.866   8.238  0.00  0.00    -0.033 A 
HETATM    8  C   UNK N   1      33.924  17.203   7.856  0.00  0.00     0.025 A 
HETATM    9  C   UNK N   1      34.743  18.003   8.670  0.00  0.00     0.295 A 
HETATM   10  C   UNK N   1      32.804  14.968   7.410  0.00  0.00     0.040 C 
HETATM   11  C   UNK N   1      33.305  17.791   6.617  0.00  0.00     0.045 C 
HETATM   12  O   UNK N   1      34.964  19.164   8.366  0.00  0.00    -0.259 OA
HETATM   13  O   UNK N   1      35.280  17.512   9.782  0.00  0.00    -0.274 OA
HETATM   14  C   UNK N   1      33.810  17.110   5.355  0.00  0.00     0.005 C 
HETATM   15  C   UNK N   1      33.022  15.842   5.067  0.00  0.00     0.001 C 
HETATM   16  C   UNK N   1      33.394  14.723   6.029  0.00  0.00     0.005 C 
ENDROOT
BRANCH   1  17
HETATM   17  O   UNK N   1      35.859  14.124  13.066  0.00  0.00    -0.217 OA
BRANCH  17  18
HETATM   18  S   UNK N   1      35.656  12.544  13.696  0.00  0.00     0.360 S 
HETATM   19  O   UNK N   1      36.300  12.298  15.068  0.00  0.00    -0.176 OA
HETATM   20  O   UNK N   1      34.963  13.533  14.647  0.00  0.00    -0.176 OA
BRANCH  18  21
HETATM   21  N   UNK N   1      37.391  12.878  13.597  0.00  0.00    -0.305 N 
HETATM   22  H   UNK N   1      38.355  13.181  13.736  0.00  0.00     0.171 HD
HETATM   23  H   UNK N   1      37.552  12.384  12.719  0.00  0.00     0.171 HD
ENDBRANCH  18  21
ENDBRANCH  17  18
ENDBRANCH   1  17
TORSDOF 3
ENDMDL
MODEL 3
REMARK VINA RESULT:      -7.1      3.515      5.340
REMARK  3 active torsions:
REMARK  status: ('A' for Active; 'I' for Inactive)
REMARK    1  A    between atoms: S_1  and  O_4 
REMARK    2  A    between atoms: S_1  and  N_5 
REMARK    3  A    between atoms: O_4  and  C_6 
ROOT
HETATM    1  C   UNK N   1      35.324  12.290  14.261  0.00  0.00     0.093 A 
HETATM    2  C   UNK N   1      35.250  10.896  14.346  0.00  0.00     0.039 A 
HETATM    3  C   UNK N   1      35.163  10.267  15.592  0.00  0.00     0.017 A 
HETATM    4  C   UNK N   1      35.166  11.031  16.771  0.00  0.00     0.005 A 
HETATM    5  C   UNK N   1      35.229  12.437  16.684  0.00  0.00     0.093 A 
HETATM    6  C   UNK N   1      35.298  13.056  15.436  0.00  0.00     0.076 A 
HETATM    7  C   UNK N   1      35.127  10.433  18.041  0.00  0.00    -0.033 A 
HETATM    8  C   UNK N   1      35.170  11.262  19.182  0.00  0.00     0.025 A 
HETATM    9  C   UNK N   1      35.232  12.654  19.003  0.00  0.00     0.295 A 
HETATM   10  C   UNK N   1      35.074   8.934  18.174  0.00  0.00     0.040 C 
HETATM   11  C   UNK N   1      35.175  10.689  20.573  0.00  0.00     0.045 C 
HETATM   12  O   UNK N   1      35.274  13.396  19.972  0.00  0.00    -0.259 OA
HETATM   13  O   UNK N   1      35.253  13.182  17.784  0.00  0.00    -0.274 OA
HETATM   14  C   UNK N   1      33.882   9.955  20.887  0.00  0.00     0.005 C 
HETATM   15  C   UNK N   1      33.927   8.526  20.369  0.00  0.00     0.001 C 
HETATM   16  C   UNK N   1      33.792   8.476  18.854  0.00  0.00     0.005 C 
ENDROOT
BRANCH   1  17
HETATM   17  O   UNK N   1      35.469  12.879  13.044  0.00  0.00    -0.217 OA
BRANCH  17  18
HETATM   18  S   UNK N   1      35.916  14.517  12.815  0.00  0.00     0.360 S 
HETATM   19  O   UNK N   1      36.216  14.917  11.363  0.00  0.00    -0.176 OA
HETATM   20  O   UNK N   1      34.607  14.265  12.050  0.00  0.00    -0.176 OA
BRANCH  18  21
HETATM   21  N   UNK N   1      37.219  13.498  12.185  0.00  0.00    -0.305 N 
HETATM   22  H   UNK N   1      38.105  13.071  11.913  0.00  0.00     0.171 HD
HETATM   23  H   UNK N   1      36.617  12.786  11.771  0.00  0.00     0.171 HD
ENDBRANCH  18  21
ENDBRANCH  17  18
ENDBRANCH   1  17
TORSDOF 3
ENDMDL
MODEL 4
REMARK VINA RESULT:      -7.0     17.083     18.853
REMARK  3 active torsions:
REMARK  status: ('A' for Active; 'I' for Inactive)
REMARK    1  A    between atoms: S_1  and  O_4 
REMARK    2  A    between atoms: S_1  and  N_5 
REMARK    3  A    between atoms: O_4  and  C_6 
ROOT
HETATM    1  C   UNK N   1      34.096  19.819  -4.379  0.00  0.00     0.093 A 
HETATM    2  C   UNK N   1      33.355  19.741  -5.563  0.00  0.00     0.039 A 
HETATM    3  C   UNK N   1      32.142  20.426  -5.685  0.00  0.00     0.017 A 
HETATM    4  C   UNK N   1      31.648  21.185  -4.610  0.00  0.00     0.005 A 
HETATM    5  C   UNK N   1      32.401  21.272  -3.421  0.00  0.00     0.093 A 
HETATM    6  C   UNK N   1      33.619  20.599  -3.316  0.00  0.00     0.076 A 
HETATM    7  C   UNK N   1      30.412  21.848  -4.678  0.00  0.00    -0.033 A 
HETATM    8  C   UNK N   1      29.964  22.562  -3.546  0.00  0.00     0.025 A 
HETATM    9  C   UNK N   1      30.778  22.596  -2.402  0.00  0.00     0.295 A 
HETATM   10  C   UNK N   1      29.573  21.767  -5.926  0.00  0.00     0.040 C 
HETATM   11  C   UNK N   1      28.631  23.260  -3.532  0.00  0.00     0.045 C 
HETATM   12  O   UNK N   1      30.414  23.203  -1.408  0.00  0.00    -0.259 OA
HETATM   13  O   UNK N   1      31.948  21.966  -2.383  0.00  0.00    -0.274 OA
HETATM   14  C   UNK N   1      28.577  24.396  -4.541  0.00  0.00     0.005 C 
HETATM   15  C   UNK N   1      28.218  23.879  -5.925  0.00  0.00     0.001 C 
HETATM   16  C   UNK N   1      29.382  23.135  -6.563  0.00  0.00     0.005 C 
ENDROOT
BRANCH   1  17
HETATM   17  O   UNK N   1      35.242  19.097  -4.259  0.00  0.00    -0.217 OA
BRANCH  17  18
HETATM   18  S   UNK N   1      35.572  17.663  -5.136  0.00  0.00     0.360 S 
HETATM   19  O   UNK N   1      36.610  16.729  -4.497  0.00  0.00    -0.176 OA
HETATM   20  O   UNK N   1      34.973  17.268  -3.777  0.00  0.00    -0.176 OA
BRANCH  18  21
HETATM   21  N   UNK N   1      37.095  18.539  -4.921  0.00  0.00    -0.305 N 
HETATM   22  H   UNK N   1      38.013  18.883  -4.640  0.00  0.00     0.171 HD
HETATM   23  H   UNK N   1      36.912  19.259  -5.620  0.00  0.00     0.171 HD
ENDBRANCH  18  21
ENDBRANCH  17  18
ENDBRANCH   1  17
TORSDOF 3
ENDMDL
MODEL 5
REMARK VINA RESULT:      -6.9      3.018      4.335
REMARK  3 active torsions:
REMARK  status: ('A' for Active; 'I' for Inactive)
REMARK    1  A    between atoms: S_1  and  O_4 
REMARK    2  A    between atoms: S_1  and  N_5 
REMARK    3  A    between atoms: O_4  and  C_6 
ROOT
HETATM    1  C   UNK N   1      36.974  12.907  12.483  0.00  0.00     0.093 A 
HETATM    2  C   UNK N   1      36.168  13.861  13.113  0.00  0.00     0.039 A 
HETATM    3  C   UNK N   1      35.709  13.650  14.417  0.00  0.00     0.017 A 
HETATM    4  C   UNK N   1      36.040  12.468  15.100  0.00  0.00     0.005 A 
HETATM    5  C   UNK N   1      36.863  11.512  14.468  0.00  0.00     0.093 A 
HETATM    6  C   UNK N   1      37.330  11.739  13.173  0.00  0.00     0.076 A 
HETATM    7  C   UNK N   1      35.560  12.199  16.392  0.00  0.00    -0.033 A 
HETATM    8  C   UNK N   1      35.906  10.974  17.001  0.00  0.00     0.025 A 
HETATM    9  C   UNK N   1      36.730  10.079  16.300  0.00  0.00     0.295 A 
HETATM   10  C   UNK N   1      34.669  13.190  17.092  0.00  0.00     0.040 C 
HETATM   11  C   UNK N   1      35.393  10.601  18.365  0.00  0.00     0.045 C 
HETATM   12  O   UNK N   1      37.042   9.010  16.801  0.00  0.00    -0.259 OA
HETATM   13  O   UNK N   1      37.175  10.377  15.084  0.00  0.00    -0.274 OA
HETATM   14  C   UNK N   1      35.919  11.535  19.443  0.00  0.00     0.005 C 
HETATM   15  C   UNK N   1      35.066  12.791  19.538  0.00  0.00     0.001 C 
HETATM   16  C   UNK N   1      35.314  13.725  18.363  0.00  0.00     0.005 C 
ENDROOT
BRANCH   1  17
HETATM   17  O   UNK N   1      37.359  13.104  11.194  0.00  0.00    -0.217 OA
BRANCH  17  18
HETATM   18  S   UNK N   1      36.558  14.149  10.099  0.00  0.00     0.360 S 
HETATM   19  O   UNK N   1      37.097  14.131   8.661  0.00  0.00    -0.176 OA
HETATM   20  O   UNK N   1      36.360  12.704   9.615  0.00  0.00    -0.176 OA
BRANCH  18  21
HETATM   21  N   UNK N   1      38.274  14.578  10.112  0.00  0.00    -0.305 N 
HETATM   22  H   UNK N   1      39.211  14.938   9.928  0.00  0.00     0.171 HD
HETATM   23  H   UNK N   1      38.511  14.077  10.968  0.00  0.00     0.171 HD
ENDBRANCH  18  21
ENDBRANCH  17  18
ENDBRANCH   1  17
TORSDOF 3
ENDMDL
MODEL 6
REMARK VINA RESULT:      -6.7     13.784     15.876
REMARK  3 active torsions:
REMARK  status: ('A' for Active; 'I' for Inactive)
REMARK    1  A    between atoms: S_1  and  O_4 
REMARK    2  A    between atoms: S_1  and  N_5 
REMARK    3  A    between atoms: O_4  and  C_6 
ROOT
HETATM    1  C   UNK N   1      21.813  15.775   4.518  0.00  0.00     0.093 A 
HETATM    2  C   UNK N   1      23.094  15.239   4.684  0.00  0.00     0.039 A 
HETATM    3  C   UNK N   1      24.225  16.039   4.497  0.00  0.00     0.017 A 
HETATM    4  C   UNK N   1      24.084  17.385   4.120  0.00  0.00     0.005 A 
HETATM    5  C   UNK N   1      22.792  17.928   3.963  0.00  0.00     0.093 A 
HETATM    6  C   UNK N   1      21.669  17.126   4.170  0.00  0.00     0.076 A 
HETATM    7  C   UNK N   1      25.197  18.206   3.876  0.00  0.00    -0.033 A 
HETATM    8  C   UNK N   1      24.978  19.539   3.467  0.00  0.00     0.025 A 
HETATM    9  C   UNK N   1      23.657  19.997   3.336  0.00  0.00     0.295 A 
HETATM   10  C   UNK N   1      26.592  17.658   4.020  0.00  0.00     0.040 C 
HETATM   11  C   UNK N   1      26.122  20.462   3.147  0.00  0.00     0.045 C 
HETATM   12  O   UNK N   1      23.438  21.144   2.980  0.00  0.00    -0.259 OA
HETATM   13  O   UNK N   1      22.631  19.192   3.589  0.00  0.00    -0.274 OA
HETATM   14  C   UNK N   1      26.977  20.749   4.371  0.00  0.00     0.005 C 
HETATM   15  C   UNK N   1      28.009  19.652   4.584  0.00  0.00     0.001 C 
HETATM   16  C   UNK N   1      27.368  18.378   5.114  0.00  0.00     0.005 C 
ENDROOT
BRANCH   1  17
HETATM   17  O   UNK N   1      20.727  14.966   4.646  0.00  0.00    -0.217 OA
BRANCH  17  18
HETATM   18  S   UNK N   1      19.137  15.528   4.943  0.00  0.00     0.360 S 
HETATM   19  O   UNK N   1      18.053  14.442   4.980  0.00  0.00    -0.176 OA
HETATM   20  O   UNK N   1      19.541  14.599   6.098  0.00  0.00    -0.176 OA
BRANCH  18  21
HETATM   21  N   UNK N   1      19.132  14.654   3.405  0.00  0.00    -0.305 N 
HETATM   22  H   UNK N   1      19.124  14.361   2.428  0.00  0.00     0.171 HD
HETATM   23  H   UNK N   1      19.151  13.717   3.806  0.00  0.00     0.171 HD
ENDBRANCH  18  21
ENDBRANCH  17  18
ENDBRANCH   1  17
TORSDOF 3
ENDMDL
MODEL 7
REMARK VINA RESULT:      -6.5     13.784     15.115
REMARK  3 active torsions:
REMARK  status: ('A' for Active; 'I' for Inactive)
REMARK    1  A    between atoms: S_1  and  O_4 
REMARK    2  A    between atoms: S_1  and  N_5 
REMARK    3  A    between atoms: O_4  and  C_6 
ROOT
HETATM    1  C   UNK N   1      20.918  17.130   4.730  0.00  0.00     0.093 A 
HETATM    2  C   UNK N   1      22.258  16.737   4.639  0.00  0.00     0.039 A 
HETATM    3  C   UNK N   1      22.804  15.861   5.583  0.00  0.00     0.017 A 
HETATM    4  C   UNK N   1      22.015  15.382   6.643  0.00  0.00     0.005 A 
HETATM    5  C   UNK N   1      20.661  15.770   6.727  0.00  0.00     0.093 A 
HETATM    6  C   UNK N   1      20.121  16.630   5.771  0.00  0.00     0.076 A 
HETATM    7  C   UNK N   1      22.540  14.539   7.635  0.00  0.00    -0.033 A 
HETATM    8  C   UNK N   1      21.697  14.127   8.689  0.00  0.00     0.025 A 
HETATM    9  C   UNK N   1      20.361  14.561   8.695  0.00  0.00     0.295 A 
HETATM   10  C   UNK N   1      23.984  14.115   7.586  0.00  0.00     0.040 C 
HETATM   11  C   UNK N   1      22.203  13.260   9.809  0.00  0.00     0.045 C 
HETATM   12  O   UNK N   1      19.611  14.223   9.596  0.00  0.00    -0.259 OA
HETATM   13  O   UNK N   1      19.899  15.348   7.729  0.00  0.00    -0.274 OA
HETATM   14  C   UNK N   1      22.622  11.884   9.315  0.00  0.00     0.005 C 
HETATM   15  C   UNK N   1      24.044  11.908   8.779  0.00  0.00     0.001 C 
HETATM   16  C   UNK N   1      24.121  12.607   7.430  0.00  0.00     0.005 C 
ENDROOT
BRANCH   1  17
HETATM   17  O   UNK N   1      20.423  18.029   3.838  0.00  0.00    -0.217 OA
BRANCH  17  18
HETATM   18  S   UNK N   1      21.344  19.287   3.128  0.00  0.00     0.360 S 
HETATM   19  O   UNK N   1      20.548  20.541   2.738  0.00  0.00    -0.176 OA
HETATM   20  O   UNK N   1      20.749  19.811   4.445  0.00  0.00    -0.176 OA
BRANCH  18  21
HETATM   21  N   UNK N   1      20.062  18.837   1.995  0.00  0.00    -0.305 N 
HETATM   22  H   UNK N   1      19.495  18.481   1.225  0.00  0.00     0.171 HD
HETATM   23  H   UNK N   1      19.296  19.268   2.511  0.00  0.00     0.171 HD
ENDBRANCH  18  21
ENDBRANCH  17  18
ENDBRANCH   1  17
TORSDOF 3
ENDMDL
MODEL 8
REMARK VINA RESULT:      -6.5      1.816      2.762
REMARK  3 active torsions:
REMARK  status: ('A' for Active; 'I' for Inactive)
REMARK    1  A    between atoms: S_1  and  O_4 
REMARK    2  A    between atoms: S_1  and  N_5 
REMARK    3  A    between atoms: O_4  and  C_6 
ROOT
HETATM    1  C   UNK N   1      35.460  15.679   9.734  0.00  0.00     0.093 A 
HETATM    2  C   UNK N   1      35.809  16.141  11.008  0.00  0.00     0.039 A 
HETATM    3  C   UNK N   1      35.771  15.278  12.107  0.00  0.00     0.017 A 
HETATM    4  C   UNK N   1      35.363  13.943  11.945  0.00  0.00     0.005 A 
HETATM    5  C   UNK N   1      35.023  13.475  10.659  0.00  0.00     0.093 A 
HETATM    6  C   UNK N   1      35.081  14.339   9.564  0.00  0.00     0.076 A 
HETATM    7  C   UNK N   1      35.267  13.060  13.033  0.00  0.00    -0.033 A 
HETATM    8  C   UNK N   1      34.817  11.744  12.798  0.00  0.00     0.025 A 
HETATM    9  C   UNK N   1      34.499  11.362  11.485  0.00  0.00     0.295 A 
HETATM   10  C   UNK N   1      35.609  13.527  14.423  0.00  0.00     0.040 C 
HETATM   11  C   UNK N   1      34.648  10.757  13.922  0.00  0.00     0.045 C 
HETATM   12  O   UNK N   1      34.103  10.231  11.253  0.00  0.00    -0.259 OA
HETATM   13  O   UNK N   1      34.616  12.224  10.480  0.00  0.00    -0.274 OA
HETATM   14  C   UNK N   1      35.975  10.418  14.581  0.00  0.00     0.005 C 
HETATM   15  C   UNK N   1      36.341  11.454  15.633  0.00  0.00     0.001 C 
HETATM   16  C   UNK N   1      36.792  12.761  14.997  0.00  0.00     0.005 C 
ENDROOT
BRANCH   1  17
HETATM   17  O   UNK N   1      35.446  16.549   8.688  0.00  0.00    -0.217 OA
BRANCH  17  18
HETATM   18  S   UNK N   1      34.032  17.002   7.833  0.00  0.00     0.360 S 
HETATM   19  O   UNK N   1      34.246  18.027   6.711  0.00  0.00    -0.176 OA
HETATM   20  O   UNK N   1      34.994  16.321   6.846  0.00  0.00    -0.176 OA
BRANCH  18  21
HETATM   21  N   UNK N   1      34.758  18.466   8.509  0.00  0.00    -0.305 N 
HETATM   22  H   UNK N   1      35.044  19.417   8.746  0.00  0.00     0.171 HD
HETATM   23  H   UNK N   1      35.353  17.995   9.191  0.00  0.00     0.171 HD
ENDBRANCH  18  21
ENDBRANCH  17  18
ENDBRANCH   1  17
TORSDOF 3
ENDMDL
MODEL 9
REMARK VINA RESULT:      -6.2      2.350      3.500
REMARK  3 active torsions:
REMARK  status: ('A' for Active; 'I' for Inactive)
REMARK    1  A    between atoms: S_1  and  O_4 
REMARK    2  A    between atoms: S_1  and  N_5 
REMARK    3  A    between atoms: O_4  and  C_6 
ROOT
HETATM    1  C   UNK N   1      35.891  13.088  12.487  0.00  0.00     0.093 A 
HETATM    2  C   UNK N   1      36.287  11.747  12.456  0.00  0.00     0.039 A 
HETATM    3  C   UNK N   1      36.302  10.987  13.630  0.00  0.00     0.017 A 
HETATM    4  C   UNK N   1      35.937  11.570  14.855  0.00  0.00     0.005 A 
HETATM    5  C   UNK N   1      35.527  12.919  14.883  0.00  0.00     0.093 A 
HETATM    6  C   UNK N   1      35.498  13.665  13.704  0.00  0.00     0.076 A 
HETATM    7  C   UNK N   1      35.984  10.852  16.061  0.00  0.00    -0.033 A 
HETATM    8  C   UNK N   1      35.637  11.515  17.257  0.00  0.00     0.025 A 
HETATM    9  C   UNK N   1      35.240  12.861  17.194  0.00  0.00     0.295 A 
HETATM   10  C   UNK N   1      36.430   9.414  16.072  0.00  0.00     0.040 C 
HETATM   11  C   UNK N   1      35.707  10.821  18.590  0.00  0.00     0.045 C 
HETATM   12  O   UNK N   1      34.938  13.460  18.214  0.00  0.00    -0.259 OA
HETATM   13  O   UNK N   1      35.195  13.501  16.030  0.00  0.00    -0.274 OA
HETATM   14  C   UNK N   1      34.715   9.672  18.683  0.00  0.00     0.005 C 
HETATM   15  C   UNK N   1      35.290   8.406  18.068  0.00  0.00     0.001 C 
HETATM   16  C   UNK N   1      35.321   8.487  16.549  0.00  0.00     0.005 C 
ENDROOT
BRANCH   1  17
HETATM   17  O   UNK N   1      35.941  13.827  11.346  0.00  0.00    -0.217 OA
BRANCH  17  18
HETATM   18  S   UNK N   1      35.085  15.291  11.110  0.00  0.00     0.360 S 
HETATM   19  O   UNK N   1      35.334  15.986   9.763  0.00  0.00    -0.176 OA
HETATM   20  O   UNK N   1      34.617  14.284  10.047  0.00  0.00    -0.176 OA
BRANCH  18  21
HETATM   21  N   UNK N   1      36.813  15.631  10.937  0.00  0.00    -0.305 N 
HETATM   22  H   UNK N   1      37.736  16.007  10.719  0.00  0.00     0.171 HD
HETATM   23  H   UNK N   1      37.142  14.821  11.464  0.00  0.00     0.171 HD
ENDBRANCH  18  21
ENDBRANCH  17  18
ENDBRANCH   1  17
TORSDOF 3
ENDMDL
