MODEL 1
REMARK VINA RESULT:      -5.6      0.000      0.000
REMARK  6 active torsions:
REMARK  status: ('A' for Active; 'I' for Inactive)
REMARK    1  A    between atoms: S_1  and  N_6 
REMARK    2  A    between atoms: S_1  and  C_15 
REMARK    3  A    between atoms: N_5  and  C_12 
REMARK    4  A    between atoms: C_7  and  C_9 
REMARK    5  A    between atoms: C_9  and  C_12 
REMARK    6  A    between atoms: C_11  and  C_15 
ROOT
HETATM    1  N   UNK N   1      27.426  19.375   7.681  0.00  0.00    -0.365 N 
HETATM    2  C   UNK N   1      28.382  18.448   5.874  0.00  0.00    -0.029 A 
HETATM    3  C   UNK N   1      29.087  18.050   6.979  0.00  0.00    -0.001 A 
HETATM    4  C   UNK N   1      28.482  18.628   8.058  0.00  0.00     0.043 A 
HETATM    5  C   UNK N   1      30.706  17.002   8.416  0.00  0.00    -0.042 A 
HETATM    6  C   UNK N   1      30.210  17.228   7.115  0.00  0.00     0.022 A 
HETATM    7  C   UNK N   1      27.357  19.272   6.332  0.00  0.00     0.096 A 
HETATM    8  C   UNK N   1      28.941  18.436   9.351  0.00  0.00     0.031 A 
HETATM    9  C   UNK N   1      30.062  17.613   9.523  0.00  0.00     0.010 A 
HETATM   10  H   UNK N   1      26.828  19.891   8.268  0.00  0.00     0.165 HD
ENDROOT
BRANCH   5  11
HETATM   11  C   UNK N   1      31.900  16.105   8.610  0.00  0.00     0.201 C 
BRANCH  11  12
HETATM   12  S   UNK N   1      33.482  17.024   8.532  0.00  0.00     0.230 S 
HETATM   13  O   UNK N   1      34.414  16.511   7.420  0.00  0.00    -0.206 OA
HETATM   14  O   UNK N   1      33.247  18.484   8.112  0.00  0.00    -0.206 OA
BRANCH  12  15
HETATM   15  N   UNK N   1      34.476  17.152   9.995  0.00  0.00    -0.324 N 
HETATM   16  C   UNK N   1      35.047  15.845  10.290  0.00  0.00     0.159 C 
HETATM   17  H   UNK N   1      34.623  18.001  10.541  0.00  0.00     0.171 HD
ENDBRANCH  12  15
ENDBRANCH  11  12
ENDBRANCH   5  11
BRANCH   2  18
HETATM   18  C   UNK N   1      28.667  18.086   4.457  0.00  0.00     0.071 C 
BRANCH  18  19
HETATM   19  C   UNK N   1      27.478  17.380   3.831  0.00  0.00     0.276 C 
BRANCH  19  20
HETATM   20  N   UNK N   1      27.919  16.141   3.212  0.00  0.00     0.080 N 
HETATM   21  C   UNK N   1      27.850  15.104   4.225  0.00  0.00     0.309 C 
HETATM   22  C   UNK N   1      29.320  16.300   2.863  0.00  0.00     0.309 C 
ENDBRANCH  19  20
ENDBRANCH  18  19
ENDBRANCH   2  18
TORSDOF 6
ENDMDL
MODEL 2
REMARK VINA RESULT:      -5.5      3.737      5.735
REMARK  6 active torsions:
REMARK  status: ('A' for Active; 'I' for Inactive)
REMARK    1  A    between atoms: S_1  and  N_6 
REMARK    2  A    between atoms: S_1  and  C_15 
REMARK    3  A    between atoms: N_5  and  C_12 
REMARK    4  A    between atoms: C_7  and  C_9 
REMARK    5  A    between atoms: C_9  and  C_12 
REMARK    6  A    between atoms: C_11  and  C_15 
ROOT
HETATM    1  N   UNK N   1      31.759  17.626   9.066  0.00  0.00    -0.365 N 
HETATM    2  C   UNK N   1      32.115  16.868   6.983  0.00  0.00    -0.029 A 
HETATM    3  C   UNK N   1      30.788  17.187   7.098  0.00  0.00    -0.001 A 
HETATM    4  C   UNK N   1      30.604  17.645   8.372  0.00  0.00     0.043 A 
HETATM    5  C   UNK N   1      28.458  17.527   6.614  0.00  0.00    -0.042 A 
HETATM    6  C   UNK N   1      29.734  17.109   6.183  0.00  0.00     0.022 A 
HETATM    7  C   UNK N   1      32.699  17.145   8.216  0.00  0.00     0.096 A 
HETATM    8  C   UNK N   1      29.367  18.059   8.835  0.00  0.00     0.031 A 
HETATM    9  C   UNK N   1      28.288  17.998   7.942  0.00  0.00     0.010 A 
HETATM   10  H   UNK N   1      31.891  17.905  10.000  0.00  0.00     0.165 HD
ENDROOT
BRANCH   5  11
HETATM   11  C   UNK N   1      27.297  17.481   5.653  0.00  0.00     0.201 C 
BRANCH  11  12
HETATM   12  S   UNK N   1      26.831  19.143   5.044  0.00  0.00     0.230 S 
HETATM   13  O   UNK N   1      28.033  19.936   4.500  0.00  0.00    -0.206 OA
HETATM   14  O   UNK N   1      25.923  19.040   3.809  0.00  0.00    -0.206 OA
BRANCH  12  15
HETATM   15  N   UNK N   1      25.959  20.243   6.129  0.00  0.00    -0.324 N 
HETATM   16  C   UNK N   1      26.834  21.355   6.473  0.00  0.00     0.159 C 
HETATM   17  H   UNK N   1      25.002  20.117   6.459  0.00  0.00     0.171 HD
ENDBRANCH  12  15
ENDBRANCH  11  12
ENDBRANCH   5  11
BRANCH   2  18
HETATM   18  C   UNK N   1      32.797  16.314   5.780  0.00  0.00     0.071 C 
BRANCH  18  19
HETATM   19  C   UNK N   1      33.080  17.410   4.768  0.00  0.00     0.276 C 
BRANCH  19  20
HETATM   20  N   UNK N   1      33.057  16.852   3.426  0.00  0.00     0.080 N 
HETATM   21  C   UNK N   1      31.671  16.810   3.001  0.00  0.00     0.309 C 
HETATM   22  C   UNK N   1      33.515  15.477   3.517  0.00  0.00     0.309 C 
ENDBRANCH  19  20
ENDBRANCH  18  19
ENDBRANCH   2  18
TORSDOF 6
ENDMDL
MODEL 3
REMARK VINA RESULT:      -5.5      1.887      2.478
REMARK  6 active torsions:
REMARK  status: ('A' for Active; 'I' for Inactive)
REMARK    1  A    between atoms: S_1  and  N_6 
REMARK    2  A    between atoms: S_1  and  C_15 
REMARK    3  A    between atoms: N_5  and  C_12 
REMARK    4  A    between atoms: C_7  and  C_9 
REMARK    5  A    between atoms: C_9  and  C_12 
REMARK    6  A    between atoms: C_11  and  C_15 
ROOT
HETATM    1  N   UNK N   1      27.620  19.047   7.365  0.00  0.00    -0.365 N 
HETATM    2  C   UNK N   1      28.191  18.119   5.402  0.00  0.00    -0.029 A 
HETATM    3  C   UNK N   1      29.178  17.836   6.309  0.00  0.00    -0.001 A 
HETATM    4  C   UNK N   1      28.802  18.411   7.489  0.00  0.00     0.043 A 
HETATM    5  C   UNK N   1      31.188  17.000   7.329  0.00  0.00    -0.042 A 
HETATM    6  C   UNK N   1      30.372  17.120   6.185  0.00  0.00     0.022 A 
HETATM    7  C   UNK N   1      27.235  18.874   6.077  0.00  0.00     0.096 A 
HETATM    8  C   UNK N   1      29.576  18.322   8.633  0.00  0.00     0.031 A 
HETATM    9  C   UNK N   1      30.779  17.607   8.545  0.00  0.00     0.010 A 
HETATM   10  H   UNK N   1      27.136  19.538   8.067  0.00  0.00     0.165 HD
ENDROOT
BRANCH   5  11
HETATM   11  C   UNK N   1      32.473  16.218   7.246  0.00  0.00     0.201 C 
BRANCH  11  12
HETATM   12  S   UNK N   1      33.729  17.051   6.206  0.00  0.00     0.230 S 
HETATM   13  O   UNK N   1      34.411  18.229   6.925  0.00  0.00    -0.206 OA
HETATM   14  O   UNK N   1      34.913  16.114   5.920  0.00  0.00    -0.206 OA
BRANCH  12  15
HETATM   15  N   UNK N   1      33.258  17.651   4.605  0.00  0.00    -0.324 N 
HETATM   16  C   UNK N   1      33.111  16.518   3.703  0.00  0.00     0.159 C 
HETATM   17  H   UNK N   1      33.115  18.630   4.356  0.00  0.00     0.171 HD
ENDBRANCH  12  15
ENDBRANCH  11  12
ENDBRANCH   5  11
BRANCH   2  18
HETATM   18  C   UNK N   1      28.156  17.715   3.969  0.00  0.00     0.071 C 
BRANCH  18  19
HETATM   19  C   UNK N   1      27.316  16.465   3.781  0.00  0.00     0.276 C 
BRANCH  19  20
HETATM   20  N   UNK N   1      28.133  15.410   3.204  0.00  0.00     0.080 N 
HETATM   21  C   UNK N   1      29.338  16.032   2.689  0.00  0.00     0.309 C 
HETATM   22  C   UNK N   1      27.411  14.873   2.064  0.00  0.00     0.309 C 
ENDBRANCH  19  20
ENDBRANCH  18  19
ENDBRANCH   2  18
TORSDOF 6
ENDMDL
MODEL 4
REMARK VINA RESULT:      -5.5      2.135      3.674
REMARK  6 active torsions:
REMARK  status: ('A' for Active; 'I' for Inactive)
REMARK    1  A    between atoms: S_1  and  N_6 
REMARK    2  A    between atoms: S_1  and  C_15 
REMARK    3  A    between atoms: N_5  and  C_12 
REMARK    4  A    between atoms: C_7  and  C_9 
REMARK    5  A    between atoms: C_9  and  C_12 
REMARK    6  A    between atoms: C_11  and  C_15 
ROOT
HETATM    1  N   UNK N   1      30.908  16.663   3.368  0.00  0.00    -0.365 N 
HETATM    2  C   UNK N   1      29.600  16.750   5.191  0.00  0.00    -0.029 A 
HETATM    3  C   UNK N   1      30.881  17.052   5.572  0.00  0.00    -0.001 A 
HETATM    4  C   UNK N   1      31.649  16.991   4.445  0.00  0.00     0.043 A 
HETATM    5  C   UNK N   1      32.809  17.641   6.883  0.00  0.00    -0.042 A 
HETATM    6  C   UNK N   1      31.425  17.372   6.819  0.00  0.00     0.022 A 
HETATM    7  C   UNK N   1      29.639  16.509   3.821  0.00  0.00     0.096 A 
HETATM    8  C   UNK N   1      33.011  17.243   4.465  0.00  0.00     0.031 A 
HETATM    9  C   UNK N   1      33.589  17.572   5.699  0.00  0.00     0.010 A 
HETATM   10  H   UNK N   1      31.224  16.556   2.443  0.00  0.00     0.165 HD
ENDROOT
BRANCH   5  11
HETATM   11  C   UNK N   1      33.433  18.012   8.203  0.00  0.00     0.201 C 
BRANCH  11  12
HETATM   12  S   UNK N   1      34.059  16.551   9.113  0.00  0.00     0.230 S 
HETATM   13  O   UNK N   1      32.964  15.504   9.380  0.00  0.00    -0.206 OA
HETATM   14  O   UNK N   1      35.063  15.762   8.258  0.00  0.00    -0.206 OA
BRANCH  12  15
HETATM   15  N   UNK N   1      34.902  16.795  10.654  0.00  0.00    -0.324 N 
HETATM   16  C   UNK N   1      36.001  15.843  10.744  0.00  0.00     0.159 C 
HETATM   17  H   UNK N   1      34.657  17.487  11.362  0.00  0.00     0.171 HD
ENDBRANCH  12  15
ENDBRANCH  11  12
ENDBRANCH   5  11
BRANCH   2  18
HETATM   18  C   UNK N   1      28.403  16.675   6.075  0.00  0.00     0.071 C 
BRANCH  18  19
HETATM   19  C   UNK N   1      27.423  17.789   5.751  0.00  0.00     0.276 C 
BRANCH  19  20
HETATM   20  N   UNK N   1      28.113  19.068   5.781  0.00  0.00     0.080 N 
HETATM   21  C   UNK N   1      27.692  19.756   6.988  0.00  0.00     0.309 C 
HETATM   22  C   UNK N   1      27.631  19.851   4.656  0.00  0.00     0.309 C 
ENDBRANCH  19  20
ENDBRANCH  18  19
ENDBRANCH   2  18
TORSDOF 6
ENDMDL
MODEL 5
REMARK VINA RESULT:      -5.5      5.628      7.863
REMARK  6 active torsions:
REMARK  status: ('A' for Active; 'I' for Inactive)
REMARK    1  A    between atoms: S_1  and  N_6 
REMARK    2  A    between atoms: S_1  and  C_15 
REMARK    3  A    between atoms: N_5  and  C_12 
REMARK    4  A    between atoms: C_7  and  C_9 
REMARK    5  A    between atoms: C_9  and  C_12 
REMARK    6  A    between atoms: C_11  and  C_15 
ROOT
HETATM    1  N   UNK N   1      21.739  20.571   2.777  0.00  0.00    -0.365 N 
HETATM    2  C   UNK N   1      21.573  18.753   4.084  0.00  0.00    -0.029 A 
HETATM    3  C   UNK N   1      22.903  18.991   3.852  0.00  0.00    -0.001 A 
HETATM    4  C   UNK N   1      22.969  20.100   3.058  0.00  0.00     0.043 A 
HETATM    5  C   UNK N   1      25.301  18.825   3.865  0.00  0.00    -0.042 A 
HETATM    6  C   UNK N   1      24.052  18.318   4.279  0.00  0.00     0.022 A 
HETATM    7  C   UNK N   1      20.868  19.743   3.405  0.00  0.00     0.096 A 
HETATM    8  C   UNK N   1      24.175  20.626   2.626  0.00  0.00     0.031 A 
HETATM    9  C   UNK N   1      25.348  19.978   3.038  0.00  0.00     0.010 A 
HETATM   10  H   UNK N   1      21.517  21.356   2.226  0.00  0.00     0.165 HD
ENDROOT
BRANCH   5  11
HETATM   11  C   UNK N   1      26.566  18.145   4.319  0.00  0.00     0.201 C 
BRANCH  11  12
HETATM   12  S   UNK N   1      27.519  19.165   5.504  0.00  0.00     0.230 S 
HETATM   13  O   UNK N   1      28.587  18.356   6.261  0.00  0.00    -0.206 OA
HETATM   14  O   UNK N   1      28.365  20.214   4.767  0.00  0.00    -0.206 OA
BRANCH  12  15
HETATM   15  N   UNK N   1      26.643  20.101   6.730  0.00  0.00    -0.324 N 
HETATM   16  C   UNK N   1      26.783  21.518   6.428  0.00  0.00     0.159 C 
HETATM   17  H   UNK N   1      26.127  19.711   7.519  0.00  0.00     0.171 HD
ENDBRANCH  12  15
ENDBRANCH  11  12
ENDBRANCH   5  11
BRANCH   2  18
HETATM   18  C   UNK N   1      20.994  17.641   4.889  0.00  0.00     0.071 C 
BRANCH  18  19
HETATM   19  C   UNK N   1      21.198  17.886   6.373  0.00  0.00     0.276 C 
BRANCH  19  20
HETATM   20  N   UNK N   1      20.809  16.702   7.121  0.00  0.00     0.080 N 
HETATM   21  C   UNK N   1      19.905  15.940   6.281  0.00  0.00     0.309 C 
HETATM   22  C   UNK N   1      20.044  17.146   8.274  0.00  0.00     0.309 C 
ENDBRANCH  19  20
ENDBRANCH  18  19
ENDBRANCH   2  18
TORSDOF 6
ENDMDL
MODEL 6
REMARK VINA RESULT:      -5.5      1.808      3.345
REMARK  6 active torsions:
REMARK  status: ('A' for Active; 'I' for Inactive)
REMARK    1  A    between atoms: S_1  and  N_6 
REMARK    2  A    between atoms: S_1  and  C_15 
REMARK    3  A    between atoms: N_5  and  C_12 
REMARK    4  A    between atoms: C_7  and  C_9 
REMARK    5  A    between atoms: C_9  and  C_12 
REMARK    6  A    between atoms: C_11  and  C_15 
ROOT
HETATM    1  N   UNK N   1      29.323  14.871   4.584  0.00  0.00    -0.365 N 
HETATM    2  C   UNK N   1      28.817  17.052   4.739  0.00  0.00    -0.029 A 
HETATM    3  C   UNK N   1      29.843  16.791   5.609  0.00  0.00    -0.001 A 
HETATM    4  C   UNK N   1      30.127  15.461   5.491  0.00  0.00     0.043 A 
HETATM    5  C   UNK N   1      31.569  17.038   7.264  0.00  0.00    -0.042 A 
HETATM    6  C   UNK N   1      30.543  17.620   6.491  0.00  0.00     0.022 A 
HETATM    7  C   UNK N   1      28.508  15.847   4.115  0.00  0.00     0.096 A 
HETATM    8  C   UNK N   1      31.123  14.851   6.235  0.00  0.00     0.031 A 
HETATM    9  C   UNK N   1      31.847  15.654   7.127  0.00  0.00     0.010 A 
HETATM   10  H   UNK N   1      29.328  13.924   4.318  0.00  0.00     0.165 HD
ENDROOT
BRANCH   5  11
HETATM   11  C   UNK N   1      32.364  17.899   8.212  0.00  0.00     0.201 C 
BRANCH  11  12
HETATM   12  S   UNK N   1      34.163  17.817   7.884  0.00  0.00     0.230 S 
HETATM   13  O   UNK N   1      34.496  17.831   6.381  0.00  0.00    -0.206 OA
HETATM   14  O   UNK N   1      34.870  19.086   8.386  0.00  0.00    -0.206 OA
BRANCH  12  15
HETATM   15  N   UNK N   1      35.106  16.491   8.590  0.00  0.00    -0.324 N 
HETATM   16  C   UNK N   1      34.717  16.327   9.983  0.00  0.00     0.159 C 
HETATM   17  H   UNK N   1      35.808  15.935   8.101  0.00  0.00     0.171 HD
ENDBRANCH  12  15
ENDBRANCH  11  12
ENDBRANCH   5  11
BRANCH   2  18
HETATM   18  C   UNK N   1      28.150  18.366   4.517  0.00  0.00     0.071 C 
BRANCH  18  19
HETATM   19  C   UNK N   1      26.927  18.506   5.405  0.00  0.00     0.276 C 
BRANCH  19  20
HETATM   20  N   UNK N   1      26.509  19.898   5.443  0.00  0.00     0.080 N 
HETATM   21  C   UNK N   1      26.560  20.401   4.083  0.00  0.00     0.309 C 
HETATM   22  C   UNK N   1      27.506  20.632   6.204  0.00  0.00     0.309 C 
ENDBRANCH  19  20
ENDBRANCH  18  19
ENDBRANCH   2  18
TORSDOF 6
ENDMDL
MODEL 7
REMARK VINA RESULT:      -5.5     12.048     14.194
REMARK  6 active torsions:
REMARK  status: ('A' for Active; 'I' for Inactive)
REMARK    1  A    between atoms: S_1  and  N_6 
REMARK    2  A    between atoms: S_1  and  C_15 
REMARK    3  A    between atoms: N_5  and  C_12 
REMARK    4  A    between atoms: C_7  and  C_9 
REMARK    5  A    between atoms: C_9  and  C_12 
REMARK    6  A    between atoms: C_11  and  C_15 
ROOT
HETATM    1  N   UNK N   1      31.477  20.459  -3.784  0.00  0.00    -0.365 N 
HETATM    2  C   UNK N   1      30.431  20.886  -5.723  0.00  0.00    -0.029 A 
HETATM    3  C   UNK N   1      30.190  21.931  -4.872  0.00  0.00    -0.001 A 
HETATM    4  C   UNK N   1      30.839  21.643  -3.705  0.00  0.00     0.043 A 
HETATM    5  C   UNK N   1      29.399  24.006  -3.948  0.00  0.00    -0.042 A 
HETATM    6  C   UNK N   1      29.453  23.108  -5.035  0.00  0.00     0.022 A 
HETATM    7  C   UNK N   1      31.229  19.982  -5.028  0.00  0.00     0.096 A 
HETATM    8  C   UNK N   1      30.807  22.495  -2.614  0.00  0.00     0.031 A 
HETATM    9  C   UNK N   1      30.080  23.686  -2.745  0.00  0.00     0.010 A 
HETATM   10  H   UNK N   1      32.014  20.029  -3.080  0.00  0.00     0.165 HD
ENDROOT
BRANCH   5  11
HETATM   11  C   UNK N   1      28.634  25.296  -4.088  0.00  0.00     0.201 C 
BRANCH  11  12
HETATM   12  S   UNK N   1      26.841  25.078  -3.791  0.00  0.00     0.230 S 
HETATM   13  O   UNK N   1      26.529  23.867  -2.894  0.00  0.00    -0.206 OA
HETATM   14  O   UNK N   1      26.274  26.246  -2.970  0.00  0.00    -0.206 OA
BRANCH  12  15
HETATM   15  N   UNK N   1      25.747  24.959  -5.183  0.00  0.00    -0.324 N 
HETATM   16  C   UNK N   1      25.835  23.616  -5.737  0.00  0.00     0.159 C 
HETATM   17  H   UNK N   1      25.155  25.710  -5.539  0.00  0.00     0.171 HD
ENDBRANCH  12  15
ENDBRANCH  11  12
ENDBRANCH   5  11
BRANCH   2  18
HETATM   18  C   UNK N   1      29.922  20.736  -7.116  0.00  0.00     0.071 C 
BRANCH  18  19
HETATM   19  C   UNK N   1      29.791  19.269  -7.487  0.00  0.00     0.276 C 
BRANCH  19  20
HETATM   20  N   UNK N   1      29.894  19.121  -8.929  0.00  0.00     0.080 N 
HETATM   21  C   UNK N   1      30.629  17.896  -9.185  0.00  0.00     0.309 C 
HETATM   22  C   UNK N   1      30.710  20.216  -9.424  0.00  0.00     0.309 C 
ENDBRANCH  19  20
ENDBRANCH  18  19
ENDBRANCH   2  18
TORSDOF 6
ENDMDL
MODEL 8
REMARK VINA RESULT:      -5.4      1.574      1.889
REMARK  6 active torsions:
REMARK  status: ('A' for Active; 'I' for Inactive)
REMARK    1  A    between atoms: S_1  and  N_6 
REMARK    2  A    between atoms: S_1  and  C_15 
REMARK    3  A    between atoms: N_5  and  C_12 
REMARK    4  A    between atoms: C_7  and  C_9 
REMARK    5  A    between atoms: C_9  and  C_12 
REMARK    6  A    between atoms: C_11  and  C_15 
ROOT
HETATM    1  N   UNK N   1      27.503  17.210   7.829  0.00  0.00    -0.365 N 
HETATM    2  C   UNK N   1      28.698  16.319   6.150  0.00  0.00    -0.029 A 
HETATM    3  C   UNK N   1      29.566  16.955   6.998  0.00  0.00    -0.001 A 
HETATM    4  C   UNK N   1      28.811  17.484   8.006  0.00  0.00     0.043 A 
HETATM    5  C   UNK N   1      31.566  17.828   8.006  0.00  0.00    -0.042 A 
HETATM    6  C   UNK N   1      30.955  17.107   6.959  0.00  0.00     0.022 A 
HETATM    7  C   UNK N   1      27.423  16.491   6.682  0.00  0.00     0.096 A 
HETATM    8  C   UNK N   1      29.371  18.202   9.048  0.00  0.00     0.031 A 
HETATM    9  C   UNK N   1      30.763  18.370   9.042  0.00  0.00     0.010 A 
HETATM   10  H   UNK N   1      26.759  17.478   8.413  0.00  0.00     0.165 HD
ENDROOT
BRANCH   5  11
HETATM   11  C   UNK N   1      33.063  17.998   8.015  0.00  0.00     0.201 C 
BRANCH  11  12
HETATM   12  S   UNK N   1      33.907  16.690   8.980  0.00  0.00     0.230 S 
HETATM   13  O   UNK N   1      32.957  15.554   9.398  0.00  0.00    -0.206 OA
HETATM   14  O   UNK N   1      34.939  15.951   8.115  0.00  0.00    -0.206 OA
BRANCH  12  15
HETATM   15  N   UNK N   1      34.811  17.144  10.437  0.00  0.00    -0.324 N 
HETATM   16  C   UNK N   1      35.766  16.090  10.745  0.00  0.00     0.159 C 
HETATM   17  H   UNK N   1      34.682  18.003  10.972  0.00  0.00     0.171 HD
ENDBRANCH  12  15
ENDBRANCH  11  12
ENDBRANCH   5  11
BRANCH   2  18
HETATM   18  C   UNK N   1      29.048  15.599   4.893  0.00  0.00     0.071 C 
BRANCH  18  19
HETATM   19  C   UNK N   1      28.377  16.248   3.695  0.00  0.00     0.276 C 
BRANCH  19  20
HETATM   20  N   UNK N   1      27.399  15.334   3.131  0.00  0.00     0.080 N 
HETATM   21  C   UNK N   1      27.989  14.752   1.940  0.00  0.00     0.309 C 
HETATM   22  C   UNK N   1      26.260  16.126   2.697  0.00  0.00     0.309 C 
ENDBRANCH  19  20
ENDBRANCH  18  19
ENDBRANCH   2  18
TORSDOF 6
ENDMDL
MODEL 9
REMARK VINA RESULT:      -5.4      2.412      3.169
REMARK  6 active torsions:
REMARK  status: ('A' for Active; 'I' for Inactive)
REMARK    1  A    between atoms: S_1  and  N_6 
REMARK    2  A    between atoms: S_1  and  C_15 
REMARK    3  A    between atoms: N_5  and  C_12 
REMARK    4  A    between atoms: C_7  and  C_9 
REMARK    5  A    between atoms: C_9  and  C_12 
REMARK    6  A    between atoms: C_11  and  C_15 
ROOT
HETATM    1  N   UNK N   1      28.319  19.043   8.317  0.00  0.00    -0.365 N 
HETATM    2  C   UNK N   1      28.376  18.420   6.161  0.00  0.00    -0.029 A 
HETATM    3  C   UNK N   1      29.452  17.856   6.795  0.00  0.00    -0.001 A 
HETATM    4  C   UNK N   1      29.388  18.252   8.101  0.00  0.00     0.043 A 
HETATM    5  C   UNK N   1      31.453  16.603   7.247  0.00  0.00    -0.042 A 
HETATM    6  C   UNK N   1      30.476  17.029   6.324  0.00  0.00     0.022 A 
HETATM    7  C   UNK N   1      27.688  19.155   7.122  0.00  0.00     0.096 A 
HETATM    8  C   UNK N   1      30.330  17.860   9.037  0.00  0.00     0.031 A 
HETATM    9  C   UNK N   1      31.369  17.028   8.599  0.00  0.00     0.010 A 
HETATM   10  H   UNK N   1      28.051  19.456   9.169  0.00  0.00     0.165 HD
ENDROOT
BRANCH   5  11
HETATM   11  C   UNK N   1      32.563  15.694   6.788  0.00  0.00     0.201 C 
BRANCH  11  12
HETATM   12  S   UNK N   1      33.734  16.538   5.661  0.00  0.00     0.230 S 
HETATM   13  O   UNK N   1      34.166  17.921   6.179  0.00  0.00    -0.206 OA
HETATM   14  O   UNK N   1      35.070  15.783   5.593  0.00  0.00    -0.206 OA
BRANCH  12  15
HETATM   15  N   UNK N   1      33.280  16.762   3.961  0.00  0.00    -0.324 N 
HETATM   16  C   UNK N   1      33.369  15.480   3.277  0.00  0.00     0.159 C 
HETATM   17  H   UNK N   1      33.002  17.645   3.532  0.00  0.00     0.171 HD
ENDBRANCH  12  15
ENDBRANCH  11  12
ENDBRANCH   5  11
BRANCH   2  18
HETATM   18  C   UNK N   1      28.023  18.288   4.719  0.00  0.00     0.071 C 
BRANCH  18  19
HETATM   19  C   UNK N   1      27.559  19.619   4.154  0.00  0.00     0.276 C 
BRANCH  19  20
HETATM   20  N   UNK N   1      26.262  19.453   3.520  0.00  0.00     0.080 N 
HETATM   21  C   UNK N   1      25.286  20.138   4.346  0.00  0.00     0.309 C 
HETATM   22  C   UNK N   1      25.933  18.038   3.560  0.00  0.00     0.309 C 
ENDBRANCH  19  20
ENDBRANCH  18  19
ENDBRANCH   2  18
TORSDOF 6
ENDMDL
