MODEL 1
REMARK VINA RESULT:      -7.5      0.000      0.000
REMARK  11 active torsions:
REMARK  status: ('A' for Active; 'I' for Inactive)
REMARK    1  A    between atoms: O_3  and  C_18 
REMARK    2  A    between atoms: O_3  and  C_29 
REMARK    3  A    between atoms: O_4  and  C_19 
REMARK    4  A    between atoms: O_5  and  C_20 
REMARK    5  A    between atoms: N_8  and  C_11 
REMARK    6  A    between atoms: C_11  and  C_18 
REMARK    7  A    between atoms: C_15  and  C_21 
REMARK    8  A    between atoms: C_21  and  C_23 
REMARK    9  A    between atoms: C_25  and  C_26 
REMARK   10  A    between atoms: C_25  and  C_28 
REMARK   11  A    between atoms: C_28  and  C_29 
ROOT
HETATM    1  C   UNK N   1      27.794  18.007   6.087  0.00  0.00     0.072 C 
ENDROOT
BRANCH   1   2
HETATM    2  C   UNK N   1      29.259  17.653   6.063  0.00  0.00     0.013 A 
HETATM    3  C   UNK N   1      29.942  17.405   7.288  0.00  0.00     0.084 A 
HETATM    4  C   UNK N   1      31.333  17.058   7.252  0.00  0.00    -0.018 A 
HETATM    5  C   UNK N   1      31.963  16.972   6.009  0.00  0.00    -0.006 A 
HETATM    6  C   UNK N   1      32.140  16.773   8.477  0.00  0.00     0.052 C 
HETATM    7  C   UNK N   1      31.292  17.211   4.853  0.00  0.00     0.082 A 
HETATM    8  C   UNK N   1      33.401  16.620   5.702  0.00  0.00     0.219 A 
HETATM    9  C   UNK N   1      29.944  17.554   4.833  0.00  0.00     0.091 A 
HETATM   10  C   UNK N   1      32.239  17.029   3.800  0.00  0.00     0.297 A 
HETATM   11  O   UNK N   1      33.440  16.690   4.308  0.00  0.00    -0.313 OA
HETATM   12  O   UNK N   1      32.017  17.153   2.608  0.00  0.00    -0.259 OA
BRANCH   3  13
HETATM   13  O   UNK N   1      29.224  17.507   8.443  0.00  0.00    -0.355 OA
HETATM   14  C   UNK N   1      29.365  18.466   9.419  0.00  0.00     0.210 C 
ENDBRANCH   3  13
BRANCH   9  15
HETATM   15  O   UNK N   1      29.316  17.778   3.665  0.00  0.00    -0.359 OA
HETATM   16  H   UNK N   1      29.033  18.639   3.425  0.00  0.00     0.217 HD
ENDBRANCH   9  15
ENDBRANCH   1   2
BRANCH   1  17
HETATM   17  C   UNK N   1      27.545  19.466   6.363  0.00  0.00    -0.020 C 
HETATM   18  C   UNK N   1      26.969  20.308   5.494  0.00  0.00    -0.087 C 
HETATM   19  C   UNK N   1      26.766  21.729   5.896  0.00  0.00     0.043 C 
BRANCH  18  20
HETATM   20  C   UNK N   1      26.505  19.867   4.132  0.00  0.00     0.043 C 
BRANCH  20  21
HETATM   21  C   UNK N   1      24.989  19.716   4.065  0.00  0.00     0.115 C 
BRANCH  21  22
HETATM   22  C   UNK N   1      24.447  20.564   2.970  0.00  0.00     0.259 C 
HETATM   23  O   UNK N   1      25.119  20.755   1.968  0.00  0.00    -0.265 OA
BRANCH  22  24
HETATM   24  O   UNK N   1      23.200  21.080   3.084  0.00  0.00    -0.320 OA
BRANCH  24  25
HETATM   25  C   UNK N   1      22.110  20.506   2.474  0.00  0.00     0.209 C 
BRANCH  25  26
HETATM   26  C   UNK N   1      21.269  19.751   3.478  0.00  0.00     0.299 C 
BRANCH  26  27
HETATM   27  N   UNK N   1      21.328  18.336   3.161  0.00  0.00     0.094 N 
HETATM   28  C   UNK N   1      20.273  18.036   2.193  0.00  0.00     0.298 C 
HETATM   29  C   UNK N   1      20.226  16.525   1.966  0.00  0.00     0.198 C 
HETATM   30  O   UNK N   1      19.913  15.885   3.180  0.00  0.00    -0.388 OA
HETATM   31  C   UNK N   1      21.001  16.094   4.048  0.00  0.00     0.198 C 
HETATM   32  C   UNK N   1      21.095  17.583   4.392  0.00  0.00     0.298 C 
ENDBRANCH  26  27
ENDBRANCH  25  26
ENDBRANCH  24  25
ENDBRANCH  22  24
ENDBRANCH  21  22
ENDBRANCH  20  21
ENDBRANCH  18  20
ENDBRANCH   1  17
TORSDOF 11
ENDMDL
MODEL 2
REMARK VINA RESULT:      -7.4     10.473     13.161
REMARK  11 active torsions:
REMARK  status: ('A' for Active; 'I' for Inactive)
REMARK    1  A    between atoms: O_3  and  C_18 
REMARK    2  A    between atoms: O_3  and  C_29 
REMARK    3  A    between atoms: O_4  and  C_19 
REMARK    4  A    between atoms: O_5  and  C_20 
REMARK    5  A    between atoms: N_8  and  C_11 
REMARK    6  A    between atoms: C_11  and  C_18 
REMARK    7  A    between atoms: C_15  and  C_21 
REMARK    8  A    between atoms: C_21  and  C_23 
REMARK    9  A    between atoms: C_25  and  C_26 
REMARK   10  A    between atoms: C_25  and  C_28 
REMARK   11  A    between atoms: C_28  and  C_29 
ROOT
HETATM    1  C   UNK N   1      27.331  23.824  -6.079  0.00  0.00     0.072 C 
ENDROOT
BRANCH   1   2
HETATM    2  C   UNK N   1      28.513  23.080  -5.513  0.00  0.00     0.013 A 
HETATM    3  C   UNK N   1      29.232  22.171  -6.341  0.00  0.00     0.084 A 
HETATM    4  C   UNK N   1      30.363  21.477  -5.795  0.00  0.00    -0.018 A 
HETATM    5  C   UNK N   1      30.716  21.728  -4.467  0.00  0.00    -0.006 A 
HETATM    6  C   UNK N   1      31.187  20.507  -6.577  0.00  0.00     0.052 C 
HETATM    7  C   UNK N   1      30.018  22.600  -3.698  0.00  0.00     0.082 A 
HETATM    8  C   UNK N   1      31.858  21.140  -3.668  0.00  0.00     0.219 A 
HETATM    9  C   UNK N   1      28.913  23.296  -4.177  0.00  0.00     0.091 A 
HETATM   10  C   UNK N   1      30.659  22.605  -2.421  0.00  0.00     0.297 A 
HETATM   11  O   UNK N   1      31.712  21.763  -2.427  0.00  0.00    -0.313 OA
HETATM   12  O   UNK N   1      30.326  23.267  -1.455  0.00  0.00    -0.259 OA
BRANCH   3  13
HETATM   13  O   UNK N   1      28.804  22.012  -7.626  0.00  0.00    -0.355 OA
HETATM   14  C   UNK N   1      28.019  20.992  -8.112  0.00  0.00     0.210 C 
ENDBRANCH   3  13
BRANCH   9  15
HETATM   15  O   UNK N   1      28.251  24.155  -3.381  0.00  0.00    -0.359 OA
HETATM   16  H   UNK N   1      28.578  24.377  -2.531  0.00  0.00     0.217 HD
ENDBRANCH   9  15
ENDBRANCH   1   2
BRANCH   1  17
HETATM   17  C   UNK N   1      27.682  25.203  -6.568  0.00  0.00    -0.020 C 
HETATM   18  C   UNK N   1      26.866  26.264  -6.479  0.00  0.00    -0.087 C 
HETATM   19  C   UNK N   1      27.342  27.581  -6.989  0.00  0.00     0.043 C 
BRANCH  18  20
HETATM   20  C   UNK N   1      25.494  26.174  -5.868  0.00  0.00     0.043 C 
BRANCH  20  21
HETATM   21  C   UNK N   1      25.150  27.414  -5.049  0.00  0.00     0.115 C 
BRANCH  21  22
HETATM   22  C   UNK N   1      25.788  27.323  -3.708  0.00  0.00     0.259 C 
HETATM   23  O   UNK N   1      26.090  26.228  -3.258  0.00  0.00    -0.265 OA
BRANCH  22  24
HETATM   24  O   UNK N   1      26.061  28.460  -3.024  0.00  0.00    -0.320 OA
BRANCH  24  25
HETATM   25  C   UNK N   1      26.972  29.386  -3.474  0.00  0.00     0.209 C 
BRANCH  25  26
HETATM   26  C   UNK N   1      27.802  29.923  -2.329  0.00  0.00     0.299 C 
BRANCH  26  27
HETATM   27  N   UNK N   1      29.203  29.695  -2.628  0.00  0.00     0.094 N 
HETATM   28  C   UNK N   1      29.328  28.392  -3.282  0.00  0.00     0.298 C 
HETATM   29  C   UNK N   1      30.812  28.072  -3.464  0.00  0.00     0.198 C 
HETATM   30  O   UNK N   1      31.427  27.999  -2.200  0.00  0.00    -0.388 OA
HETATM   31  C   UNK N   1      31.395  29.294  -1.650  0.00  0.00     0.198 C 
HETATM   32  C   UNK N   1      29.942  29.686  -1.366  0.00  0.00     0.298 C 
ENDBRANCH  26  27
ENDBRANCH  25  26
ENDBRANCH  24  25
ENDBRANCH  22  24
ENDBRANCH  21  22
ENDBRANCH  20  21
ENDBRANCH  18  20
ENDBRANCH   1  17
TORSDOF 11
ENDMDL
MODEL 3
REMARK VINA RESULT:      -7.3      1.008      1.480
REMARK  11 active torsions:
REMARK  status: ('A' for Active; 'I' for Inactive)
REMARK    1  A    between atoms: O_3  and  C_18 
REMARK    2  A    between atoms: O_3  and  C_29 
REMARK    3  A    between atoms: O_4  and  C_19 
REMARK    4  A    between atoms: O_5  and  C_20 
REMARK    5  A    between atoms: N_8  and  C_11 
REMARK    6  A    between atoms: C_11  and  C_18 
REMARK    7  A    between atoms: C_15  and  C_21 
REMARK    8  A    between atoms: C_21  and  C_23 
REMARK    9  A    between atoms: C_25  and  C_26 
REMARK   10  A    between atoms: C_25  and  C_28 
REMARK   11  A    between atoms: C_28  and  C_29 
ROOT
HETATM    1  C   UNK N   1      28.110  17.888   6.301  0.00  0.00     0.072 C 
ENDROOT
BRANCH   1   2
HETATM    2  C   UNK N   1      29.586  17.592   6.239  0.00  0.00     0.013 A 
HETATM    3  C   UNK N   1      30.321  17.423   7.447  0.00  0.00     0.084 A 
HETATM    4  C   UNK N   1      31.723  17.130   7.375  0.00  0.00    -0.018 A 
HETATM    5  C   UNK N   1      32.313  17.017   6.114  0.00  0.00    -0.006 A 
HETATM    6  C   UNK N   1      32.583  16.931   8.581  0.00  0.00     0.052 C 
HETATM    7  C   UNK N   1      31.593  17.179   4.975  0.00  0.00     0.082 A 
HETATM    8  C   UNK N   1      33.753  16.709   5.770  0.00  0.00     0.219 A 
HETATM    9  C   UNK N   1      30.232  17.466   4.989  0.00  0.00     0.091 A 
HETATM   10  C   UNK N   1      32.509  16.990   3.896  0.00  0.00     0.297 A 
HETATM   11  O   UNK N   1      33.741  16.720   4.374  0.00  0.00    -0.313 OA
HETATM   12  O   UNK N   1      32.242  17.053   2.710  0.00  0.00    -0.259 OA
BRANCH   3  13
HETATM   13  O   UNK N   1      29.640  17.546   8.622  0.00  0.00    -0.355 OA
HETATM   14  C   UNK N   1      29.733  18.581   9.524  0.00  0.00     0.210 C 
ENDBRANCH   3  13
BRANCH   9  15
HETATM   15  O   UNK N   1      29.555  17.616   3.837  0.00  0.00    -0.359 OA
HETATM   16  H   UNK N   1      28.619  17.588   3.818  0.00  0.00     0.217 HD
ENDBRANCH   9  15
ENDBRANCH   1   2
BRANCH   1  17
HETATM   17  C   UNK N   1      27.811  19.335   6.587  0.00  0.00    -0.020 C 
HETATM   18  C   UNK N   1      27.448  20.227   5.653  0.00  0.00    -0.087 C 
HETATM   19  C   UNK N   1      27.165  21.629   6.071  0.00  0.00     0.043 C 
BRANCH  18  20
HETATM   20  C   UNK N   1      27.299  19.857   4.203  0.00  0.00     0.043 C 
BRANCH  20  21
HETATM   21  C   UNK N   1      26.435  20.858   3.443  0.00  0.00     0.115 C 
BRANCH  21  22
HETATM   22  C   UNK N   1      25.054  20.326   3.302  0.00  0.00     0.259 C 
HETATM   23  O   UNK N   1      24.387  20.633   2.325  0.00  0.00    -0.265 OA
BRANCH  22  24
HETATM   24  O   UNK N   1      24.570  19.475   4.239  0.00  0.00    -0.320 OA
BRANCH  24  25
HETATM   25  C   UNK N   1      24.156  18.202   3.929  0.00  0.00     0.209 C 
BRANCH  25  26
HETATM   26  C   UNK N   1      22.744  17.963   4.414  0.00  0.00     0.299 C 
BRANCH  26  27
HETATM   27  N   UNK N   1      21.822  18.357   3.365  0.00  0.00     0.094 N 
HETATM   28  C   UNK N   1      21.049  19.506   3.839  0.00  0.00     0.298 C 
HETATM   29  C   UNK N   1      19.972  19.835   2.806  0.00  0.00     0.198 C 
HETATM   30  O   UNK N   1      19.102  18.736   2.679  0.00  0.00    -0.388 OA
HETATM   31  C   UNK N   1      19.847  17.685   2.112  0.00  0.00     0.198 C 
HETATM   32  C   UNK N   1      20.923  17.234   3.104  0.00  0.00     0.298 C 
ENDBRANCH  26  27
ENDBRANCH  25  26
ENDBRANCH  24  25
ENDBRANCH  22  24
ENDBRANCH  21  22
ENDBRANCH  20  21
ENDBRANCH  18  20
ENDBRANCH   1  17
TORSDOF 11
ENDMDL
MODEL 4
REMARK VINA RESULT:      -7.2      1.457      2.885
REMARK  11 active torsions:
REMARK  status: ('A' for Active; 'I' for Inactive)
REMARK    1  A    between atoms: O_3  and  C_18 
REMARK    2  A    between atoms: O_3  and  C_29 
REMARK    3  A    between atoms: O_4  and  C_19 
REMARK    4  A    between atoms: O_5  and  C_20 
REMARK    5  A    between atoms: N_8  and  C_11 
REMARK    6  A    between atoms: C_11  and  C_18 
REMARK    7  A    between atoms: C_15  and  C_21 
REMARK    8  A    between atoms: C_21  and  C_23 
REMARK    9  A    between atoms: C_25  and  C_26 
REMARK   10  A    between atoms: C_25  and  C_28 
REMARK   11  A    between atoms: C_28  and  C_29 
ROOT
HETATM    1  C   UNK N   1      28.473  17.701   6.635  0.00  0.00     0.072 C 
ENDROOT
BRANCH   1   2
HETATM    2  C   UNK N   1      29.930  17.495   6.309  0.00  0.00     0.013 A 
HETATM    3  C   UNK N   1      30.333  17.357   4.950  0.00  0.00     0.084 A 
HETATM    4  C   UNK N   1      31.723  17.173   4.650  0.00  0.00    -0.018 A 
HETATM    5  C   UNK N   1      32.631  17.142   5.710  0.00  0.00    -0.006 A 
HETATM    6  C   UNK N   1      32.251  17.023   3.260  0.00  0.00     0.052 C 
HETATM    7  C   UNK N   1      32.225  17.278   6.998  0.00  0.00     0.082 A 
HETATM    8  C   UNK N   1      34.133  16.972   5.662  0.00  0.00     0.219 A 
HETATM    9  C   UNK N   1      30.890  17.456   7.343  0.00  0.00     0.091 A 
HETATM   10  C   UNK N   1      33.407  17.202   7.797  0.00  0.00     0.297 A 
HETATM   11  O   UNK N   1      34.489  17.028   7.011  0.00  0.00    -0.313 OA
HETATM   12  O   UNK N   1      33.458  17.283   9.011  0.00  0.00    -0.259 OA
BRANCH   3  13
HETATM   13  O   UNK N   1      29.361  17.413   3.994  0.00  0.00    -0.355 OA
HETATM   14  C   UNK N   1      28.791  16.349   3.335  0.00  0.00     0.210 C 
ENDBRANCH   3  13
BRANCH   9  15
HETATM   15  O   UNK N   1      30.531  17.590   8.633  0.00  0.00    -0.359 OA
HETATM   16  H   UNK N   1      30.795  16.962   9.276  0.00  0.00     0.217 HD
ENDBRANCH   9  15
ENDBRANCH   1   2
BRANCH   1  17
HETATM   17  C   UNK N   1      28.111  19.150   6.824  0.00  0.00    -0.020 C 
HETATM   18  C   UNK N   1      27.406  19.870   5.940  0.00  0.00    -0.087 C 
HETATM   19  C   UNK N   1      27.101  21.295   6.254  0.00  0.00     0.043 C 
BRANCH  18  20
HETATM   20  C   UNK N   1      26.897  19.286   4.650  0.00  0.00     0.043 C 
BRANCH  20  21
HETATM   21  C   UNK N   1      26.642  20.360   3.597  0.00  0.00     0.115 C 
BRANCH  21  22
HETATM   22  C   UNK N   1      25.282  20.188   3.021  0.00  0.00     0.259 C 
HETATM   23  O   UNK N   1      24.887  20.966   2.166  0.00  0.00    -0.265 OA
BRANCH  22  24
HETATM   24  O   UNK N   1      24.516  19.145   3.425  0.00  0.00    -0.320 OA
BRANCH  24  25
HETATM   25  C   UNK N   1      23.187  19.292   3.742  0.00  0.00     0.209 C 
BRANCH  25  26
HETATM   26  C   UNK N   1      22.679  18.085   4.499  0.00  0.00     0.299 C 
BRANCH  26  27
HETATM   27  N   UNK N   1      21.349  17.763   4.017  0.00  0.00     0.094 N 
HETATM   28  C   UNK N   1      21.463  16.673   3.047  0.00  0.00     0.298 C 
HETATM   29  C   UNK N   1      20.091  16.427   2.419  0.00  0.00     0.198 C 
HETATM   30  O   UNK N   1      19.678  17.589   1.740  0.00  0.00    -0.388 OA
HETATM   31  C   UNK N   1      19.464  18.582   2.714  0.00  0.00     0.198 C 
HETATM   32  C   UNK N   1      20.802  18.950   3.363  0.00  0.00     0.298 C 
ENDBRANCH  26  27
ENDBRANCH  25  26
ENDBRANCH  24  25
ENDBRANCH  22  24
ENDBRANCH  21  22
ENDBRANCH  20  21
ENDBRANCH  18  20
ENDBRANCH   1  17
TORSDOF 11
ENDMDL
MODEL 5
REMARK VINA RESULT:      -7.2      2.908      9.633
REMARK  11 active torsions:
REMARK  status: ('A' for Active; 'I' for Inactive)
REMARK    1  A    between atoms: O_3  and  C_18 
REMARK    2  A    between atoms: O_3  and  C_29 
REMARK    3  A    between atoms: O_4  and  C_19 
REMARK    4  A    between atoms: O_5  and  C_20 
REMARK    5  A    between atoms: N_8  and  C_11 
REMARK    6  A    between atoms: C_11  and  C_18 
REMARK    7  A    between atoms: C_15  and  C_21 
REMARK    8  A    between atoms: C_21  and  C_23 
REMARK    9  A    between atoms: C_25  and  C_26 
REMARK   10  A    between atoms: C_25  and  C_28 
REMARK   11  A    between atoms: C_28  and  C_29 
ROOT
HETATM    1  C   UNK N   1      26.050  19.395   3.579  0.00  0.00     0.072 C 
ENDROOT
BRANCH   1   2
HETATM    2  C   UNK N   1      24.562  19.161   3.622  0.00  0.00     0.013 A 
HETATM    3  C   UNK N   1      24.046  18.057   4.360  0.00  0.00     0.084 A 
HETATM    4  C   UNK N   1      22.627  17.852   4.404  0.00  0.00    -0.018 A 
HETATM    5  C   UNK N   1      21.805  18.750   3.720  0.00  0.00    -0.006 A 
HETATM    6  C   UNK N   1      21.983  16.729   5.151  0.00  0.00     0.052 C 
HETATM    7  C   UNK N   1      22.319  19.796   3.025  0.00  0.00     0.082 A 
HETATM    8  C   UNK N   1      20.296  18.760   3.618  0.00  0.00     0.219 A 
HETATM    9  C   UNK N   1      23.686  20.040   2.948  0.00  0.00     0.091 A 
HETATM   10  C   UNK N   1      21.201  20.491   2.470  0.00  0.00     0.297 A 
HETATM   11  O   UNK N   1      20.053  19.881   2.823  0.00  0.00    -0.313 OA
HETATM   12  O   UNK N   1      21.252  21.492   1.778  0.00  0.00    -0.259 OA
BRANCH   3  13
HETATM   13  O   UNK N   1      24.941  17.250   4.998  0.00  0.00    -0.355 OA
HETATM   14  C   UNK N   1      25.476  16.076   4.521  0.00  0.00     0.210 C 
ENDBRANCH   3  13
BRANCH   9  15
HETATM   15  O   UNK N   1      24.153  21.091   2.251  0.00  0.00    -0.359 OA
HETATM   16  H   UNK N   1      23.787  21.322   1.421  0.00  0.00     0.217 HD
ENDBRANCH   9  15
ENDBRANCH   1   2
BRANCH   1  17
HETATM   17  C   UNK N   1      26.488  20.560   4.426  0.00  0.00    -0.020 C 
HETATM   18  C   UNK N   1      27.101  20.440   5.612  0.00  0.00    -0.087 C 
HETATM   19  C   UNK N   1      27.497  21.676   6.345  0.00  0.00     0.043 C 
BRANCH  18  20
HETATM   20  C   UNK N   1      27.418  19.102   6.222  0.00  0.00     0.043 C 
BRANCH  20  21
HETATM   21  C   UNK N   1      28.289  19.233   7.467  0.00  0.00     0.115 C 
BRANCH  21  22
HETATM   22  C   UNK N   1      28.468  17.898   8.098  0.00  0.00     0.259 C 
HETATM   23  O   UNK N   1      27.806  16.951   7.701  0.00  0.00    -0.265 OA
BRANCH  22  24
HETATM   24  O   UNK N   1      29.392  17.743   9.077  0.00  0.00    -0.320 OA
BRANCH  24  25
HETATM   25  C   UNK N   1      30.740  17.696   8.812  0.00  0.00     0.209 C 
BRANCH  25  26
HETATM   26  C   UNK N   1      31.204  16.266   8.645  0.00  0.00     0.299 C 
BRANCH  26  27
HETATM   27  N   UNK N   1      32.272  16.238   7.663  0.00  0.00     0.094 N 
HETATM   28  C   UNK N   1      33.537  16.498   8.352  0.00  0.00     0.298 C 
HETATM   29  C   UNK N   1      34.649  16.622   7.310  0.00  0.00     0.198 C 
HETATM   30  O   UNK N   1      34.369  17.712   6.464  0.00  0.00    -0.388 OA
HETATM   31  C   UNK N   1      33.214  17.379   5.732  0.00  0.00     0.198 C 
HETATM   32  C   UNK N   1      32.018  17.294   6.685  0.00  0.00     0.298 C 
ENDBRANCH  26  27
ENDBRANCH  25  26
ENDBRANCH  24  25
ENDBRANCH  22  24
ENDBRANCH  21  22
ENDBRANCH  20  21
ENDBRANCH  18  20
ENDBRANCH   1  17
TORSDOF 11
ENDMDL
MODEL 6
REMARK VINA RESULT:      -7.0      2.348      3.506
REMARK  11 active torsions:
REMARK  status: ('A' for Active; 'I' for Inactive)
REMARK    1  A    between atoms: O_3  and  C_18 
REMARK    2  A    between atoms: O_3  and  C_29 
REMARK    3  A    between atoms: O_4  and  C_19 
REMARK    4  A    between atoms: O_5  and  C_20 
REMARK    5  A    between atoms: N_8  and  C_11 
REMARK    6  A    between atoms: C_11  and  C_18 
REMARK    7  A    between atoms: C_15  and  C_21 
REMARK    8  A    between atoms: C_21  and  C_23 
REMARK    9  A    between atoms: C_25  and  C_26 
REMARK   10  A    between atoms: C_25  and  C_28 
REMARK   11  A    between atoms: C_28  and  C_29 
ROOT
HETATM    1  C   UNK N   1      27.970  17.911   6.269  0.00  0.00     0.072 C 
ENDROOT
BRANCH   1   2
HETATM    2  C   UNK N   1      29.447  17.618   6.206  0.00  0.00     0.013 A 
HETATM    3  C   UNK N   1      30.181  17.444   7.414  0.00  0.00     0.084 A 
HETATM    4  C   UNK N   1      31.584  17.154   7.342  0.00  0.00    -0.018 A 
HETATM    5  C   UNK N   1      32.175  17.049   6.081  0.00  0.00    -0.006 A 
HETATM    6  C   UNK N   1      32.443  16.949   8.547  0.00  0.00     0.052 C 
HETATM    7  C   UNK N   1      31.455  17.217   4.942  0.00  0.00     0.082 A 
HETATM    8  C   UNK N   1      33.615  16.746   5.736  0.00  0.00     0.219 A 
HETATM    9  C   UNK N   1      30.094  17.502   4.957  0.00  0.00     0.091 A 
HETATM   10  C   UNK N   1      32.373  17.036   3.863  0.00  0.00     0.297 A 
HETATM   11  O   UNK N   1      33.605  16.766   4.341  0.00  0.00    -0.313 OA
HETATM   12  O   UNK N   1      32.106  17.106   2.677  0.00  0.00    -0.259 OA
BRANCH   3  13
HETATM   13  O   UNK N   1      29.498  17.559   8.590  0.00  0.00    -0.355 OA
HETATM   14  C   UNK N   1      29.626  18.563   9.521  0.00  0.00     0.210 C 
ENDBRANCH   3  13
BRANCH   9  15
HETATM   15  O   UNK N   1      29.418  17.657   3.804  0.00  0.00    -0.359 OA
HETATM   16  H   UNK N   1      28.482  17.610   3.782  0.00  0.00     0.217 HD
ENDBRANCH   9  15
ENDBRANCH   1   2
BRANCH   1  17
HETATM   17  C   UNK N   1      27.668  19.350   6.591  0.00  0.00    -0.020 C 
HETATM   18  C   UNK N   1      27.435  20.295   5.668  0.00  0.00    -0.087 C 
HETATM   19  C   UNK N   1      27.133  21.682   6.120  0.00  0.00     0.043 C 
BRANCH  18  20
HETATM   20  C   UNK N   1      27.450  19.999   4.193  0.00  0.00     0.043 C 
BRANCH  20  21
HETATM   21  C   UNK N   1      26.207  20.534   3.489  0.00  0.00     0.115 C 
BRANCH  21  22
HETATM   22  C   UNK N   1      25.126  19.514   3.533  0.00  0.00     0.259 C 
HETATM   23  O   UNK N   1      23.965  19.860   3.373  0.00  0.00    -0.265 OA
BRANCH  22  24
HETATM   24  O   UNK N   1      25.449  18.210   3.710  0.00  0.00    -0.320 OA
BRANCH  24  25
HETATM   25  C   UNK N   1      24.510  17.260   4.035  0.00  0.00     0.209 C 
BRANCH  25  26
HETATM   26  C   UNK N   1      24.816  15.946   3.350  0.00  0.00     0.299 C 
BRANCH  26  27
HETATM   27  N   UNK N   1      26.254  15.752   3.344  0.00  0.00     0.094 N 
HETATM   28  C   UNK N   1      26.640  15.213   2.039  0.00  0.00     0.298 C 
HETATM   29  C   UNK N   1      28.127  14.860   2.072  0.00  0.00     0.198 C 
HETATM   30  O   UNK N   1      28.346  13.869   3.046  0.00  0.00    -0.388 OA
HETATM   31  C   UNK N   1      28.079  14.455   4.298  0.00  0.00     0.198 C 
HETATM   32  C   UNK N   1      26.587  14.789   4.392  0.00  0.00     0.298 C 
ENDBRANCH  26  27
ENDBRANCH  25  26
ENDBRANCH  24  25
ENDBRANCH  22  24
ENDBRANCH  21  22
ENDBRANCH  20  21
ENDBRANCH  18  20
ENDBRANCH   1  17
TORSDOF 11
ENDMDL
MODEL 7
REMARK VINA RESULT:      -6.8      3.947      8.487
REMARK  11 active torsions:
REMARK  status: ('A' for Active; 'I' for Inactive)
REMARK    1  A    between atoms: O_3  and  C_18 
REMARK    2  A    between atoms: O_3  and  C_29 
REMARK    3  A    between atoms: O_4  and  C_19 
REMARK    4  A    between atoms: O_5  and  C_20 
REMARK    5  A    between atoms: N_8  and  C_11 
REMARK    6  A    between atoms: C_11  and  C_18 
REMARK    7  A    between atoms: C_15  and  C_21 
REMARK    8  A    between atoms: C_21  and  C_23 
REMARK    9  A    between atoms: C_25  and  C_26 
REMARK   10  A    between atoms: C_25  and  C_28 
REMARK   11  A    between atoms: C_28  and  C_29 
ROOT
HETATM    1  C   UNK N   1      22.927  16.410   5.731  0.00  0.00     0.072 C 
ENDROOT
BRANCH   1   2
HETATM    2  C   UNK N   1      22.587  15.432   6.825  0.00  0.00     0.013 A 
HETATM    3  C   UNK N   1      23.507  14.393   7.149  0.00  0.00     0.084 A 
HETATM    4  C   UNK N   1      23.179  13.475   8.201  0.00  0.00    -0.018 A 
HETATM    5  C   UNK N   1      21.965  13.641   8.871  0.00  0.00    -0.006 A 
HETATM    6  C   UNK N   1      24.074  12.355   8.622  0.00  0.00     0.052 C 
HETATM    7  C   UNK N   1      21.105  14.639   8.547  0.00  0.00     0.082 A 
HETATM    8  C   UNK N   1      21.395  12.823  10.008  0.00  0.00     0.219 A 
HETATM    9  C   UNK N   1      21.373  15.554   7.535  0.00  0.00     0.091 A 
HETATM   10  C   UNK N   1      19.990  14.504   9.430  0.00  0.00     0.297 A 
HETATM   11  O   UNK N   1      20.178  13.458  10.260  0.00  0.00    -0.313 OA
HETATM   12  O   UNK N   1      19.004  15.219   9.453  0.00  0.00    -0.259 OA
BRANCH   3  13
HETATM   13  O   UNK N   1      24.668  14.332   6.435  0.00  0.00    -0.355 OA
HETATM   14  C   UNK N   1      24.945  13.490   5.384  0.00  0.00     0.210 C 
ENDBRANCH   3  13
BRANCH   9  15
HETATM   15  O   UNK N   1      20.494  16.531   7.249  0.00  0.00    -0.359 OA
HETATM   16  H   UNK N   1      20.675  17.424   7.469  0.00  0.00     0.217 HD
ENDBRANCH   9  15
ENDBRANCH   1   2
BRANCH   1  17
HETATM   17  C   UNK N   1      22.333  16.034   4.400  0.00  0.00    -0.020 C 
HETATM   18  C   UNK N   1      21.509  16.821   3.694  0.00  0.00    -0.087 C 
HETATM   19  C   UNK N   1      21.001  16.335   2.379  0.00  0.00     0.043 C 
BRANCH  18  20
HETATM   20  C   UNK N   1      21.091  18.184   4.174  0.00  0.00     0.043 C 
BRANCH  20  21
HETATM   21  C   UNK N   1      21.028  19.198   3.036  0.00  0.00     0.115 C 
BRANCH  21  22
HETATM   22  C   UNK N   1      22.191  20.120   3.117  0.00  0.00     0.259 C 
HETATM   23  O   UNK N   1      22.123  21.223   2.597  0.00  0.00    -0.265 OA
BRANCH  22  24
HETATM   24  O   UNK N   1      23.296  19.737   3.802  0.00  0.00    -0.320 OA
BRANCH  24  25
HETATM   25  C   UNK N   1      24.554  20.185   3.474  0.00  0.00     0.209 C 
BRANCH  25  26
HETATM   26  C   UNK N   1      25.539  19.038   3.439  0.00  0.00     0.299 C 
BRANCH  26  27
HETATM   27  N   UNK N   1      26.682  19.385   4.263  0.00  0.00     0.094 N 
HETATM   28  C   UNK N   1      26.850  18.344   5.278  0.00  0.00     0.298 C 
HETATM   29  C   UNK N   1      27.953  18.773   6.246  0.00  0.00     0.198 C 
HETATM   30  O   UNK N   1      27.567  19.964   6.888  0.00  0.00    -0.388 OA
HETATM   31  C   UNK N   1      27.530  20.969   5.904  0.00  0.00     0.198 C 
HETATM   32  C   UNK N   1      26.403  20.665   4.912  0.00  0.00     0.298 C 
ENDBRANCH  26  27
ENDBRANCH  25  26
ENDBRANCH  24  25
ENDBRANCH  22  24
ENDBRANCH  21  22
ENDBRANCH  20  21
ENDBRANCH  18  20
ENDBRANCH   1  17
TORSDOF 11
ENDMDL
MODEL 8
REMARK VINA RESULT:      -6.8      8.672     13.479
REMARK  11 active torsions:
REMARK  status: ('A' for Active; 'I' for Inactive)
REMARK    1  A    between atoms: O_3  and  C_18 
REMARK    2  A    between atoms: O_3  and  C_29 
REMARK    3  A    between atoms: O_4  and  C_19 
REMARK    4  A    between atoms: O_5  and  C_20 
REMARK    5  A    between atoms: N_8  and  C_11 
REMARK    6  A    between atoms: C_11  and  C_18 
REMARK    7  A    between atoms: C_15  and  C_21 
REMARK    8  A    between atoms: C_21  and  C_23 
REMARK    9  A    between atoms: C_25  and  C_26 
REMARK   10  A    between atoms: C_25  and  C_28 
REMARK   11  A    between atoms: C_28  and  C_29 
ROOT
HETATM    1  C   UNK N   1      34.574  11.763  13.854  0.00  0.00     0.072 C 
ENDROOT
BRANCH   1   2
HETATM    2  C   UNK N   1      34.822  11.591  15.330  0.00  0.00     0.013 A 
HETATM    3  C   UNK N   1      34.995  10.283  15.866  0.00  0.00     0.084 A 
HETATM    4  C   UNK N   1      35.242  10.132  17.271  0.00  0.00    -0.018 A 
HETATM    5  C   UNK N   1      35.308  11.283  18.059  0.00  0.00    -0.006 A 
HETATM    6  C   UNK N   1      35.442   8.807  17.932  0.00  0.00     0.052 C 
HETATM    7  C   UNK N   1      35.143  12.520  17.527  0.00  0.00     0.082 A 
HETATM    8  C   UNK N   1      35.563  11.395  19.545  0.00  0.00     0.219 A 
HETATM    9  C   UNK N   1      34.898  12.721  16.172  0.00  0.00     0.091 A 
HETATM   10  C   UNK N   1      35.279  13.440  18.611  0.00  0.00     0.297 A 
HETATM   11  O   UNK N   1      35.520  12.774  19.758  0.00  0.00    -0.313 OA
HETATM   12  O   UNK N   1      35.196  14.653  18.536  0.00  0.00    -0.259 OA
BRANCH   3  13
HETATM   13  O   UNK N   1      34.920   9.231  15.001  0.00  0.00    -0.355 OA
HETATM   14  C   UNK N   1      35.966   8.462  14.546  0.00  0.00     0.210 C 
ENDBRANCH   3  13
BRANCH   9  15
HETATM   15  O   UNK N   1      34.744  13.966  15.685  0.00  0.00    -0.359 OA
HETATM   16  H   UNK N   1      34.877  14.149  14.776  0.00  0.00     0.217 HD
ENDBRANCH   9  15
ENDBRANCH   1   2
BRANCH   1  17
HETATM   17  C   UNK N   1      35.843  11.853  13.050  0.00  0.00    -0.020 C 
HETATM   18  C   UNK N   1      36.243  12.954  12.396  0.00  0.00    -0.087 C 
HETATM   19  C   UNK N   1      37.531  12.917  11.647  0.00  0.00     0.043 C 
BRANCH  18  20
HETATM   20  C   UNK N   1      35.445  14.229  12.405  0.00  0.00     0.043 C 
BRANCH  20  21
HETATM   21  C   UNK N   1      35.032  14.656  11.000  0.00  0.00     0.115 C 
BRANCH  21  22
HETATM   22  C   UNK N   1      35.592  15.999  10.697  0.00  0.00     0.259 C 
HETATM   23  O   UNK N   1      36.769  16.227  10.932  0.00  0.00    -0.265 OA
BRANCH  22  24
HETATM   24  O   UNK N   1      34.799  16.938  10.127  0.00  0.00    -0.320 OA
BRANCH  24  25
HETATM   25  C   UNK N   1      34.216  16.755   8.895  0.00  0.00     0.209 C 
BRANCH  25  26
HETATM   26  C   UNK N   1      33.863  18.085   8.266  0.00  0.00     0.299 C 
BRANCH  26  27
HETATM   27  N   UNK N   1      32.656  17.918   7.479  0.00  0.00     0.094 N 
HETATM   28  C   UNK N   1      31.528  17.754   8.396  0.00  0.00     0.298 C 
HETATM   29  C   UNK N   1      30.275  17.426   7.584  0.00  0.00     0.198 C 
HETATM   30  O   UNK N   1      30.473  16.212   6.899  0.00  0.00    -0.388 OA
HETATM   31  C   UNK N   1      31.483  16.438   5.945  0.00  0.00     0.198 C 
HETATM   32  C   UNK N   1      32.806  16.714   6.664  0.00  0.00     0.298 C 
ENDBRANCH  26  27
ENDBRANCH  25  26
ENDBRANCH  24  25
ENDBRANCH  22  24
ENDBRANCH  21  22
ENDBRANCH  20  21
ENDBRANCH  18  20
ENDBRANCH   1  17
TORSDOF 11
ENDMDL
MODEL 9
REMARK VINA RESULT:      -6.8     10.641     13.179
REMARK  11 active torsions:
REMARK  status: ('A' for Active; 'I' for Inactive)
REMARK    1  A    between atoms: O_3  and  C_18 
REMARK    2  A    between atoms: O_3  and  C_29 
REMARK    3  A    between atoms: O_4  and  C_19 
REMARK    4  A    between atoms: O_5  and  C_20 
REMARK    5  A    between atoms: N_8  and  C_11 
REMARK    6  A    between atoms: C_11  and  C_18 
REMARK    7  A    between atoms: C_15  and  C_21 
REMARK    8  A    between atoms: C_21  and  C_23 
REMARK    9  A    between atoms: C_25  and  C_26 
REMARK   10  A    between atoms: C_25  and  C_28 
REMARK   11  A    between atoms: C_28  and  C_29 
ROOT
HETATM    1  C   UNK N   1      27.970  23.424  -6.562  0.00  0.00     0.072 C 
ENDROOT
BRANCH   1   2
HETATM    2  C   UNK N   1      29.099  22.756  -5.821  0.00  0.00     0.013 A 
HETATM    3  C   UNK N   1      29.932  21.822  -6.502  0.00  0.00     0.084 A 
HETATM    4  C   UNK N   1      31.011  21.201  -5.790  0.00  0.00    -0.018 A 
HETATM    5  C   UNK N   1      31.204  21.543  -4.450  0.00  0.00    -0.006 A 
HETATM    6  C   UNK N   1      31.944  20.214  -6.412  0.00  0.00     0.052 C 
HETATM    7  C   UNK N   1      30.400  22.437  -3.821  0.00  0.00     0.082 A 
HETATM    8  C   UNK N   1      32.262  21.044  -3.492  0.00  0.00     0.219 A 
HETATM    9  C   UNK N   1      29.339  23.066  -4.464  0.00  0.00     0.091 A 
HETATM   10  C   UNK N   1      30.891  22.541  -2.484  0.00  0.00     0.297 A 
HETATM   11  O   UNK N   1      31.959  21.735  -2.317  0.00  0.00    -0.313 OA
HETATM   12  O   UNK N   1      30.433  23.249  -1.605  0.00  0.00    -0.259 OA
BRANCH   3  13
HETATM   13  O   UNK N   1      29.657  21.572  -7.815  0.00  0.00    -0.355 OA
HETATM   14  C   UNK N   1      29.042  20.454  -8.328  0.00  0.00     0.210 C 
ENDBRANCH   3  13
BRANCH   9  15
HETATM   15  O   UNK N   1      28.568  23.949  -3.804  0.00  0.00    -0.359 OA
HETATM   16  H   UNK N   1      28.086  23.695  -3.042  0.00  0.00     0.217 HD
ENDBRANCH   9  15
ENDBRANCH   1   2
BRANCH   1  17
HETATM   17  C   UNK N   1      26.682  22.649  -6.496  0.00  0.00    -0.020 C 
HETATM   18  C   UNK N   1      25.906  22.388  -7.558  0.00  0.00    -0.087 C 
HETATM   19  C   UNK N   1      24.660  21.594  -7.360  0.00  0.00     0.043 C 
BRANCH  18  20
HETATM   20  C   UNK N   1      26.256  22.854  -8.944  0.00  0.00     0.043 C 
BRANCH  20  21
HETATM   21  C   UNK N   1      25.510  24.128  -9.326  0.00  0.00     0.115 C 
BRANCH  21  22
HETATM   22  C   UNK N   1      26.453  25.278  -9.342  0.00  0.00     0.259 C 
HETATM   23  O   UNK N   1      27.492  25.195  -9.978  0.00  0.00    -0.265 OA
BRANCH  22  24
HETATM   24  O   UNK N   1      26.125  26.415  -8.682  0.00  0.00    -0.320 OA
BRANCH  24  25
HETATM   25  C   UNK N   1      25.906  26.438  -7.325  0.00  0.00     0.209 C 
BRANCH  25  26
HETATM   26  C   UNK N   1      26.857  27.396  -6.644  0.00  0.00     0.299 C 
BRANCH  26  27
HETATM   27  N   UNK N   1      26.262  27.827  -5.392  0.00  0.00     0.094 N 
HETATM   28  C   UNK N   1      26.888  29.089  -4.995  0.00  0.00     0.298 C 
HETATM   29  C   UNK N   1      26.380  29.475  -3.606  0.00  0.00     0.198 C 
HETATM   30  O   UNK N   1      26.758  28.481  -2.683  0.00  0.00    -0.388 OA
HETATM   31  C   UNK N   1      26.048  27.314  -3.023  0.00  0.00     0.198 C 
HETATM   32  C   UNK N   1      26.534  26.804  -4.383  0.00  0.00     0.298 C 
ENDBRANCH  26  27
ENDBRANCH  25  26
ENDBRANCH  24  25
ENDBRANCH  22  24
ENDBRANCH  21  22
ENDBRANCH  20  21
ENDBRANCH  18  20
ENDBRANCH   1  17
TORSDOF 11
ENDMDL
