MODEL 1
REMARK VINA RESULT:      -7.0      0.000      0.000
REMARK  4 active torsions:
REMARK  status: ('A' for Active; 'I' for Inactive)
REMARK    1  A    between atoms: C_7  and  O_2 
REMARK    2  A    between atoms: O_4  and  C_24 
REMARK    3  A    between atoms: N_5  and  C_16 
REMARK    4  A    between atoms: C_16  and  C_18 
ROOT
HETATM    1  O   UNK N   1      29.831  16.028   5.520  0.00  0.00    -0.334 OA
HETATM    2  O   UNK N   1      27.898  17.194   7.280  0.00  0.00    -0.295 OA
HETATM    3  N   UNK N   1      34.037  15.505   8.416  0.00  0.00     0.096 N 
HETATM    4  C   UNK N   1      31.400  16.011   7.265  0.00  0.00     0.058 C 
HETATM    5  C   UNK N   1      31.873  16.817   8.476  0.00  0.00     0.104 C 
HETATM    6  C   UNK N   1      33.447  16.859   8.378  0.00  0.00     0.262 C 
HETATM    7  C   UNK N   1      29.875  15.950   6.921  0.00  0.00     0.214 C 
HETATM    8  C   UNK N   1      31.963  14.579   7.362  0.00  0.00     0.051 C 
HETATM    9  C   UNK N   1      31.898  16.628   6.025  0.00  0.00    -0.001 A 
HETATM   10  C   UNK N   1      31.255  18.213   8.415  0.00  0.00     0.049 C 
HETATM   11  C   UNK N   1      33.492  14.554   7.437  0.00  0.00     0.274 C 
HETATM   12  C   UNK N   1      33.969  17.539   7.073  0.00  0.00     0.078 C 
HETATM   13  C   UNK N   1      33.115  17.265   5.859  0.00  0.00    -0.046 A 
HETATM   14  C   UNK N   1      29.721  18.171   8.400  0.00  0.00     0.084 C 
HETATM   15  C   UNK N   1      29.095  17.118   7.504  0.00  0.00     0.157 C 
HETATM   16  C   UNK N   1      30.983  16.523   5.049  0.00  0.00     0.110 A 
HETATM   17  C   UNK N   1      33.440  17.747   4.580  0.00  0.00     0.011 A 
HETATM   18  C   UNK N   1      31.269  16.966   3.755  0.00  0.00     0.099 A 
HETATM   19  C   UNK N   1      32.525  17.564   3.514  0.00  0.00     0.040 A 
ENDROOT
BRANCH   3  20
HETATM   20  C   UNK N   1      34.088  14.932   9.757  0.00  0.00     0.277 C 
BRANCH  20  21
HETATM   21  C   UNK N   1      34.865  15.860  10.686  0.00  0.00     0.014 A 
HETATM   22  C   UNK N   1      36.337  15.502  10.602  0.00  0.00     0.007 A 
HETATM   23  C   UNK N   1      35.535  15.083  11.811  0.00  0.00     0.007 A 
ENDBRANCH  20  21
ENDBRANCH   3  20
BRANCH   5  24
HETATM   24  O   UNK N   1      31.468  16.200   9.666  0.00  0.00    -0.386 OA
HETATM   25  H   UNK N   1      31.422  16.636  10.531  0.00  0.00     0.210 HD
ENDBRANCH   5  24
BRANCH  18  26
HETATM   26  O   UNK N   1      30.367  16.845   2.767  0.00  0.00    -0.358 OA
HETATM   27  H   UNK N   1      29.445  16.846   2.932  0.00  0.00     0.217 HD
ENDBRANCH  18  26
TORSDOF 4
ENDMDL
MODEL 2
REMARK VINA RESULT:      -6.8      9.901     11.580
REMARK  4 active torsions:
REMARK  status: ('A' for Active; 'I' for Inactive)
REMARK    1  A    between atoms: C_7  and  O_2 
REMARK    2  A    between atoms: O_4  and  C_24 
REMARK    3  A    between atoms: N_5  and  C_16 
REMARK    4  A    between atoms: C_16  and  C_18 
ROOT
HETATM    1  O   UNK N   1      19.882  18.133   2.857  0.00  0.00    -0.334 OA
HETATM    2  O   UNK N   1      21.507  20.442   3.331  0.00  0.00    -0.295 OA
HETATM    3  N   UNK N   1      21.693  14.610   6.121  0.00  0.00     0.096 N 
HETATM    4  C   UNK N   1      21.070  16.966   4.511  0.00  0.00     0.058 C 
HETATM    5  C   UNK N   1      22.469  16.793   5.102  0.00  0.00     0.104 C 
HETATM    6  C   UNK N   1      22.693  15.236   5.232  0.00  0.00     0.262 C 
HETATM    7  C   UNK N   1      20.594  18.381   4.041  0.00  0.00     0.214 C 
HETATM    8  C   UNK N   1      20.033  16.374   5.487  0.00  0.00     0.051 C 
HETATM    9  C   UNK N   1      20.972  16.246   3.230  0.00  0.00    -0.001 A 
HETATM   10  C   UNK N   1      23.487  17.444   4.166  0.00  0.00     0.049 C 
HETATM   11  C   UNK N   1      20.290  14.895   5.789  0.00  0.00     0.274 C 
HETATM   12  C   UNK N   1      22.615  14.483   3.867  0.00  0.00     0.078 C 
HETATM   13  C   UNK N   1      21.592  15.050   2.914  0.00  0.00    -0.046 A 
HETATM   14  C   UNK N   1      23.207  18.938   3.951  0.00  0.00     0.084 C 
HETATM   15  C   UNK N   1      21.754  19.315   3.732  0.00  0.00     0.157 C 
HETATM   16  C   UNK N   1      20.208  16.931   2.365  0.00  0.00     0.110 A 
HETATM   17  C   UNK N   1      21.335  14.486   1.653  0.00  0.00     0.011 A 
HETATM   18  C   UNK N   1      19.905  16.400   1.108  0.00  0.00     0.099 A 
HETATM   19  C   UNK N   1      20.458  15.149   0.759  0.00  0.00     0.040 A 
ENDROOT
BRANCH   3  20
HETATM   20  C   UNK N   1      21.967  14.815   7.538  0.00  0.00     0.277 C 
BRANCH  20  21
HETATM   21  C   UNK N   1      21.196  13.792   8.368  0.00  0.00     0.014 A 
HETATM   22  C   UNK N   1      20.442  14.528   9.459  0.00  0.00     0.007 A 
HETATM   23  C   UNK N   1      21.693  13.758   9.807  0.00  0.00     0.007 A 
ENDBRANCH  20  21
ENDBRANCH   3  20
BRANCH   5  24
HETATM   24  O   UNK N   1      22.554  17.411   6.355  0.00  0.00    -0.386 OA
HETATM   25  H   UNK N   1      22.411  16.967   7.206  0.00  0.00     0.210 HD
ENDBRANCH   5  24
BRANCH  18  26
HETATM   26  O   UNK N   1      19.123  17.068   0.244  0.00  0.00    -0.358 OA
HETATM   27  H   UNK N   1      19.453  17.409  -0.564  0.00  0.00     0.217 HD
ENDBRANCH  18  26
TORSDOF 4
ENDMDL
MODEL 3
REMARK VINA RESULT:      -6.8      2.920      6.348
REMARK  4 active torsions:
REMARK  status: ('A' for Active; 'I' for Inactive)
REMARK    1  A    between atoms: C_7  and  O_2 
REMARK    2  A    between atoms: O_4  and  C_24 
REMARK    3  A    between atoms: N_5  and  C_16 
REMARK    4  A    between atoms: C_16  and  C_18 
ROOT
HETATM    1  O   UNK N   1      32.048  16.713   7.689  0.00  0.00    -0.334 OA
HETATM    2  O   UNK N   1      34.537  17.507   6.519  0.00  0.00    -0.295 OA
HETATM    3  N   UNK N   1      29.355  14.782   3.770  0.00  0.00     0.096 N 
HETATM    4  C   UNK N   1      31.313  15.954   5.595  0.00  0.00     0.058 C 
HETATM    5  C   UNK N   1      31.373  16.274   4.101  0.00  0.00     0.104 C 
HETATM    6  C   UNK N   1      29.892  16.145   3.571  0.00  0.00     0.262 C 
HETATM    7  C   UNK N   1      32.570  16.197   6.494  0.00  0.00     0.214 C 
HETATM    8  C   UNK N   1      30.822  14.504   5.780  0.00  0.00     0.051 C 
HETATM    9  C   UNK N   1      30.364  16.858   6.266  0.00  0.00    -0.001 A 
HETATM   10  C   UNK N   1      31.928  17.686   3.919  0.00  0.00     0.049 C 
HETATM   11  C   UNK N   1      29.451  14.262   5.141  0.00  0.00     0.274 C 
HETATM   12  C   UNK N   1      28.897  17.125   4.268  0.00  0.00     0.078 C 
HETATM   13  C   UNK N   1      29.189  17.355   5.730  0.00  0.00    -0.046 A 
HETATM   14  C   UNK N   1      33.326  17.846   4.530  0.00  0.00     0.084 C 
HETATM   15  C   UNK N   1      33.529  17.214   5.895  0.00  0.00     0.157 C 
HETATM   16  C   UNK N   1      30.810  17.180   7.490  0.00  0.00     0.110 A 
HETATM   17  C   UNK N   1      28.382  18.167   6.545  0.00  0.00     0.011 A 
HETATM   18  C   UNK N   1      30.032  17.965   8.346  0.00  0.00     0.099 A 
HETATM   19  C   UNK N   1      28.791  18.444   7.873  0.00  0.00     0.040 A 
ENDROOT
BRANCH   3  20
HETATM   20  C   UNK N   1      29.841  13.818   2.789  0.00  0.00     0.277 C 
BRANCH  20  21
HETATM   21  C   UNK N   1      28.845  13.706   1.638  0.00  0.00     0.014 A 
HETATM   22  C   UNK N   1      27.586  13.036   2.154  0.00  0.00     0.007 A 
HETATM   23  C   UNK N   1      28.551  12.251   1.299  0.00  0.00     0.007 A 
ENDBRANCH  20  21
ENDBRANCH   3  20
BRANCH   5  24
HETATM   24  O   UNK N   1      32.216  15.373   3.438  0.00  0.00    -0.386 OA
HETATM   25  H   UNK N   1      32.558  15.490   2.539  0.00  0.00     0.210 HD
ENDBRANCH   5  24
BRANCH  18  26
HETATM   26  O   UNK N   1      30.460  18.274   9.581  0.00  0.00    -0.358 OA
HETATM   27  H   UNK N   1      29.969  18.053  10.348  0.00  0.00     0.217 HD
ENDBRANCH  18  26
TORSDOF 4
ENDMDL
MODEL 4
REMARK VINA RESULT:      -6.8      1.700      3.427
REMARK  4 active torsions:
REMARK  status: ('A' for Active; 'I' for Inactive)
REMARK    1  A    between atoms: C_7  and  O_2 
REMARK    2  A    between atoms: O_4  and  C_24 
REMARK    3  A    between atoms: N_5  and  C_16 
REMARK    4  A    between atoms: C_16  and  C_18 
ROOT
HETATM    1  O   UNK N   1      31.661  16.979   4.111  0.00  0.00    -0.334 OA
HETATM    2  O   UNK N   1      32.511  14.431   3.120  0.00  0.00    -0.295 OA
HETATM    3  N   UNK N   1      33.501  17.161   8.899  0.00  0.00     0.096 N 
HETATM    4  C   UNK N   1      32.725  16.532   6.154  0.00  0.00     0.058 C 
HETATM    5  C   UNK N   1      33.027  15.404   7.141  0.00  0.00     0.104 C 
HETATM    6  C   UNK N   1      32.682  15.976   8.570  0.00  0.00     0.262 C 
HETATM    7  C   UNK N   1      32.746  16.246   4.616  0.00  0.00     0.214 C 
HETATM    8  C   UNK N   1      33.641  17.732   6.466  0.00  0.00     0.051 C 
HETATM    9  C   UNK N   1      31.324  16.962   6.296  0.00  0.00    -0.001 A 
HETATM   10  C   UNK N   1      32.169  14.190   6.784  0.00  0.00     0.049 C 
HETATM   11  C   UNK N   1      33.477  18.239   7.901  0.00  0.00     0.274 C 
HETATM   12  C   UNK N   1      31.189  16.405   8.722  0.00  0.00     0.078 C 
HETATM   13  C   UNK N   1      30.597  17.009   7.472  0.00  0.00    -0.046 A 
HETATM   14  C   UNK N   1      32.424  13.697   5.354  0.00  0.00     0.084 C 
HETATM   15  C   UNK N   1      32.540  14.774   4.292  0.00  0.00     0.157 C 
HETATM   16  C   UNK N   1      30.810  17.284   5.099  0.00  0.00     0.110 A 
HETATM   17  C   UNK N   1      29.282  17.502   7.417  0.00  0.00     0.011 A 
HETATM   18  C   UNK N   1      29.515  17.800   4.996  0.00  0.00     0.099 A 
HETATM   19  C   UNK N   1      28.752  17.932   6.176  0.00  0.00     0.040 A 
ENDROOT
BRANCH   3  20
HETATM   20  C   UNK N   1      34.862  16.832   9.307  0.00  0.00     0.277 C 
BRANCH  20  21
HETATM   21  C   UNK N   1      34.832  15.741  10.374  0.00  0.00     0.014 A 
HETATM   22  C   UNK N   1      36.044  15.910  11.270  0.00  0.00     0.007 A 
HETATM   23  C   UNK N   1      36.024  14.804  10.243  0.00  0.00     0.007 A 
ENDBRANCH  20  21
ENDBRANCH   3  20
BRANCH   5  24
HETATM   24  O   UNK N   1      34.376  15.034   7.069  0.00  0.00    -0.386 OA
HETATM   25  H   UNK N   1      34.750  14.218   7.434  0.00  0.00     0.210 HD
ENDBRANCH   5  24
BRANCH  18  26
HETATM   26  O   UNK N   1      29.000  18.145   3.805  0.00  0.00    -0.358 OA
HETATM   27  H   UNK N   1      28.731  17.505   3.175  0.00  0.00     0.217 HD
ENDBRANCH  18  26
TORSDOF 4
ENDMDL
MODEL 5
REMARK VINA RESULT:      -6.7     13.893     17.155
REMARK  4 active torsions:
REMARK  status: ('A' for Active; 'I' for Inactive)
REMARK    1  A    between atoms: C_7  and  O_2 
REMARK    2  A    between atoms: O_4  and  C_24 
REMARK    3  A    between atoms: N_5  and  C_16 
REMARK    4  A    between atoms: C_16  and  C_18 
ROOT
HETATM    1  O   UNK N   1      26.073  25.171  -3.428  0.00  0.00    -0.334 OA
HETATM    2  O   UNK N   1      27.900  23.512  -1.977  0.00  0.00    -0.295 OA
HETATM    3  N   UNK N   1      27.145  24.236  -8.360  0.00  0.00     0.096 N 
HETATM    4  C   UNK N   1      26.955  24.364  -5.447  0.00  0.00     0.058 C 
HETATM    5  C   UNK N   1      28.261  23.926  -6.109  0.00  0.00     0.104 C 
HETATM    6  C   UNK N   1      28.292  24.636  -7.518  0.00  0.00     0.262 C 
HETATM    7  C   UNK N   1      26.692  24.022  -3.943  0.00  0.00     0.214 C 
HETATM    8  C   UNK N   1      25.768  23.872  -6.301  0.00  0.00     0.051 C 
HETATM    9  C   UNK N   1      26.898  25.833  -5.369  0.00  0.00    -0.001 A 
HETATM   10  C   UNK N   1      29.432  24.352  -5.224  0.00  0.00     0.049 C 
HETATM   11  C   UNK N   1      25.823  24.394  -7.739  0.00  0.00     0.274 C 
HETATM   12  C   UNK N   1      28.259  26.194  -7.426  0.00  0.00     0.078 C 
HETATM   13  C   UNK N   1      27.404  26.722  -6.301  0.00  0.00    -0.046 A 
HETATM   14  C   UNK N   1      29.348  23.748  -3.816  0.00  0.00     0.084 C 
HETATM   15  C   UNK N   1      27.976  23.764  -3.169  0.00  0.00     0.157 C 
HETATM   16  C   UNK N   1      26.305  26.218  -4.229  0.00  0.00     0.110 A 
HETATM   17  C   UNK N   1      27.207  28.096  -6.079  0.00  0.00     0.011 A 
HETATM   18  C   UNK N   1      26.065  27.572  -3.975  0.00  0.00     0.099 A 
HETATM   19  C   UNK N   1      26.501  28.520  -4.926  0.00  0.00     0.040 A 
ENDROOT
BRANCH   3  20
HETATM   20  C   UNK N   1      27.304  22.919  -8.967  0.00  0.00     0.277 C 
BRANCH  20  21
HETATM   21  C   UNK N   1      25.945  22.392  -9.420  0.00  0.00     0.014 A 
HETATM   22  C   UNK N   1      25.772  20.984  -8.884  0.00  0.00     0.007 A 
HETATM   23  C   UNK N   1      26.096  21.191 -10.344  0.00  0.00     0.007 A 
ENDBRANCH  20  21
ENDBRANCH   3  20
BRANCH   5  24
HETATM   24  O   UNK N   1      28.296  22.534  -6.257  0.00  0.00    -0.386 OA
HETATM   25  H   UNK N   1      27.646  21.918  -5.885  0.00  0.00     0.210 HD
ENDBRANCH   5  24
BRANCH  18  26
HETATM   26  O   UNK N   1      25.452  27.966  -2.846  0.00  0.00    -0.358 OA
HETATM   27  H   UNK N   1      25.641  27.578  -2.015  0.00  0.00     0.217 HD
ENDBRANCH  18  26
TORSDOF 4
ENDMDL
MODEL 6
REMARK VINA RESULT:      -6.4     12.254     15.640
REMARK  4 active torsions:
REMARK  status: ('A' for Active; 'I' for Inactive)
REMARK    1  A    between atoms: C_7  and  O_2 
REMARK    2  A    between atoms: O_4  and  C_24 
REMARK    3  A    between atoms: N_5  and  C_16 
REMARK    4  A    between atoms: C_16  and  C_18 
ROOT
HETATM    1  O   UNK N   1      31.793  21.910  -5.119  0.00  0.00    -0.334 OA
HETATM    2  O   UNK N   1      32.094  21.720  -2.279  0.00  0.00    -0.295 OA
HETATM    3  N   UNK N   1      29.078  26.207  -5.829  0.00  0.00     0.096 N 
HETATM    4  C   UNK N   1      30.591  23.907  -4.852  0.00  0.00     0.058 C 
HETATM    5  C   UNK N   1      29.576  24.597  -3.941  0.00  0.00     0.104 C 
HETATM    6  C   UNK N   1      28.489  25.221  -4.899  0.00  0.00     0.262 C 
HETATM    7  C   UNK N   1      31.698  22.992  -4.231  0.00  0.00     0.214 C 
HETATM    8  C   UNK N   1      31.250  24.963  -5.763  0.00  0.00     0.051 C 
HETATM    9  C   UNK N   1      29.912  22.914  -5.701  0.00  0.00    -0.001 A 
HETATM   10  C   UNK N   1      28.978  23.559  -2.991  0.00  0.00     0.049 C 
HETATM   11  C   UNK N   1      30.228  25.728  -6.608  0.00  0.00     0.274 C 
HETATM   12  C   UNK N   1      27.754  24.159  -5.777  0.00  0.00     0.078 C 
HETATM   13  C   UNK N   1      28.638  23.023  -6.229  0.00  0.00    -0.046 A 
HETATM   14  C   UNK N   1      30.047  22.871  -2.132  0.00  0.00     0.084 C 
HETATM   15  C   UNK N   1      31.319  22.468  -2.854  0.00  0.00     0.157 C 
HETATM   16  C   UNK N   1      30.694  21.839  -5.880  0.00  0.00     0.110 A 
HETATM   17  C   UNK N   1      28.178  21.992  -7.066  0.00  0.00     0.011 A 
HETATM   18  C   UNK N   1      30.291  20.798  -6.722  0.00  0.00     0.099 A 
HETATM   19  C   UNK N   1      29.025  20.890  -7.341  0.00  0.00     0.040 A 
ENDROOT
BRANCH   3  20
HETATM   20  C   UNK N   1      29.344  27.500  -5.210  0.00  0.00     0.277 C 
BRANCH  20  21
HETATM   21  C   UNK N   1      28.070  28.341  -5.202  0.00  0.00     0.014 A 
HETATM   22  C   UNK N   1      27.526  28.404  -6.616  0.00  0.00     0.007 A 
HETATM   23  C   UNK N   1      28.235  29.604  -6.037  0.00  0.00     0.007 A 
ENDBRANCH  20  21
ENDBRANCH   3  20
BRANCH   5  24
HETATM   24  O   UNK N   1      30.196  25.595  -3.180  0.00  0.00    -0.386 OA
HETATM   25  H   UNK N   1      30.367  25.543  -2.227  0.00  0.00     0.210 HD
ENDBRANCH   5  24
BRANCH  18  26
HETATM   26  O   UNK N   1      31.076  19.727  -6.924  0.00  0.00    -0.358 OA
HETATM   27  H   UNK N   1      30.841  18.873  -6.620  0.00  0.00     0.217 HD
ENDBRANCH  18  26
TORSDOF 4
ENDMDL
MODEL 7
REMARK VINA RESULT:      -6.3      8.345     10.802
REMARK  4 active torsions:
REMARK  status: ('A' for Active; 'I' for Inactive)
REMARK    1  A    between atoms: C_7  and  O_2 
REMARK    2  A    between atoms: O_4  and  C_24 
REMARK    3  A    between atoms: N_5  and  C_16 
REMARK    4  A    between atoms: C_16  and  C_18 
ROOT
HETATM    1  O   UNK N   1      19.056  16.621   3.912  0.00  0.00    -0.334 OA
HETATM    2  O   UNK N   1      18.137  15.991   6.548  0.00  0.00    -0.295 OA
HETATM    3  N   UNK N   1      24.158  16.132   4.191  0.00  0.00     0.096 N 
HETATM    4  C   UNK N   1      21.267  16.238   4.598  0.00  0.00     0.058 C 
HETATM    5  C   UNK N   1      22.213  16.412   5.787  0.00  0.00     0.104 C 
HETATM    6  C   UNK N   1      23.542  17.024   5.195  0.00  0.00     0.262 C 
HETATM    7  C   UNK N   1      19.770  15.855   4.846  0.00  0.00     0.214 C 
HETATM    8  C   UNK N   1      21.892  15.247   3.597  0.00  0.00     0.051 C 
HETATM    9  C   UNK N   1      21.071  17.530   3.918  0.00  0.00    -0.001 A 
HETATM   10  C   UNK N   1      21.559  17.339   6.810  0.00  0.00     0.049 C 
HETATM   11  C   UNK N   1      23.269  15.700   3.103  0.00  0.00     0.274 C 
HETATM   12  C   UNK N   1      23.332  18.405   4.499  0.00  0.00     0.078 C 
HETATM   13  C   UNK N   1      22.019  18.526   3.765  0.00  0.00    -0.046 A 
HETATM   14  C   UNK N   1      20.211  16.799   7.307  0.00  0.00     0.084 C 
HETATM   15  C   UNK N   1      19.297  16.218   6.245  0.00  0.00     0.157 C 
HETATM   16  C   UNK N   1      19.809  17.640   3.478  0.00  0.00     0.110 A 
HETATM   17  C   UNK N   1      21.661  19.673   3.036  0.00  0.00     0.011 A 
HETATM   18  C   UNK N   1      19.411  18.750   2.727  0.00  0.00     0.099 A 
HETATM   19  C   UNK N   1      20.360  19.768   2.484  0.00  0.00     0.040 A 
ENDROOT
BRANCH   3  20
HETATM   20  C   UNK N   1      24.880  15.009   4.778  0.00  0.00     0.277 C 
BRANCH  20  21
HETATM   21  C   UNK N   1      25.960  15.526   5.723  0.00  0.00     0.014 A 
HETATM   22  C   UNK N   1      27.108  16.067   4.892  0.00  0.00     0.007 A 
HETATM   23  C   UNK N   1      27.250  14.730   5.579  0.00  0.00     0.007 A 
ENDBRANCH  20  21
ENDBRANCH   3  20
BRANCH   5  24
HETATM   24  O   UNK N   1      22.467  15.179   6.399  0.00  0.00    -0.386 OA
HETATM   25  H   UNK N   1      22.401  14.316   5.961  0.00  0.00     0.210 HD
ENDBRANCH   5  24
BRANCH  18  26
HETATM   26  O   UNK N   1      18.156  18.859   2.264  0.00  0.00    -0.358 OA
HETATM   27  H   UNK N   1      17.490  19.322   2.733  0.00  0.00     0.217 HD
ENDBRANCH  18  26
TORSDOF 4
ENDMDL
MODEL 8
REMARK VINA RESULT:      -6.3      4.559      6.374
REMARK  4 active torsions:
REMARK  status: ('A' for Active; 'I' for Inactive)
REMARK    1  A    between atoms: C_7  and  O_2 
REMARK    2  A    between atoms: O_4  and  C_24 
REMARK    3  A    between atoms: N_5  and  C_16 
REMARK    4  A    between atoms: C_16  and  C_18 
ROOT
HETATM    1  O   UNK N   1      35.345  14.670   7.807  0.00  0.00    -0.334 OA
HETATM    2  O   UNK N   1      34.332  17.116   8.896  0.00  0.00    -0.295 OA
HETATM    3  N   UNK N   1      35.564  11.482  11.823  0.00  0.00     0.096 N 
HETATM    4  C   UNK N   1      35.216  13.679   9.930  0.00  0.00     0.058 C 
HETATM    5  C   UNK N   1      35.404  13.975  11.418  0.00  0.00     0.104 C 
HETATM    6  C   UNK N   1      36.255  12.777  11.992  0.00  0.00     0.262 C 
HETATM    7  C   UNK N   1      34.600  14.770   8.992  0.00  0.00     0.214 C 
HETATM    8  C   UNK N   1      34.427  12.363   9.774  0.00  0.00     0.051 C 
HETATM    9  C   UNK N   1      36.527  13.520   9.278  0.00  0.00    -0.001 A 
HETATM   10  C   UNK N   1      36.123  15.315  11.570  0.00  0.00     0.049 C 
HETATM   11  C   UNK N   1      35.120  11.180  10.455  0.00  0.00     0.274 C 
HETATM   12  C   UNK N   1      37.654  12.630  11.316  0.00  0.00     0.078 C 
HETATM   13  C   UNK N   1      37.659  12.959   9.843  0.00  0.00    -0.046 A 
HETATM   14  C   UNK N   1      35.349  16.468  10.916  0.00  0.00     0.084 C 
HETATM   15  C   UNK N   1      34.751  16.176   9.553  0.00  0.00     0.157 C 
HETATM   16  C   UNK N   1      36.499  14.032   8.039  0.00  0.00     0.110 A 
HETATM   17  C   UNK N   1      38.809  12.844   9.044  0.00  0.00     0.011 A 
HETATM   18  C   UNK N   1      37.610  13.921   7.198  0.00  0.00     0.099 A 
HETATM   19  C   UNK N   1      38.771  13.296   7.702  0.00  0.00     0.040 A 
ENDROOT
BRANCH   3  20
HETATM   20  C   UNK N   1      34.503  11.258  12.798  0.00  0.00     0.277 C 
BRANCH  20  21
HETATM   21  C   UNK N   1      35.095  11.210  14.204  0.00  0.00     0.014 A 
HETATM   22  C   UNK N   1      34.102  10.521  15.121  0.00  0.00     0.007 A 
HETATM   23  C   UNK N   1      34.261  12.021  15.185  0.00  0.00     0.007 A 
ENDBRANCH  20  21
ENDBRANCH   3  20
BRANCH   5  24
HETATM   24  O   UNK N   1      34.165  14.056  12.065  0.00  0.00    -0.386 OA
HETATM   25  H   UNK N   1      33.463  13.390  12.008  0.00  0.00     0.210 HD
ENDBRANCH   5  24
BRANCH  18  26
HETATM   26  O   UNK N   1      37.584  14.411   5.947  0.00  0.00    -0.358 OA
HETATM   27  H   UNK N   1      37.438  13.864   5.201  0.00  0.00     0.217 HD
ENDBRANCH  18  26
TORSDOF 4
ENDMDL
MODEL 9
REMARK VINA RESULT:      -6.2     13.616     16.553
REMARK  4 active torsions:
REMARK  status: ('A' for Active; 'I' for Inactive)
REMARK    1  A    between atoms: C_7  and  O_2 
REMARK    2  A    between atoms: O_4  and  C_24 
REMARK    3  A    between atoms: N_5  and  C_16 
REMARK    4  A    between atoms: C_16  and  C_18 
ROOT
HETATM    1  O   UNK N   1      29.562  22.665  -6.799  0.00  0.00    -0.334 OA
HETATM    2  O   UNK N   1      31.120  22.329  -4.421  0.00  0.00    -0.295 OA
HETATM    3  N   UNK N   1      26.617  26.754  -5.825  0.00  0.00     0.096 N 
HETATM    4  C   UNK N   1      28.516  24.534  -5.842  0.00  0.00     0.058 C 
HETATM    5  C   UNK N   1      27.989  25.080  -4.514  0.00  0.00     0.104 C 
HETATM    6  C   UNK N   1      26.558  25.667  -4.825  0.00  0.00     0.262 C 
HETATM    7  C   UNK N   1      29.826  23.679  -5.866  0.00  0.00     0.214 C 
HETATM    8  C   UNK N   1      28.641  25.696  -6.849  0.00  0.00     0.051 C 
HETATM    9  C   UNK N   1      27.575  23.542  -6.387  0.00  0.00    -0.001 A 
HETATM   10  C   UNK N   1      27.934  23.940  -3.497  0.00  0.00     0.049 C 
HETATM   11  C   UNK N   1      27.313  26.422  -7.075  0.00  0.00     0.274 C 
HETATM   12  C   UNK N   1      25.558  24.603  -5.377  0.00  0.00     0.078 C 
HETATM   13  C   UNK N   1      26.196  23.575  -6.279  0.00  0.00    -0.046 A 
HETATM   14  C   UNK N   1      29.307  23.293  -3.272  0.00  0.00     0.084 C 
HETATM   15  C   UNK N   1      30.134  23.043  -4.519  0.00  0.00     0.157 C 
HETATM   16  C   UNK N   1      28.243  22.548  -6.993  0.00  0.00     0.110 A 
HETATM   17  C   UNK N   1      25.459  22.561  -6.913  0.00  0.00     0.011 A 
HETATM   18  C   UNK N   1      27.553  21.530  -7.659  0.00  0.00     0.099 A 
HETATM   19  C   UNK N   1      26.142  21.553  -7.637  0.00  0.00     0.040 A 
ENDROOT
BRANCH   3  20
HETATM   20  C   UNK N   1      27.071  28.025  -5.274  0.00  0.00     0.277 C 
BRANCH  20  21
HETATM   21  C   UNK N   1      26.212  28.404  -4.071  0.00  0.00     0.014 A 
HETATM   22  C   UNK N   1      26.313  29.903  -3.860  0.00  0.00     0.007 A 
HETATM   23  C   UNK N   1      27.060  28.969  -2.939  0.00  0.00     0.007 A 
ENDBRANCH  20  21
ENDBRANCH   3  20
BRANCH   5  24
HETATM   24  O   UNK N   1      28.837  26.079  -4.020  0.00  0.00    -0.386 OA
HETATM   25  H   UNK N   1      28.543  26.910  -3.618  0.00  0.00     0.210 HD
ENDBRANCH   5  24
BRANCH  18  26
HETATM   26  O   UNK N   1      28.213  20.544  -8.288  0.00  0.00    -0.358 OA
HETATM   27  H   UNK N   1      28.987  20.156  -7.930  0.00  0.00     0.217 HD
ENDBRANCH  18  26
TORSDOF 4
ENDMDL
