MODEL 1
REMARK VINA RESULT:      -7.0      0.000      0.000
REMARK  12 active torsions:
REMARK  status: ('A' for Active; 'I' for Inactive)
REMARK    1  A    between atoms: S_1  and  N_8 
REMARK    2  A    between atoms: S_1  and  C_15 
REMARK    3  A    between atoms: O_2  and  C_17 
REMARK    4  A    between atoms: O_2  and  C_20 
REMARK    5  A    between atoms: O_3  and  C_18 
REMARK    6  A    between atoms: O_6  and  C_21 
REMARK    7  A    between atoms: O_6  and  C_27 
REMARK    8  A    between atoms: C_9  and  N_7 
REMARK    9  A    between atoms: N_7  and  C_13 
REMARK   10  A    between atoms: C_9  and  C_10 
REMARK   11  A    between atoms: C_10  and  C_11 
REMARK   12  A    between atoms: C_13  and  C_17 
ROOT
HETATM    1  C   UNK N   1      34.546  16.923   8.746  0.00  0.00     0.076 C 
HETATM    2  C   UNK N   1      34.453  18.326   8.135  0.00  0.00     0.032 C 
ENDROOT
BRANCH   1   3
HETATM    3  N   UNK N   1      34.545  16.999  10.205  0.00  0.00    -0.415 N 
HETATM    4  H   UNK N   1      34.051  17.698  10.761  0.00  0.00     0.153 HD
BRANCH   3   5
HETATM    5  C   UNK N   1      35.362  15.914  10.739  0.00  0.00     0.141 C 
BRANCH   5   6
HETATM    6  C   UNK N   1      34.477  14.860  11.378  0.00  0.00     0.195 C 
BRANCH   6   7
HETATM    7  O   UNK N   1      35.276  14.030  12.126  0.00  0.00    -0.347 OA
BRANCH   7   8
HETATM    8  C   UNK N   1      34.952  12.744  12.398  0.00  0.00     0.102 A 
HETATM    9  C   UNK N   1      34.712  12.373  13.724  0.00  0.00     0.102 A 
HETATM   10  C   UNK N   1      34.350  11.050  14.022  0.00  0.00     0.039 A 
HETATM   11  C   UNK N   1      34.233  10.103  12.999  0.00  0.00     0.003 A 
HETATM   12  C   UNK N   1      34.473  10.473  11.674  0.00  0.00     0.003 A 
HETATM   13  C   UNK N   1      34.828  11.788  11.371  0.00  0.00     0.039 A 
BRANCH   9  14
HETATM   14  O   UNK N   1      34.809  13.320  14.691  0.00  0.00    -0.349 OA
BRANCH  14  15
HETATM   15  C   UNK N   1      35.725  13.274  15.715  0.00  0.00     0.171 C 
HETATM   16  C   UNK N   1      34.985  13.190  17.035  0.00  0.00     0.034 C 
ENDBRANCH  14  15
ENDBRANCH   9  14
ENDBRANCH   7   8
ENDBRANCH   6   7
ENDBRANCH   5   6
ENDBRANCH   3   5
ENDBRANCH   1   3
BRANCH   1  17
HETATM   17  C   UNK N   1      33.515  15.882   8.254  0.00  0.00     0.062 C 
BRANCH  17  18
HETATM   18  C   UNK N   1      32.271  16.464   7.676  0.00  0.00    -0.055 A 
HETATM   19  C   UNK N   1      31.278  16.964   8.517  0.00  0.00     0.035 A 
HETATM   20  C   UNK N   1      30.087  17.460   7.992  0.00  0.00     0.113 A 
HETATM   21  C   UNK N   1      29.884  17.467   6.597  0.00  0.00     0.091 A 
HETATM   22  C   UNK N   1      30.897  16.974   5.753  0.00  0.00     0.039 A 
HETATM   23  C   UNK N   1      32.084  16.471   6.292  0.00  0.00     0.010 A 
BRANCH  20  24
HETATM   24  S   UNK N   1      28.851  18.052   9.146  0.00  0.00     0.259 S 
HETATM   25  O   UNK N   1      28.062  16.953   9.871  0.00  0.00    -0.201 OA
HETATM   26  O   UNK N   1      29.487  18.818  10.316  0.00  0.00    -0.201 OA
BRANCH  24  27
HETATM   27  N   UNK N   1      27.635  19.155   8.504  0.00  0.00    -0.324 N 
HETATM   28  H   UNK N   1      27.567  20.054   8.027  0.00  0.00     0.169 HD
HETATM   29  H   UNK N   1      26.701  18.774   8.660  0.00  0.00     0.169 HD
ENDBRANCH  24  27
ENDBRANCH  20  24
BRANCH  21  30
HETATM   30  O   UNK N   1      28.720  17.940   6.087  0.00  0.00    -0.354 OA
HETATM   31  C   UNK N   1      28.466  18.025   4.737  0.00  0.00     0.210 C 
ENDBRANCH  21  30
ENDBRANCH  17  18
ENDBRANCH   1  17
TORSDOF 12
ENDMDL
MODEL 2
REMARK VINA RESULT:      -6.8      9.091     11.446
REMARK  12 active torsions:
REMARK  status: ('A' for Active; 'I' for Inactive)
REMARK    1  A    between atoms: S_1  and  N_8 
REMARK    2  A    between atoms: S_1  and  C_15 
REMARK    3  A    between atoms: O_2  and  C_17 
REMARK    4  A    between atoms: O_2  and  C_20 
REMARK    5  A    between atoms: O_3  and  C_18 
REMARK    6  A    between atoms: O_6  and  C_21 
REMARK    7  A    between atoms: O_6  and  C_27 
REMARK    8  A    between atoms: C_9  and  N_7 
REMARK    9  A    between atoms: N_7  and  C_13 
REMARK   10  A    between atoms: C_9  and  C_10 
REMARK   11  A    between atoms: C_10  and  C_11 
REMARK   12  A    between atoms: C_13  and  C_17 
ROOT
HETATM    1  C   UNK N   1      24.971  15.855   5.145  0.00  0.00     0.076 C 
HETATM    2  C   UNK N   1      26.243  16.593   5.576  0.00  0.00     0.032 C 
ENDROOT
BRANCH   1   3
HETATM    3  N   UNK N   1      25.046  14.445   5.519  0.00  0.00    -0.415 N 
HETATM    4  H   UNK N   1      24.980  13.657   4.874  0.00  0.00     0.153 HD
BRANCH   3   5
HETATM    5  C   UNK N   1      25.232  14.344   6.964  0.00  0.00     0.141 C 
BRANCH   5   6
HETATM    6  C   UNK N   1      24.480  13.142   7.503  0.00  0.00     0.195 C 
BRANCH   6   7
HETATM    7  O   UNK N   1      23.521  13.595   8.376  0.00  0.00    -0.347 OA
BRANCH   7   8
HETATM    8  C   UNK N   1      23.298  13.029   9.585  0.00  0.00     0.102 A 
HETATM    9  C   UNK N   1      21.981  12.875  10.026  0.00  0.00     0.102 A 
HETATM   10  C   UNK N   1      21.730  12.266  11.266  0.00  0.00     0.039 A 
HETATM   11  C   UNK N   1      22.790  11.818  12.061  0.00  0.00     0.003 A 
HETATM   12  C   UNK N   1      24.106  11.972  11.621  0.00  0.00     0.003 A 
HETATM   13  C   UNK N   1      24.362  12.571  10.387  0.00  0.00     0.039 A 
BRANCH   9  14
HETATM   14  O   UNK N   1      20.972  13.296   9.222  0.00  0.00    -0.349 OA
BRANCH  14  15
HETATM   15  C   UNK N   1      20.213  14.414   9.472  0.00  0.00     0.171 C 
HETATM   16  C   UNK N   1      20.568  15.486   8.463  0.00  0.00     0.034 C 
ENDBRANCH  14  15
ENDBRANCH   9  14
ENDBRANCH   7   8
ENDBRANCH   6   7
ENDBRANCH   5   6
ENDBRANCH   3   5
ENDBRANCH   1   3
BRANCH   1  17
HETATM   17  C   UNK N   1      23.626  16.467   5.598  0.00  0.00     0.062 C 
BRANCH  17  18
HETATM   18  C   UNK N   1      22.674  16.765   4.490  0.00  0.00    -0.055 A 
HETATM   19  C   UNK N   1      22.402  18.086   4.140  0.00  0.00     0.035 A 
HETATM   20  C   UNK N   1      21.474  18.381   3.145  0.00  0.00     0.113 A 
HETATM   21  C   UNK N   1      20.808  17.335   2.474  0.00  0.00     0.091 A 
HETATM   22  C   UNK N   1      21.099  16.002   2.822  0.00  0.00     0.039 A 
HETATM   23  C   UNK N   1      22.026  15.720   3.828  0.00  0.00     0.010 A 
BRANCH  20  24
HETATM   24  S   UNK N   1      21.159  20.107   2.783  0.00  0.00     0.259 S 
HETATM   25  O   UNK N   1      20.264  20.829   3.800  0.00  0.00    -0.201 OA
HETATM   26  O   UNK N   1      22.447  20.943   2.835  0.00  0.00    -0.201 OA
BRANCH  24  27
HETATM   27  N   UNK N   1      20.461  20.469   1.205  0.00  0.00    -0.324 N 
HETATM   28  H   UNK N   1      20.250  20.011   0.319  0.00  0.00     0.169 HD
HETATM   29  H   UNK N   1      20.179  21.449   1.165  0.00  0.00     0.169 HD
ENDBRANCH  24  27
ENDBRANCH  20  24
BRANCH  21  30
HETATM   30  O   UNK N   1      19.897  17.621   1.512  0.00  0.00    -0.354 OA
HETATM   31  C   UNK N   1      19.858  16.981   0.294  0.00  0.00     0.210 C 
ENDBRANCH  21  30
ENDBRANCH  17  18
ENDBRANCH   1  17
TORSDOF 12
ENDMDL
MODEL 3
REMARK VINA RESULT:      -6.8      6.098      9.476
REMARK  12 active torsions:
REMARK  status: ('A' for Active; 'I' for Inactive)
REMARK    1  A    between atoms: S_1  and  N_8 
REMARK    2  A    between atoms: S_1  and  C_15 
REMARK    3  A    between atoms: O_2  and  C_17 
REMARK    4  A    between atoms: O_2  and  C_20 
REMARK    5  A    between atoms: O_3  and  C_18 
REMARK    6  A    between atoms: O_6  and  C_21 
REMARK    7  A    between atoms: O_6  and  C_27 
REMARK    8  A    between atoms: C_9  and  N_7 
REMARK    9  A    between atoms: N_7  and  C_13 
REMARK   10  A    between atoms: C_9  and  C_10 
REMARK   11  A    between atoms: C_10  and  C_11 
REMARK   12  A    between atoms: C_13  and  C_17 
ROOT
HETATM    1  C   UNK N   1      26.932  20.673   4.465  0.00  0.00     0.076 C 
HETATM    2  C   UNK N   1      26.237  20.362   5.794  0.00  0.00     0.032 C 
ENDROOT
BRANCH   1   3
HETATM    3  N   UNK N   1      28.249  20.043   4.416  0.00  0.00    -0.415 N 
HETATM    4  H   UNK N   1      29.049  20.384   3.882  0.00  0.00     0.153 HD
BRANCH   3   5
HETATM    5  C   UNK N   1      28.237  18.848   5.253  0.00  0.00     0.141 C 
BRANCH   5   6
HETATM    6  C   UNK N   1      28.555  17.622   4.417  0.00  0.00     0.195 C 
BRANCH   6   7
HETATM    7  O   UNK N   1      29.385  16.810   5.151  0.00  0.00    -0.347 OA
BRANCH   7   8
HETATM    8  C   UNK N   1      30.705  17.060   5.315  0.00  0.00     0.102 A 
HETATM    9  C   UNK N   1      31.250  16.995   6.600  0.00  0.00     0.102 A 
HETATM   10  C   UNK N   1      32.623  17.226   6.786  0.00  0.00     0.039 A 
HETATM   11  C   UNK N   1      33.442  17.525   5.693  0.00  0.00     0.003 A 
HETATM   12  C   UNK N   1      32.898  17.590   4.409  0.00  0.00     0.003 A 
HETATM   13  C   UNK N   1      31.536  17.356   4.217  0.00  0.00     0.039 A 
BRANCH   9  14
HETATM   14  O   UNK N   1      30.435  16.678   7.637  0.00  0.00    -0.349 OA
BRANCH  14  15
HETATM   15  C   UNK N   1      30.506  17.274   8.874  0.00  0.00     0.171 C 
HETATM   16  C   UNK N   1      29.765  18.594   8.828  0.00  0.00     0.034 C 
ENDBRANCH  14  15
ENDBRANCH   9  14
ENDBRANCH   7   8
ENDBRANCH   6   7
ENDBRANCH   5   6
ENDBRANCH   3   5
ENDBRANCH   1   3
BRANCH   1  17
HETATM   17  C   UNK N   1      26.135  20.369   3.176  0.00  0.00     0.062 C 
BRANCH  17  18
HETATM   18  C   UNK N   1      24.885  19.585   3.389  0.00  0.00    -0.055 A 
HETATM   19  C   UNK N   1      23.651  20.131   3.041  0.00  0.00     0.035 A 
HETATM   20  C   UNK N   1      22.471  19.432   3.285  0.00  0.00     0.113 A 
HETATM   21  C   UNK N   1      22.522  18.155   3.880  0.00  0.00     0.091 A 
HETATM   22  C   UNK N   1      23.773  17.603   4.214  0.00  0.00     0.039 A 
HETATM   23  C   UNK N   1      24.949  18.317   3.972  0.00  0.00     0.010 A 
BRANCH  20  24
HETATM   24  S   UNK N   1      20.927  20.224   2.840  0.00  0.00     0.259 S 
HETATM   25  O   UNK N   1      20.223  20.963   3.986  0.00  0.00    -0.201 OA
HETATM   26  O   UNK N   1      21.139  21.347   1.813  0.00  0.00    -0.201 OA
BRANCH  24  27
HETATM   27  N   UNK N   1      19.690  19.194   2.119  0.00  0.00    -0.324 N 
HETATM   28  H   UNK N   1      18.675  19.122   2.049  0.00  0.00     0.169 HD
HETATM   29  H   UNK N   1      20.129  18.426   1.610  0.00  0.00     0.169 HD
ENDBRANCH  24  27
ENDBRANCH  20  24
BRANCH  21  30
HETATM   30  O   UNK N   1      21.373  17.479   4.126  0.00  0.00    -0.354 OA
HETATM   31  C   UNK N   1      21.135  16.794   5.296  0.00  0.00     0.210 C 
ENDBRANCH  21  30
ENDBRANCH  17  18
ENDBRANCH   1  17
TORSDOF 12
ENDMDL
MODEL 4
REMARK VINA RESULT:      -6.7      5.716      8.783
REMARK  12 active torsions:
REMARK  status: ('A' for Active; 'I' for Inactive)
REMARK    1  A    between atoms: S_1  and  N_8 
REMARK    2  A    between atoms: S_1  and  C_15 
REMARK    3  A    between atoms: O_2  and  C_17 
REMARK    4  A    between atoms: O_2  and  C_20 
REMARK    5  A    between atoms: O_3  and  C_18 
REMARK    6  A    between atoms: O_6  and  C_21 
REMARK    7  A    between atoms: O_6  and  C_27 
REMARK    8  A    between atoms: C_9  and  N_7 
REMARK    9  A    between atoms: N_7  and  C_13 
REMARK   10  A    between atoms: C_9  and  C_10 
REMARK   11  A    between atoms: C_10  and  C_11 
REMARK   12  A    between atoms: C_13  and  C_17 
ROOT
HETATM    1  C   UNK N   1      27.682  19.424   5.458  0.00  0.00     0.076 C 
HETATM    2  C   UNK N   1      27.487  20.916   5.745  0.00  0.00     0.032 C 
ENDROOT
BRANCH   1   3
HETATM    3  N   UNK N   1      27.260  18.623   6.604  0.00  0.00    -0.415 N 
HETATM    4  H   UNK N   1      26.586  18.913   7.314  0.00  0.00     0.153 HD
BRANCH   3   5
HETATM    5  C   UNK N   1      27.958  17.341   6.572  0.00  0.00     0.141 C 
BRANCH   5   6
HETATM    6  C   UNK N   1      29.192  17.396   7.452  0.00  0.00     0.195 C 
BRANCH   6   7
HETATM    7  O   UNK N   1      30.246  16.873   6.742  0.00  0.00    -0.347 OA
BRANCH   7   8
HETATM    8  C   UNK N   1      31.538  17.164   7.019  0.00  0.00     0.102 A 
HETATM    9  C   UNK N   1      32.466  17.179   5.974  0.00  0.00     0.102 A 
HETATM   10  C   UNK N   1      33.806  17.504   6.238  0.00  0.00     0.039 A 
HETATM   11  C   UNK N   1      34.215  17.808   7.541  0.00  0.00     0.003 A 
HETATM   12  C   UNK N   1      33.288  17.793   8.585  0.00  0.00     0.003 A 
HETATM   13  C   UNK N   1      31.954  17.476   8.327  0.00  0.00     0.039 A 
BRANCH   9  14
HETATM   14  O   UNK N   1      32.035  16.904   4.717  0.00  0.00    -0.349 OA
BRANCH  14  15
HETATM   15  C   UNK N   1      32.307  15.730   4.056  0.00  0.00     0.171 C 
HETATM   16  C   UNK N   1      33.262  16.016   2.915  0.00  0.00     0.034 C 
ENDBRANCH  14  15
ENDBRANCH   9  14
ENDBRANCH   7   8
ENDBRANCH   6   7
ENDBRANCH   5   6
ENDBRANCH   3   5
ENDBRANCH   1   3
BRANCH   1  17
HETATM   17  C   UNK N   1      27.054  18.880   4.154  0.00  0.00     0.062 C 
BRANCH  17  18
HETATM   18  C   UNK N   1      25.618  19.231   3.962  0.00  0.00    -0.055 A 
HETATM   19  C   UNK N   1      24.630  18.528   4.650  0.00  0.00     0.035 A 
HETATM   20  C   UNK N   1      23.282  18.808   4.438  0.00  0.00     0.113 A 
HETATM   21  C   UNK N   1      22.910  19.817   3.528  0.00  0.00     0.091 A 
HETATM   22  C   UNK N   1      23.913  20.533   2.848  0.00  0.00     0.039 A 
HETATM   23  C   UNK N   1      25.261  20.237   3.063  0.00  0.00     0.010 A 
BRANCH  20  24
HETATM   24  S   UNK N   1      22.078  17.834   5.338  0.00  0.00     0.259 S 
HETATM   25  O   UNK N   1      22.627  16.548   5.972  0.00  0.00    -0.201 OA
HETATM   26  O   UNK N   1      21.535  18.589   6.561  0.00  0.00    -0.201 OA
BRANCH  24  27
HETATM   27  N   UNK N   1      20.638  17.339   4.449  0.00  0.00    -0.324 N 
HETATM   28  H   UNK N   1      20.370  16.758   3.654  0.00  0.00     0.169 HD
HETATM   29  H   UNK N   1      19.810  17.770   4.860  0.00  0.00     0.169 HD
ENDBRANCH  24  27
ENDBRANCH  20  24
BRANCH  21  30
HETATM   30  O   UNK N   1      21.597  20.083   3.314  0.00  0.00    -0.354 OA
HETATM   31  C   UNK N   1      21.006  20.021   2.073  0.00  0.00     0.210 C 
ENDBRANCH  21  30
ENDBRANCH  17  18
ENDBRANCH   1  17
TORSDOF 12
ENDMDL
MODEL 5
REMARK VINA RESULT:      -6.6      6.004      9.583
REMARK  12 active torsions:
REMARK  status: ('A' for Active; 'I' for Inactive)
REMARK    1  A    between atoms: S_1  and  N_8 
REMARK    2  A    between atoms: S_1  and  C_15 
REMARK    3  A    between atoms: O_2  and  C_17 
REMARK    4  A    between atoms: O_2  and  C_20 
REMARK    5  A    between atoms: O_3  and  C_18 
REMARK    6  A    between atoms: O_6  and  C_21 
REMARK    7  A    between atoms: O_6  and  C_27 
REMARK    8  A    between atoms: C_9  and  N_7 
REMARK    9  A    between atoms: N_7  and  C_13 
REMARK   10  A    between atoms: C_9  and  C_10 
REMARK   11  A    between atoms: C_10  and  C_11 
REMARK   12  A    between atoms: C_13  and  C_17 
ROOT
HETATM    1  C   UNK N   1      26.770  18.890   3.891  0.00  0.00     0.076 C 
HETATM    2  C   UNK N   1      26.767  20.411   3.703  0.00  0.00     0.032 C 
ENDROOT
BRANCH   1   3
HETATM    3  N   UNK N   1      28.124  18.410   4.155  0.00  0.00    -0.415 N 
HETATM    4  H   UNK N   1      28.965  18.710   3.662  0.00  0.00     0.153 HD
BRANCH   3   5
HETATM    5  C   UNK N   1      28.081  17.432   5.237  0.00  0.00     0.141 C 
BRANCH   5   6
HETATM    6  C   UNK N   1      29.046  17.828   6.338  0.00  0.00     0.195 C 
BRANCH   6   7
HETATM    7  O   UNK N   1      30.015  16.858   6.426  0.00  0.00    -0.347 OA
BRANCH   7   8
HETATM    8  C   UNK N   1      31.304  17.131   6.732  0.00  0.00     0.102 A 
HETATM    9  C   UNK N   1      32.239  17.228   5.697  0.00  0.00     0.102 A 
HETATM   10  C   UNK N   1      33.577  17.535   5.994  0.00  0.00     0.039 A 
HETATM   11  C   UNK N   1      33.976  17.740   7.319  0.00  0.00     0.003 A 
HETATM   12  C   UNK N   1      33.044  17.643   8.353  0.00  0.00     0.003 A 
HETATM   13  C   UNK N   1      31.712  17.343   8.063  0.00  0.00     0.039 A 
BRANCH   9  14
HETATM   14  O   UNK N   1      31.816  17.049   4.420  0.00  0.00    -0.349 OA
BRANCH  14  15
HETATM   15  C   UNK N   1      32.655  17.053   3.331  0.00  0.00     0.171 C 
HETATM   16  C   UNK N   1      33.012  15.623   2.979  0.00  0.00     0.034 C 
ENDBRANCH  14  15
ENDBRANCH   9  14
ENDBRANCH   7   8
ENDBRANCH   6   7
ENDBRANCH   5   6
ENDBRANCH   3   5
ENDBRANCH   1   3
BRANCH   1  17
HETATM   17  C   UNK N   1      25.778  18.317   4.929  0.00  0.00     0.062 C 
BRANCH  17  18
HETATM   18  C   UNK N   1      24.428  17.995   4.387  0.00  0.00    -0.055 A 
HETATM   19  C   UNK N   1      23.604  19.017   3.914  0.00  0.00     0.035 A 
HETATM   20  C   UNK N   1      22.319  18.737   3.456  0.00  0.00     0.113 A 
HETATM   21  C   UNK N   1      21.846  17.410   3.459  0.00  0.00     0.091 A 
HETATM   22  C   UNK N   1      22.688  16.382   3.924  0.00  0.00     0.039 A 
HETATM   23  C   UNK N   1      23.972  16.676   4.388  0.00  0.00     0.010 A 
BRANCH  20  24
HETATM   24  S   UNK N   1      21.316  20.113   2.899  0.00  0.00     0.259 S 
HETATM   25  O   UNK N   1      20.256  20.590   3.902  0.00  0.00    -0.201 OA
HETATM   26  O   UNK N   1      22.157  21.382   2.691  0.00  0.00    -0.201 OA
BRANCH  24  27
HETATM   27  N   UNK N   1      20.455  19.898   1.375  0.00  0.00    -0.324 N 
HETATM   28  H   UNK N   1      20.065  19.156   0.795  0.00  0.00     0.169 HD
HETATM   29  H   UNK N   1      20.298  20.804   0.933  0.00  0.00     0.169 HD
ENDBRANCH  24  27
ENDBRANCH  20  24
BRANCH  21  30
HETATM   30  O   UNK N   1      20.591  17.139   3.022  0.00  0.00    -0.354 OA
HETATM   31  C   UNK N   1      20.326  16.351   1.925  0.00  0.00     0.210 C 
ENDBRANCH  21  30
ENDBRANCH  17  18
ENDBRANCH   1  17
TORSDOF 12
ENDMDL
MODEL 6
REMARK VINA RESULT:      -6.5      1.741      2.856
REMARK  12 active torsions:
REMARK  status: ('A' for Active; 'I' for Inactive)
REMARK    1  A    between atoms: S_1  and  N_8 
REMARK    2  A    between atoms: S_1  and  C_15 
REMARK    3  A    between atoms: O_2  and  C_17 
REMARK    4  A    between atoms: O_2  and  C_20 
REMARK    5  A    between atoms: O_3  and  C_18 
REMARK    6  A    between atoms: O_6  and  C_21 
REMARK    7  A    between atoms: O_6  and  C_27 
REMARK    8  A    between atoms: C_9  and  N_7 
REMARK    9  A    between atoms: N_7  and  C_13 
REMARK   10  A    between atoms: C_9  and  C_10 
REMARK   11  A    between atoms: C_10  and  C_11 
REMARK   12  A    between atoms: C_13  and  C_17 
ROOT
HETATM    1  C   UNK N   1      34.261  16.333   8.937  0.00  0.00     0.076 C 
HETATM    2  C   UNK N   1      35.304  15.308   8.479  0.00  0.00     0.032 C 
ENDROOT
BRANCH   1   3
HETATM    3  N   UNK N   1      34.641  16.909  10.225  0.00  0.00    -0.415 N 
HETATM    4  H   UNK N   1      34.129  17.640  10.721  0.00  0.00     0.153 HD
BRANCH   3   5
HETATM    5  C   UNK N   1      35.869  16.272  10.689  0.00  0.00     0.141 C 
BRANCH   5   6
HETATM    6  C   UNK N   1      35.656  15.665  12.063  0.00  0.00     0.195 C 
BRANCH   6   7
HETATM    7  O   UNK N   1      35.598  14.300  11.922  0.00  0.00    -0.347 OA
BRANCH   7   8
HETATM    8  C   UNK N   1      36.236  13.445  12.755  0.00  0.00     0.102 A 
HETATM    9  C   UNK N   1      36.950  12.375  12.208  0.00  0.00     0.102 A 
HETATM   10  C   UNK N   1      37.640  11.493  13.056  0.00  0.00     0.039 A 
HETATM   11  C   UNK N   1      37.610  11.679  14.442  0.00  0.00     0.003 A 
HETATM   12  C   UNK N   1      36.897  12.747  14.989  0.00  0.00     0.003 A 
HETATM   13  C   UNK N   1      36.214  13.630  14.151  0.00  0.00     0.039 A 
BRANCH   9  14
HETATM   14  O   UNK N   1      36.981  12.236  10.859  0.00  0.00    -0.349 OA
BRANCH  14  15
HETATM   15  C   UNK N   1      37.893  12.869  10.047  0.00  0.00     0.171 C 
HETATM   16  C   UNK N   1      38.914  11.857   9.571  0.00  0.00     0.034 C 
ENDBRANCH  14  15
ENDBRANCH   9  14
ENDBRANCH   7   8
ENDBRANCH   6   7
ENDBRANCH   5   6
ENDBRANCH   3   5
ENDBRANCH   1   3
BRANCH   1  17
HETATM   17  C   UNK N   1      33.893  17.447   7.931  0.00  0.00     0.062 C 
BRANCH  17  18
HETATM   18  C   UNK N   1      32.480  17.416   7.459  0.00  0.00    -0.055 A 
HETATM   19  C   UNK N   1      31.446  17.753   8.330  0.00  0.00     0.035 A 
HETATM   20  C   UNK N   1      30.117  17.675   7.919  0.00  0.00     0.113 A 
HETATM   21  C   UNK N   1      29.812  17.262   6.606  0.00  0.00     0.091 A 
HETATM   22  C   UNK N   1      30.863  16.938   5.727  0.00  0.00     0.039 A 
HETATM   23  C   UNK N   1      32.190  17.013   6.154  0.00  0.00     0.010 A 
BRANCH  20  24
HETATM   24  S   UNK N   1      28.849  18.092   9.113  0.00  0.00     0.259 S 
HETATM   25  O   UNK N   1      28.204  16.892   9.820  0.00  0.00    -0.201 OA
HETATM   26  O   UNK N   1      29.421  18.892  10.294  0.00  0.00    -0.201 OA
BRANCH  24  27
HETATM   27  N   UNK N   1      27.503  19.069   8.529  0.00  0.00    -0.324 N 
HETATM   28  H   UNK N   1      26.591  19.409   8.835  0.00  0.00     0.169 HD
HETATM   29  H   UNK N   1      27.697  19.399   7.583  0.00  0.00     0.169 HD
ENDBRANCH  24  27
ENDBRANCH  20  24
BRANCH  21  30
HETATM   30  O   UNK N   1      28.519  17.177   6.208  0.00  0.00    -0.354 OA
HETATM   31  C   UNK N   1      27.850  15.983   6.062  0.00  0.00     0.210 C 
ENDBRANCH  21  30
ENDBRANCH  17  18
ENDBRANCH   1  17
TORSDOF 12
ENDMDL
MODEL 7
REMARK VINA RESULT:      -6.5      6.020      9.212
REMARK  12 active torsions:
REMARK  status: ('A' for Active; 'I' for Inactive)
REMARK    1  A    between atoms: S_1  and  N_8 
REMARK    2  A    between atoms: S_1  and  C_15 
REMARK    3  A    between atoms: O_2  and  C_17 
REMARK    4  A    between atoms: O_2  and  C_20 
REMARK    5  A    between atoms: O_3  and  C_18 
REMARK    6  A    between atoms: O_6  and  C_21 
REMARK    7  A    between atoms: O_6  and  C_27 
REMARK    8  A    between atoms: C_9  and  N_7 
REMARK    9  A    between atoms: N_7  and  C_13 
REMARK   10  A    between atoms: C_9  and  C_10 
REMARK   11  A    between atoms: C_10  and  C_11 
REMARK   12  A    between atoms: C_13  and  C_17 
ROOT
HETATM    1  C   UNK N   1      27.442  20.459   5.541  0.00  0.00     0.076 C 
HETATM    2  C   UNK N   1      26.430  20.867   6.616  0.00  0.00     0.032 C 
ENDROOT
BRANCH   1   3
HETATM    3  N   UNK N   1      28.182  19.271   5.959  0.00  0.00    -0.415 N 
HETATM    4  H   UNK N   1      28.816  18.731   5.369  0.00  0.00     0.153 HD
BRANCH   3   5
HETATM    5  C   UNK N   1      27.870  18.981   7.354  0.00  0.00     0.141 C 
BRANCH   5   6
HETATM    6  C   UNK N   1      29.139  18.651   8.116  0.00  0.00     0.195 C 
BRANCH   6   7
HETATM    7  O   UNK N   1      29.672  17.504   7.580  0.00  0.00    -0.347 OA
BRANCH   7   8
HETATM    8  C   UNK N   1      30.929  17.437   7.084  0.00  0.00     0.102 A 
HETATM    9  C   UNK N   1      31.105  17.272   5.707  0.00  0.00     0.102 A 
HETATM   10  C   UNK N   1      32.402  17.226   5.172  0.00  0.00     0.039 A 
HETATM   11  C   UNK N   1      33.516  17.342   6.010  0.00  0.00     0.003 A 
HETATM   12  C   UNK N   1      33.342  17.507   7.385  0.00  0.00     0.003 A 
HETATM   13  C   UNK N   1      32.055  17.558   7.923  0.00  0.00     0.039 A 
BRANCH   9  14
HETATM   14  O   UNK N   1      30.005  17.188   4.917  0.00  0.00    -0.349 OA
BRANCH  14  15
HETATM   15  C   UNK N   1      29.601  16.033   4.292  0.00  0.00     0.171 C 
HETATM   16  C   UNK N   1      29.300  16.338   2.839  0.00  0.00     0.034 C 
ENDBRANCH  14  15
ENDBRANCH   9  14
ENDBRANCH   7   8
ENDBRANCH   6   7
ENDBRANCH   5   6
ENDBRANCH   3   5
ENDBRANCH   1   3
BRANCH   1  17
HETATM   17  C   UNK N   1      26.898  20.283   4.105  0.00  0.00     0.062 C 
BRANCH  17  18
HETATM   18  C   UNK N   1      25.723  19.373   3.993  0.00  0.00    -0.055 A 
HETATM   19  C   UNK N   1      24.469  19.889   3.667  0.00  0.00     0.035 A 
HETATM   20  C   UNK N   1      23.352  19.058   3.614  0.00  0.00     0.113 A 
HETATM   21  C   UNK N   1      23.488  17.681   3.881  0.00  0.00     0.091 A 
HETATM   22  C   UNK N   1      24.759  17.164   4.194  0.00  0.00     0.039 A 
HETATM   23  C   UNK N   1      25.870  18.009   4.253  0.00  0.00     0.010 A 
BRANCH  20  24
HETATM   24  S   UNK N   1      21.773  19.810   3.222  0.00  0.00     0.259 S 
HETATM   25  O   UNK N   1      20.827  19.990   4.417  0.00  0.00    -0.201 OA
HETATM   26  O   UNK N   1      21.940  21.253   2.722  0.00  0.00    -0.201 OA
BRANCH  24  27
HETATM   27  N   UNK N   1      20.809  19.018   1.976  0.00  0.00    -0.324 N 
HETATM   28  H   UNK N   1      20.318  18.140   1.807  0.00  0.00     0.169 HD
HETATM   29  H   UNK N   1      20.711  19.633   1.168  0.00  0.00     0.169 HD
ENDBRANCH  24  27
ENDBRANCH  20  24
BRANCH  21  30
HETATM   30  O   UNK N   1      22.399  16.874   3.839  0.00  0.00    -0.354 OA
HETATM   31  C   UNK N   1      21.871  16.257   4.950  0.00  0.00     0.210 C 
ENDBRANCH  21  30
ENDBRANCH  17  18
ENDBRANCH   1  17
TORSDOF 12
ENDMDL
MODEL 8
REMARK VINA RESULT:      -6.5      7.067      9.662
REMARK  12 active torsions:
REMARK  status: ('A' for Active; 'I' for Inactive)
REMARK    1  A    between atoms: S_1  and  N_8 
REMARK    2  A    between atoms: S_1  and  C_15 
REMARK    3  A    between atoms: O_2  and  C_17 
REMARK    4  A    between atoms: O_2  and  C_20 
REMARK    5  A    between atoms: O_3  and  C_18 
REMARK    6  A    between atoms: O_6  and  C_21 
REMARK    7  A    between atoms: O_6  and  C_27 
REMARK    8  A    between atoms: C_9  and  N_7 
REMARK    9  A    between atoms: N_7  and  C_13 
REMARK   10  A    between atoms: C_9  and  C_10 
REMARK   11  A    between atoms: C_10  and  C_11 
REMARK   12  A    between atoms: C_13  and  C_17 
ROOT
HETATM    1  C   UNK N   1      27.624  20.066   5.596  0.00  0.00     0.076 C 
HETATM    2  C   UNK N   1      27.112  21.476   5.909  0.00  0.00     0.032 C 
ENDROOT
BRANCH   1   3
HETATM    3  N   UNK N   1      27.345  19.162   6.709  0.00  0.00    -0.415 N 
HETATM    4  H   UNK N   1      26.470  19.121   7.233  0.00  0.00     0.153 HD
BRANCH   3   5
HETATM    5  C   UNK N   1      28.517  18.325   6.949  0.00  0.00     0.141 C 
BRANCH   5   6
HETATM    6  C   UNK N   1      28.087  16.918   7.316  0.00  0.00     0.195 C 
BRANCH   6   7
HETATM    7  O   UNK N   1      28.615  16.055   6.387  0.00  0.00    -0.347 OA
BRANCH   7   8
HETATM    8  C   UNK N   1      28.123  15.930   5.133  0.00  0.00     0.102 A 
HETATM    9  C   UNK N   1      29.011  15.939   4.054  0.00  0.00     0.102 A 
HETATM   10  C   UNK N   1      28.521  15.786   2.747  0.00  0.00     0.039 A 
HETATM   11  C   UNK N   1      27.150  15.628   2.522  0.00  0.00     0.003 A 
HETATM   12  C   UNK N   1      26.261  15.619   3.599  0.00  0.00     0.003 A 
HETATM   13  C   UNK N   1      26.743  15.766   4.901  0.00  0.00     0.039 A 
BRANCH   9  14
HETATM   14  O   UNK N   1      30.338  16.069   4.306  0.00  0.00    -0.349 OA
BRANCH  14  15
HETATM   15  C   UNK N   1      31.007  17.270   4.280  0.00  0.00     0.171 C 
HETATM   16  C   UNK N   1      31.974  17.320   5.445  0.00  0.00     0.034 C 
ENDBRANCH  14  15
ENDBRANCH   9  14
ENDBRANCH   7   8
ENDBRANCH   6   7
ENDBRANCH   5   6
ENDBRANCH   3   5
ENDBRANCH   1   3
BRANCH   1  17
HETATM   17  C   UNK N   1      27.167  19.441   4.259  0.00  0.00     0.062 C 
BRANCH  17  18
HETATM   18  C   UNK N   1      25.708  19.566   3.982  0.00  0.00    -0.055 A 
HETATM   19  C   UNK N   1      24.794  18.787   4.690  0.00  0.00     0.035 A 
HETATM   20  C   UNK N   1      23.432  18.853   4.402  0.00  0.00     0.113 A 
HETATM   21  C   UNK N   1      22.969  19.721   3.394  0.00  0.00     0.091 A 
HETATM   22  C   UNK N   1      23.896  20.517   2.693  0.00  0.00     0.039 A 
HETATM   23  C   UNK N   1      25.260  20.435   2.985  0.00  0.00     0.010 A 
BRANCH  20  24
HETATM   24  S   UNK N   1      22.332  17.791   5.336  0.00  0.00     0.259 S 
HETATM   25  O   UNK N   1      23.002  16.573   5.985  0.00  0.00    -0.201 OA
HETATM   26  O   UNK N   1      21.738  18.518   6.553  0.00  0.00    -0.201 OA
BRANCH  24  27
HETATM   27  N   UNK N   1      20.932  17.153   4.476  0.00  0.00    -0.324 N 
HETATM   28  H   UNK N   1      20.067  17.474   4.040  0.00  0.00     0.169 HD
HETATM   29  H   UNK N   1      21.010  16.139   4.386  0.00  0.00     0.169 HD
ENDBRANCH  24  27
ENDBRANCH  20  24
BRANCH  21  30
HETATM   30  O   UNK N   1      21.645  19.779   3.107  0.00  0.00    -0.354 OA
HETATM   31  C   UNK N   1      21.074  20.792   2.372  0.00  0.00     0.210 C 
ENDBRANCH  21  30
ENDBRANCH  17  18
ENDBRANCH   1  17
TORSDOF 12
ENDMDL
MODEL 9
REMARK VINA RESULT:      -6.4      5.845      8.386
REMARK  12 active torsions:
REMARK  status: ('A' for Active; 'I' for Inactive)
REMARK    1  A    between atoms: S_1  and  N_8 
REMARK    2  A    between atoms: S_1  and  C_15 
REMARK    3  A    between atoms: O_2  and  C_17 
REMARK    4  A    between atoms: O_2  and  C_20 
REMARK    5  A    between atoms: O_3  and  C_18 
REMARK    6  A    between atoms: O_6  and  C_21 
REMARK    7  A    between atoms: O_6  and  C_27 
REMARK    8  A    between atoms: C_9  and  N_7 
REMARK    9  A    between atoms: N_7  and  C_13 
REMARK   10  A    between atoms: C_9  and  C_10 
REMARK   11  A    between atoms: C_10  and  C_11 
REMARK   12  A    between atoms: C_13  and  C_17 
ROOT
HETATM    1  C   UNK N   1      28.055  19.072   4.575  0.00  0.00     0.076 C 
HETATM    2  C   UNK N   1      27.781  19.476   6.028  0.00  0.00     0.032 C 
ENDROOT
BRANCH   1   3
HETATM    3  N   UNK N   1      29.378  18.466   4.453  0.00  0.00    -0.415 N 
HETATM    4  H   UNK N   1      30.252  18.975   4.318  0.00  0.00     0.153 HD
BRANCH   3   5
HETATM    5  C   UNK N   1      29.249  17.016   4.554  0.00  0.00     0.141 C 
BRANCH   5   6
HETATM    6  C   UNK N   1      30.615  16.363   4.466  0.00  0.00     0.195 C 
BRANCH   6   7
HETATM    7  O   UNK N   1      31.008  16.023   5.738  0.00  0.00    -0.347 OA
BRANCH   7   8
HETATM    8  C   UNK N   1      32.009  16.654   6.393  0.00  0.00     0.102 A 
HETATM    9  C   UNK N   1      31.697  17.447   7.502  0.00  0.00     0.102 A 
HETATM   10  C   UNK N   1      32.726  18.089   8.210  0.00  0.00     0.039 A 
HETATM   11  C   UNK N   1      34.058  17.942   7.808  0.00  0.00     0.003 A 
HETATM   12  C   UNK N   1      34.370  17.150   6.702  0.00  0.00     0.003 A 
HETATM   13  C   UNK N   1      33.353  16.505   5.997  0.00  0.00     0.039 A 
BRANCH   9  14
HETATM   14  O   UNK N   1      30.399  17.550   7.882  0.00  0.00    -0.349 OA
BRANCH  14  15
HETATM   15  C   UNK N   1      29.946  17.239   9.142  0.00  0.00     0.171 C 
HETATM   16  C   UNK N   1      29.406  18.494   9.796  0.00  0.00     0.034 C 
ENDBRANCH  14  15
ENDBRANCH   9  14
ENDBRANCH   7   8
ENDBRANCH   6   7
ENDBRANCH   5   6
ENDBRANCH   3   5
ENDBRANCH   1   3
BRANCH   1  17
HETATM   17  C   UNK N   1      26.987  18.192   3.886  0.00  0.00     0.062 C 
BRANCH  17  18
HETATM   18  C   UNK N   1      25.649  18.833   3.746  0.00  0.00    -0.055 A 
HETATM   19  C   UNK N   1      24.544  18.290   4.400  0.00  0.00     0.035 A 
HETATM   20  C   UNK N   1      23.277  18.845   4.234  0.00  0.00     0.113 A 
HETATM   21  C   UNK N   1      23.109  19.973   3.406  0.00  0.00     0.091 A 
HETATM   22  C   UNK N   1      24.232  20.526   2.761  0.00  0.00     0.039 A 
HETATM   23  C   UNK N   1      25.495  19.955   2.929  0.00  0.00     0.010 A 
BRANCH  20  24
HETATM   24  S   UNK N   1      21.907  18.064   5.083  0.00  0.00     0.259 S 
HETATM   25  O   UNK N   1      21.103  18.990   6.005  0.00  0.00    -0.201 OA
HETATM   26  O   UNK N   1      20.832  17.576   4.099  0.00  0.00    -0.201 OA
BRANCH  24  27
HETATM   27  N   UNK N   1      22.288  16.647   6.060  0.00  0.00    -0.324 N 
HETATM   28  H   UNK N   1      22.714  16.404   6.955  0.00  0.00     0.169 HD
HETATM   29  H   UNK N   1      21.987  15.799   5.578  0.00  0.00     0.169 HD
ENDBRANCH  24  27
ENDBRANCH  20  24
BRANCH  21  30
HETATM   30  O   UNK N   1      21.874  20.509   3.236  0.00  0.00    -0.354 OA
HETATM   31  C   UNK N   1      21.209  20.507   2.032  0.00  0.00     0.210 C 
ENDBRANCH  21  30
ENDBRANCH  17  18
ENDBRANCH   1  17
TORSDOF 12
ENDMDL
