MODEL 1
REMARK VINA RESULT:      -6.0      0.000      0.000
REMARK  8 active torsions:
REMARK  status: ('A' for Active; 'I' for Inactive)
REMARK    1  A    between atoms: O_2  and  C_11 
REMARK    2  A    between atoms: N_4  and  C_12 
REMARK    3  A    between atoms: N_5  and  C_6 
REMARK    4  A    between atoms: N_5  and  C_13 
REMARK       I    between atoms: N_5  and  C_14 
REMARK    5  A    between atoms: C_6  and  C_11 
REMARK    6  A    between atoms: C_12  and  C_15 
REMARK    7  A    between atoms: C_14  and  C_16 
REMARK    8  A    between atoms: C_15  and  C_19 
ROOT
HETATM    1  N   UNK N   1      35.785  14.836  10.152  0.00  0.00     0.088 N 
HETATM    2  C   UNK N   1      36.372  13.043  12.328  0.00  0.00     0.065 C 
HETATM    3  C   UNK N   1      37.516  13.392  11.347  0.00  0.00     0.064 C 
HETATM    4  C   UNK N   1      35.706  14.417  12.620  0.00  0.00     0.064 C 
HETATM    5  C   UNK N   1      36.975  13.973  10.013  0.00  0.00     0.275 C 
HETATM    6  C   UNK N   1      35.697  15.448  11.477  0.00  0.00     0.275 C 
ENDROOT
BRANCH   2   7
HETATM    7  N   UNK N   1      36.767  12.416  13.627  0.00  0.00    -0.306 N 
HETATM    8  C   UNK N   1      37.442  11.200  13.664  0.00  0.00     0.224 C 
HETATM    9  O   UNK N   1      37.821  10.657  12.641  0.00  0.00    -0.273 OA
BRANCH   7  10
HETATM   10  C   UNK N   1      36.319  13.060  14.858  0.00  0.00     0.038 A 
HETATM   11  C   UNK N   1      35.183  12.606  15.559  0.00  0.00     0.030 A 
HETATM   12  C   UNK N   1      34.810  13.171  16.781  0.00  0.00     0.002 A 
HETATM   13  C   UNK N   1      35.569  14.200  17.337  0.00  0.00     0.000 A 
HETATM   14  C   UNK N   1      36.698  14.668  16.668  0.00  0.00     0.002 A 
HETATM   15  C   UNK N   1      37.069  14.101  15.448  0.00  0.00     0.030 A 
ENDBRANCH   7  10
BRANCH   8  16
HETATM   16  C   UNK N   1      37.614  10.426  14.948  0.00  0.00     0.099 C 
HETATM   17  C   UNK N   1      36.842   9.125  14.934  0.00  0.00     0.014 C 
ENDBRANCH   8  16
ENDBRANCH   2   7
BRANCH   2  18
HETATM   18  C   UNK N   1      35.384  12.056  11.656  0.00  0.00     0.198 C 
BRANCH  18  19
HETATM   19  O   UNK N   1      34.307  11.708  12.493  0.00  0.00    -0.393 OA
HETATM   20  C   UNK N   1      34.086  10.342  12.319  0.00  0.00     0.201 C 
ENDBRANCH  18  19
ENDBRANCH   2  18
BRANCH   1  21
HETATM   21  C   UNK N   1      34.544  14.102   9.887  0.00  0.00     0.277 C 
BRANCH  21  22
HETATM   22  C   UNK N   1      33.344  15.019   9.722  0.00  0.00     0.076 C 
BRANCH  22  23
HETATM   23  C   UNK N   1      33.546  15.972   8.599  0.00  0.00    -0.016 A 
HETATM   24  S   UNK N   1      33.899  15.604   7.027  0.00  0.00    -0.106 SA
HETATM   25  C   UNK N   1      33.906  17.131   6.376  0.00  0.00     0.050 A 
HETATM   26  C   UNK N   1      33.620  18.003   7.438  0.00  0.00     0.008 A 
HETATM   27  C   UNK N   1      33.414  17.351   8.686  0.00  0.00     0.015 A 
ENDBRANCH  22  23
ENDBRANCH  21  22
ENDBRANCH   1  21
TORSDOF 8
ENDMDL
MODEL 2
REMARK VINA RESULT:      -6.0      6.145     10.679
REMARK  8 active torsions:
REMARK  status: ('A' for Active; 'I' for Inactive)
REMARK    1  A    between atoms: O_2  and  C_11 
REMARK    2  A    between atoms: N_4  and  C_12 
REMARK    3  A    between atoms: N_5  and  C_6 
REMARK    4  A    between atoms: N_5  and  C_13 
REMARK       I    between atoms: N_5  and  C_14 
REMARK    5  A    between atoms: C_6  and  C_11 
REMARK    6  A    between atoms: C_12  and  C_15 
REMARK    7  A    between atoms: C_14  and  C_16 
REMARK    8  A    between atoms: C_15  and  C_19 
ROOT
HETATM    1  N   UNK N   1      32.758  16.139   3.955  0.00  0.00     0.088 N 
HETATM    2  C   UNK N   1      30.192  16.676   5.149  0.00  0.00     0.065 C 
HETATM    3  C   UNK N   1      30.964  17.862   4.524  0.00  0.00     0.064 C 
HETATM    4  C   UNK N   1      30.327  15.549   4.087  0.00  0.00     0.064 C 
HETATM    5  C   UNK N   1      32.471  17.536   4.337  0.00  0.00     0.275 C 
HETATM    6  C   UNK N   1      31.630  15.509   3.268  0.00  0.00     0.275 C 
ENDROOT
BRANCH   2   7
HETATM    7  N   UNK N   1      28.741  16.894   5.436  0.00  0.00    -0.306 N 
HETATM    8  C   UNK N   1      27.874  15.822   5.617  0.00  0.00     0.224 C 
HETATM    9  O   UNK N   1      28.286  14.676   5.648  0.00  0.00    -0.273 OA
BRANCH   7  10
HETATM   10  C   UNK N   1      28.239  18.264   5.403  0.00  0.00     0.038 A 
HETATM   11  C   UNK N   1      27.762  18.848   4.211  0.00  0.00     0.030 A 
HETATM   12  C   UNK N   1      27.203  20.129   4.204  0.00  0.00     0.002 A 
HETATM   13  C   UNK N   1      27.099  20.854   5.389  0.00  0.00     0.000 A 
HETATM   14  C   UNK N   1      27.560  20.303   6.583  0.00  0.00     0.002 A 
HETATM   15  C   UNK N   1      28.117  19.023   6.588  0.00  0.00     0.030 A 
ENDBRANCH   7  10
BRANCH   8  16
HETATM   16  C   UNK N   1      26.376  16.007   5.643  0.00  0.00     0.099 C 
HETATM   17  C   UNK N   1      25.736  15.287   6.810  0.00  0.00     0.014 C 
ENDBRANCH   8  16
ENDBRANCH   2   7
BRANCH   2  18
HETATM   18  C   UNK N   1      30.843  16.276   6.498  0.00  0.00     0.198 C 
BRANCH  18  19
HETATM   19  O   UNK N   1      31.030  17.372   7.361  0.00  0.00    -0.393 OA
HETATM   20  C   UNK N   1      30.671  16.944   8.639  0.00  0.00     0.201 C 
ENDBRANCH  18  19
ENDBRANCH   2  18
BRANCH   1  21
HETATM   21  C   UNK N   1      33.122  15.320   5.114  0.00  0.00     0.277 C 
BRANCH  21  22
HETATM   22  C   UNK N   1      34.504  15.648   5.653  0.00  0.00     0.076 C 
BRANCH  22  23
HETATM   23  C   UNK N   1      34.456  15.955   7.107  0.00  0.00    -0.016 A 
HETATM   24  S   UNK N   1      34.472  17.448   7.815  0.00  0.00    -0.106 SA
HETATM   25  C   UNK N   1      34.330  17.004   9.408  0.00  0.00     0.050 A 
HETATM   26  C   UNK N   1      34.266  15.602   9.413  0.00  0.00     0.008 A 
HETATM   27  C   UNK N   1      34.334  15.013   8.120  0.00  0.00     0.015 A 
ENDBRANCH  22  23
ENDBRANCH  21  22
ENDBRANCH   1  21
TORSDOF 8
ENDMDL
MODEL 3
REMARK VINA RESULT:      -5.9      3.534      8.706
REMARK  8 active torsions:
REMARK  status: ('A' for Active; 'I' for Inactive)
REMARK    1  A    between atoms: O_2  and  C_11 
REMARK    2  A    between atoms: N_4  and  C_12 
REMARK    3  A    between atoms: N_5  and  C_6 
REMARK    4  A    between atoms: N_5  and  C_13 
REMARK       I    between atoms: N_5  and  C_14 
REMARK    5  A    between atoms: C_6  and  C_11 
REMARK    6  A    between atoms: C_12  and  C_15 
REMARK    7  A    between atoms: C_14  and  C_16 
REMARK    8  A    between atoms: C_15  and  C_19 
ROOT
HETATM    1  N   UNK N   1      34.529  15.458  10.362  0.00  0.00     0.088 N 
HETATM    2  C   UNK N   1      33.311  15.760   7.769  0.00  0.00     0.065 C 
HETATM    3  C   UNK N   1      32.387  15.474   8.975  0.00  0.00     0.064 C 
HETATM    4  C   UNK N   1      34.279  16.856   8.299  0.00  0.00     0.064 C 
HETATM    5  C   UNK N   1      33.175  14.897  10.183  0.00  0.00     0.275 C 
HETATM    6  C   UNK N   1      34.653  16.798   9.791  0.00  0.00     0.275 C 
ENDROOT
BRANCH   2   7
HETATM    7  N   UNK N   1      32.655  16.261   6.522  0.00  0.00    -0.306 N 
HETATM    8  C   UNK N   1      33.406  16.775   5.470  0.00  0.00     0.224 C 
HETATM    9  O   UNK N   1      34.624  16.739   5.488  0.00  0.00    -0.273 OA
BRANCH   7  10
HETATM   10  C   UNK N   1      31.197  16.306   6.491  0.00  0.00     0.038 A 
HETATM   11  C   UNK N   1      30.476  17.368   7.076  0.00  0.00     0.030 A 
HETATM   12  C   UNK N   1      29.086  17.448   6.967  0.00  0.00     0.002 A 
HETATM   13  C   UNK N   1      28.381  16.473   6.264  0.00  0.00     0.000 A 
HETATM   14  C   UNK N   1      29.065  15.412   5.674  0.00  0.00     0.002 A 
HETATM   15  C   UNK N   1      30.455  15.335   5.783  0.00  0.00     0.030 A 
ENDBRANCH   7  10
BRANCH   8  16
HETATM   16  C   UNK N   1      32.765  17.522   4.326  0.00  0.00     0.099 C 
HETATM   17  C   UNK N   1      32.744  16.702   3.054  0.00  0.00     0.014 C 
ENDBRANCH   8  16
ENDBRANCH   2   7
BRANCH   2  18
HETATM   18  C   UNK N   1      34.070  14.470   7.368  0.00  0.00     0.198 C 
BRANCH  18  19
HETATM   19  O   UNK N   1      33.207  13.427   6.981  0.00  0.00    -0.393 OA
HETATM   20  C   UNK N   1      33.853  12.231   7.294  0.00  0.00     0.201 C 
ENDBRANCH  18  19
ENDBRANCH   2  18
BRANCH   1  21
HETATM   21  C   UNK N   1      35.558  14.596   9.774  0.00  0.00     0.277 C 
BRANCH  21  22
HETATM   22  C   UNK N   1      36.665  14.252  10.756  0.00  0.00     0.076 C 
BRANCH  22  23
HETATM   23  C   UNK N   1      36.110  13.710  12.024  0.00  0.00    -0.016 A 
HETATM   24  S   UNK N   1      35.279  12.296  12.228  0.00  0.00    -0.106 SA
HETATM   25  C   UNK N   1      35.053  12.339  13.872  0.00  0.00     0.050 A 
HETATM   26  C   UNK N   1      35.654  13.528  14.313  0.00  0.00     0.008 A 
HETATM   27  C   UNK N   1      36.251  14.297  13.275  0.00  0.00     0.015 A 
ENDBRANCH  22  23
ENDBRANCH  21  22
ENDBRANCH   1  21
TORSDOF 8
ENDMDL
MODEL 4
REMARK VINA RESULT:      -5.8      3.399      9.117
REMARK  8 active torsions:
REMARK  status: ('A' for Active; 'I' for Inactive)
REMARK    1  A    between atoms: O_2  and  C_11 
REMARK    2  A    between atoms: N_4  and  C_12 
REMARK    3  A    between atoms: N_5  and  C_6 
REMARK    4  A    between atoms: N_5  and  C_13 
REMARK       I    between atoms: N_5  and  C_14 
REMARK    5  A    between atoms: C_6  and  C_11 
REMARK    6  A    between atoms: C_12  and  C_15 
REMARK    7  A    between atoms: C_14  and  C_16 
REMARK    8  A    between atoms: C_15  and  C_19 
ROOT
HETATM    1  N   UNK N   1      34.893  13.420   8.802  0.00  0.00     0.088 N 
HETATM    2  C   UNK N   1      33.147  15.447   7.734  0.00  0.00     0.065 C 
HETATM    3  C   UNK N   1      34.051  14.674   6.746  0.00  0.00     0.064 C 
HETATM    4  C   UNK N   1      32.566  14.333   8.650  0.00  0.00     0.064 C 
HETATM    5  C   UNK N   1      35.226  13.965   7.471  0.00  0.00     0.275 C 
HETATM    6  C   UNK N   1      33.469  13.119   8.936  0.00  0.00     0.275 C 
ENDROOT
BRANCH   2   7
HETATM    7  N   UNK N   1      32.013  16.224   7.145  0.00  0.00    -0.306 N 
HETATM    8  C   UNK N   1      30.973  16.694   7.938  0.00  0.00     0.224 C 
HETATM    9  O   UNK N   1      31.001  16.576   9.151  0.00  0.00    -0.273 OA
BRANCH   7  10
HETATM   10  C   UNK N   1      31.972  16.371   5.693  0.00  0.00     0.038 A 
HETATM   11  C   UNK N   1      32.624  17.437   5.039  0.00  0.00     0.030 A 
HETATM   12  C   UNK N   1      32.653  17.524   3.645  0.00  0.00     0.002 A 
HETATM   13  C   UNK N   1      32.038  16.543   2.869  0.00  0.00     0.000 A 
HETATM   14  C   UNK N   1      31.386  15.478   3.487  0.00  0.00     0.002 A 
HETATM   15  C   UNK N   1      31.360  15.392   4.880  0.00  0.00     0.030 A 
ENDBRANCH   7  10
BRANCH   8  16
HETATM   16  C   UNK N   1      29.701  17.242   7.338  0.00  0.00     0.099 C 
HETATM   17  C   UNK N   1      29.096  18.334   8.193  0.00  0.00     0.014 C 
ENDBRANCH   8  16
ENDBRANCH   2   7
BRANCH   2  18
HETATM   18  C   UNK N   1      33.995  16.466   8.537  0.00  0.00     0.198 C 
BRANCH  18  19
HETATM   19  O   UNK N   1      34.765  17.307   7.712  0.00  0.00    -0.393 OA
HETATM   20  C   UNK N   1      34.593  18.606   8.188  0.00  0.00     0.201 C 
ENDBRANCH  18  19
ENDBRANCH   2  18
BRANCH   1  21
HETATM   21  C   UNK N   1      35.288  14.332   9.879  0.00  0.00     0.277 C 
BRANCH  21  22
HETATM   22  C   UNK N   1      36.667  14.022  10.434  0.00  0.00     0.076 C 
BRANCH  22  23
HETATM   23  C   UNK N   1      36.597  13.649  11.872  0.00  0.00    -0.016 A 
HETATM   24  S   UNK N   1      37.127  12.247  12.568  0.00  0.00    -0.106 SA
HETATM   25  C   UNK N   1      36.781  12.575  14.158  0.00  0.00     0.050 A 
HETATM   26  C   UNK N   1      36.211  13.858  14.171  0.00  0.00     0.008 A 
HETATM   27  C   UNK N   1      36.110  14.462  12.887  0.00  0.00     0.015 A 
ENDBRANCH  22  23
ENDBRANCH  21  22
ENDBRANCH   1  21
TORSDOF 8
ENDMDL
MODEL 5
REMARK VINA RESULT:      -5.8     18.409     22.221
REMARK  8 active torsions:
REMARK  status: ('A' for Active; 'I' for Inactive)
REMARK    1  A    between atoms: O_2  and  C_11 
REMARK    2  A    between atoms: N_4  and  C_12 
REMARK    3  A    between atoms: N_5  and  C_6 
REMARK    4  A    between atoms: N_5  and  C_13 
REMARK       I    between atoms: N_5  and  C_14 
REMARK    5  A    between atoms: C_6  and  C_11 
REMARK    6  A    between atoms: C_12  and  C_15 
REMARK    7  A    between atoms: C_14  and  C_16 
REMARK    8  A    between atoms: C_15  and  C_19 
ROOT
HETATM    1  N   UNK N   1      25.719  24.839  -5.019  0.00  0.00     0.088 N 
HETATM    2  C   UNK N   1      28.467  23.995  -4.838  0.00  0.00     0.065 C 
HETATM    3  C   UNK N   1      27.649  24.089  -3.529  0.00  0.00     0.064 C 
HETATM    4  C   UNK N   1      27.502  23.276  -5.824  0.00  0.00     0.064 C 
HETATM    5  C   UNK N   1      26.377  24.962  -3.703  0.00  0.00     0.275 C 
HETATM    6  C   UNK N   1      25.997  23.555  -5.660  0.00  0.00     0.275 C 
ENDROOT
BRANCH   2   7
HETATM    7  N   UNK N   1      29.749  23.230  -4.778  0.00  0.00    -0.306 N 
HETATM    8  C   UNK N   1      30.616  23.360  -3.699  0.00  0.00     0.224 C 
HETATM    9  O   UNK N   1      30.313  24.023  -2.722  0.00  0.00    -0.273 OA
BRANCH   7  10
HETATM   10  C   UNK N   1      30.121  22.431  -5.942  0.00  0.00     0.038 A 
HETATM   11  C   UNK N   1      30.764  23.005  -7.058  0.00  0.00     0.030 A 
HETATM   12  C   UNK N   1      31.194  22.220  -8.131  0.00  0.00     0.002 A 
HETATM   13  C   UNK N   1      30.999  20.840  -8.111  0.00  0.00     0.000 A 
HETATM   14  C   UNK N   1      30.367  20.244  -7.022  0.00  0.00     0.002 A 
HETATM   15  C   UNK N   1      29.940  21.030  -5.950  0.00  0.00     0.030 A 
ENDBRANCH   7  10
BRANCH   8  16
HETATM   16  C   UNK N   1      32.021  22.811  -3.736  0.00  0.00     0.099 C 
HETATM   17  C   UNK N   1      32.169  21.572  -2.879  0.00  0.00     0.014 C 
ENDBRANCH   8  16
ENDBRANCH   2   7
BRANCH   2  18
HETATM   18  C   UNK N   1      28.836  25.417  -5.332  0.00  0.00     0.198 C 
BRANCH  18  19
HETATM   19  O   UNK N   1      29.115  26.306  -4.277  0.00  0.00    -0.393 OA
HETATM   20  C   UNK N   1      30.288  26.980  -4.617  0.00  0.00     0.201 C 
ENDBRANCH  18  19
ENDBRANCH   2  18
BRANCH   1  21
HETATM   21  C   UNK N   1      26.113  25.918  -5.930  0.00  0.00     0.277 C 
BRANCH  21  22
HETATM   22  C   UNK N   1      25.396  27.224  -5.636  0.00  0.00     0.076 C 
BRANCH  22  23
HETATM   23  C   UNK N   1      26.362  28.306  -5.309  0.00  0.00    -0.016 A 
HETATM   24  S   UNK N   1      26.497  29.130  -3.883  0.00  0.00    -0.106 SA
HETATM   25  C   UNK N   1      27.796  30.099  -4.240  0.00  0.00     0.050 A 
HETATM   26  C   UNK N   1      28.165  29.778  -5.555  0.00  0.00     0.008 A 
HETATM   27  C   UNK N   1      27.361  28.769  -6.155  0.00  0.00     0.015 A 
ENDBRANCH  22  23
ENDBRANCH  21  22
ENDBRANCH   1  21
TORSDOF 8
ENDMDL
MODEL 6
REMARK VINA RESULT:      -5.8      8.084     12.153
REMARK  8 active torsions:
REMARK  status: ('A' for Active; 'I' for Inactive)
REMARK    1  A    between atoms: O_2  and  C_11 
REMARK    2  A    between atoms: N_4  and  C_12 
REMARK    3  A    between atoms: N_5  and  C_6 
REMARK    4  A    between atoms: N_5  and  C_13 
REMARK       I    between atoms: N_5  and  C_14 
REMARK    5  A    between atoms: C_6  and  C_11 
REMARK    6  A    between atoms: C_12  and  C_15 
REMARK    7  A    between atoms: C_14  and  C_16 
REMARK    8  A    between atoms: C_15  and  C_19 
ROOT
HETATM    1  N   UNK N   1      26.241  18.694   3.695  0.00  0.00     0.088 N 
HETATM    2  C   UNK N   1      28.407  17.591   5.240  0.00  0.00     0.065 C 
HETATM    3  C   UNK N   1      28.154  17.011   3.829  0.00  0.00     0.064 C 
HETATM    4  C   UNK N   1      28.316  19.129   5.027  0.00  0.00     0.064 C 
HETATM    5  C   UNK N   1      26.732  17.356   3.310  0.00  0.00     0.275 C 
HETATM    6  C   UNK N   1      27.332  19.631   3.955  0.00  0.00     0.275 C 
ENDROOT
BRANCH   2   7
HETATM    7  N   UNK N   1      29.724  17.271   5.873  0.00  0.00    -0.306 N 
HETATM    8  C   UNK N   1      29.972  17.569   7.209  0.00  0.00     0.224 C 
HETATM    9  O   UNK N   1      29.094  18.006   7.931  0.00  0.00    -0.273 OA
BRANCH   7  10
HETATM   10  C   UNK N   1      30.781  16.745   5.016  0.00  0.00     0.038 A 
HETATM   11  C   UNK N   1      30.960  15.359   4.827  0.00  0.00     0.030 A 
HETATM   12  C   UNK N   1      31.918  14.865   3.938  0.00  0.00     0.002 A 
HETATM   13  C   UNK N   1      32.716  15.745   3.209  0.00  0.00     0.000 A 
HETATM   14  C   UNK N   1      32.561  17.120   3.373  0.00  0.00     0.002 A 
HETATM   15  C   UNK N   1      31.603  17.611   4.260  0.00  0.00     0.030 A 
ENDBRANCH   7  10
BRANCH   8  16
HETATM   16  C   UNK N   1      31.362  17.501   7.793  0.00  0.00     0.099 C 
HETATM   17  C   UNK N   1      31.582  16.232   8.587  0.00  0.00     0.014 C 
ENDBRANCH   8  16
ENDBRANCH   2   7
BRANCH   2  18
HETATM   18  C   UNK N   1      27.322  17.082   6.222  0.00  0.00     0.198 C 
BRANCH  18  19
HETATM   19  O   UNK N   1      27.251  15.677   6.278  0.00  0.00    -0.393 OA
HETATM   20  C   UNK N   1      26.005  15.358   6.817  0.00  0.00     0.201 C 
ENDBRANCH  18  19
ENDBRANCH   2  18
BRANCH   1  21
HETATM   21  C   UNK N   1      25.374  18.638   4.876  0.00  0.00     0.277 C 
BRANCH  21  22
HETATM   22  C   UNK N   1      24.125  17.805   4.648  0.00  0.00     0.076 C 
BRANCH  22  23
HETATM   23  C   UNK N   1      23.013  18.638   4.119  0.00  0.00    -0.016 A 
HETATM   24  S   UNK N   1      21.406  18.512   4.487  0.00  0.00    -0.106 SA
HETATM   25  C   UNK N   1      20.814  19.779   3.593  0.00  0.00     0.050 A 
HETATM   26  C   UNK N   1      21.924  20.352   2.954  0.00  0.00     0.008 A 
HETATM   27  C   UNK N   1      23.160  19.713   3.252  0.00  0.00     0.015 A 
ENDBRANCH  22  23
ENDBRANCH  21  22
ENDBRANCH   1  21
TORSDOF 8
ENDMDL
MODEL 7
REMARK VINA RESULT:      -5.8     13.173     17.098
REMARK  8 active torsions:
REMARK  status: ('A' for Active; 'I' for Inactive)
REMARK    1  A    between atoms: O_2  and  C_11 
REMARK    2  A    between atoms: N_4  and  C_12 
REMARK    3  A    between atoms: N_5  and  C_6 
REMARK    4  A    between atoms: N_5  and  C_13 
REMARK       I    between atoms: N_5  and  C_14 
REMARK    5  A    between atoms: C_6  and  C_11 
REMARK    6  A    between atoms: C_12  and  C_15 
REMARK    7  A    between atoms: C_14  and  C_16 
REMARK    8  A    between atoms: C_15  and  C_19 
ROOT
HETATM    1  N   UNK N   1      21.921  14.902   8.025  0.00  0.00     0.088 N 
HETATM    2  C   UNK N   1      21.300  15.179   5.226  0.00  0.00     0.065 C 
HETATM    3  C   UNK N   1      20.803  16.280   6.192  0.00  0.00     0.064 C 
HETATM    4  C   UNK N   1      22.771  14.938   5.670  0.00  0.00     0.064 C 
HETATM    5  C   UNK N   1      20.802  15.797   7.667  0.00  0.00     0.275 C 
HETATM    6  C   UNK N   1      23.088  15.104   7.167  0.00  0.00     0.275 C 
ENDROOT
BRANCH   2   7
HETATM    7  N   UNK N   1      21.287  15.507   3.767  0.00  0.00    -0.306 N 
HETATM    8  C   UNK N   1      21.659  14.564   2.814  0.00  0.00     0.224 C 
HETATM    9  O   UNK N   1      21.909  13.414   3.128  0.00  0.00    -0.273 OA
BRANCH   7  10
HETATM   10  C   UNK N   1      20.986  16.881   3.381  0.00  0.00     0.038 A 
HETATM   11  C   UNK N   1      19.690  17.271   2.984  0.00  0.00     0.030 A 
HETATM   12  C   UNK N   1      19.389  18.606   2.699  0.00  0.00     0.002 A 
HETATM   13  C   UNK N   1      20.374  19.585   2.812  0.00  0.00     0.000 A 
HETATM   14  C   UNK N   1      21.664  19.231   3.203  0.00  0.00     0.002 A 
HETATM   15  C   UNK N   1      21.962  17.897   3.488  0.00  0.00     0.030 A 
ENDBRANCH   7  10
BRANCH   8  16
HETATM   16  C   UNK N   1      21.907  14.945   1.375  0.00  0.00     0.099 C 
HETATM   17  C   UNK N   1      23.038  14.147   0.764  0.00  0.00     0.014 C 
ENDBRANCH   8  16
ENDBRANCH   2   7
BRANCH   2  18
HETATM   18  C   UNK N   1      20.435  13.904   5.390  0.00  0.00     0.198 C 
BRANCH  18  19
HETATM   19  O   UNK N   1      19.065  14.142   5.171  0.00  0.00    -0.393 OA
HETATM   20  C   UNK N   1      18.604  13.117   4.346  0.00  0.00     0.201 C 
ENDBRANCH  18  19
ENDBRANCH   2  18
BRANCH   1  21
HETATM   21  C   UNK N   1      21.530  13.491   7.969  0.00  0.00     0.277 C 
BRANCH  21  22
HETATM   22  C   UNK N   1      21.002  12.976   9.297  0.00  0.00     0.076 C 
BRANCH  22  23
HETATM   23  C   UNK N   1      22.112  12.552  10.190  0.00  0.00    -0.016 A 
HETATM   24  S   UNK N   1      23.722  12.489   9.822  0.00  0.00    -0.106 SA
HETATM   25  C   UNK N   1      24.326  12.003  11.289  0.00  0.00     0.050 A 
HETATM   26  C   UNK N   1      23.216  11.873  12.138  0.00  0.00     0.008 A 
HETATM   27  C   UNK N   1      21.972  12.184  11.521  0.00  0.00     0.015 A 
ENDBRANCH  22  23
ENDBRANCH  21  22
ENDBRANCH   1  21
TORSDOF 8
ENDMDL
MODEL 8
REMARK VINA RESULT:      -5.7     13.606     17.607
REMARK  8 active torsions:
REMARK  status: ('A' for Active; 'I' for Inactive)
REMARK    1  A    between atoms: O_2  and  C_11 
REMARK    2  A    between atoms: N_4  and  C_12 
REMARK    3  A    between atoms: N_5  and  C_6 
REMARK    4  A    between atoms: N_5  and  C_13 
REMARK       I    between atoms: N_5  and  C_14 
REMARK    5  A    between atoms: C_6  and  C_11 
REMARK    6  A    between atoms: C_12  and  C_15 
REMARK    7  A    between atoms: C_14  and  C_16 
REMARK    8  A    between atoms: C_15  and  C_19 
ROOT
HETATM    1  N   UNK N   1      21.118  16.038   6.653  0.00  0.00     0.088 N 
HETATM    2  C   UNK N   1      21.474  14.896   4.032  0.00  0.00     0.065 C 
HETATM    3  C   UNK N   1      20.126  15.586   4.346  0.00  0.00     0.064 C 
HETATM    4  C   UNK N   1      22.533  15.887   4.592  0.00  0.00     0.064 C 
HETATM    5  C   UNK N   1      19.899  15.743   5.874  0.00  0.00     0.275 C 
HETATM    6  C   UNK N   1      22.146  16.693   5.846  0.00  0.00     0.275 C 
ENDROOT
BRANCH   2   7
HETATM    7  N   UNK N   1      21.777  14.634   2.592  0.00  0.00    -0.306 N 
HETATM    8  C   UNK N   1      23.039  14.212   2.186  0.00  0.00     0.224 C 
HETATM    9  O   UNK N   1      23.907  13.947   3.000  0.00  0.00    -0.273 OA
BRANCH   7  10
HETATM   10  C   UNK N   1      20.743  14.947   1.611  0.00  0.00     0.038 A 
HETATM   11  C   UNK N   1      19.776  13.994   1.225  0.00  0.00     0.030 A 
HETATM   12  C   UNK N   1      18.738  14.327   0.352  0.00  0.00     0.002 A 
HETATM   13  C   UNK N   1      18.635  15.622  -0.153  0.00  0.00     0.000 A 
HETATM   14  C   UNK N   1      19.574  16.585   0.211  0.00  0.00     0.002 A 
HETATM   15  C   UNK N   1      20.610  16.251   1.085  0.00  0.00     0.030 A 
ENDBRANCH   7  10
BRANCH   8  16
HETATM   16  C   UNK N   1      23.443  14.197   0.732  0.00  0.00     0.099 C 
HETATM   17  C   UNK N   1      23.452  12.795   0.162  0.00  0.00     0.014 C 
ENDBRANCH   8  16
ENDBRANCH   2   7
BRANCH   2  18
HETATM   18  C   UNK N   1      21.541  13.522   4.745  0.00  0.00     0.198 C 
BRANCH  18  19
HETATM   19  O   UNK N   1      20.522  12.643   4.332  0.00  0.00    -0.393 OA
HETATM   20  C   UNK N   1      20.128  11.924   5.461  0.00  0.00     0.201 C 
ENDBRANCH  18  19
ENDBRANCH   2  18
BRANCH   1  21
HETATM   21  C   UNK N   1      21.688  14.829   7.253  0.00  0.00     0.277 C 
BRANCH  21  22
HETATM   22  C   UNK N   1      20.812  14.251   8.352  0.00  0.00     0.076 C 
BRANCH  22  23
HETATM   23  C   UNK N   1      21.614  13.451   9.314  0.00  0.00    -0.016 A 
HETATM   24  S   UNK N   1      23.248  13.203   9.292  0.00  0.00    -0.106 SA
HETATM   25  C   UNK N   1      23.413  12.297  10.672  0.00  0.00     0.050 A 
HETATM   26  C   UNK N   1      22.120  12.162  11.201  0.00  0.00     0.008 A 
HETATM   27  C   UNK N   1      21.110  12.813  10.440  0.00  0.00     0.015 A 
ENDBRANCH  22  23
ENDBRANCH  21  22
ENDBRANCH   1  21
TORSDOF 8
ENDMDL
MODEL 9
REMARK VINA RESULT:      -5.7     12.602     15.189
REMARK  8 active torsions:
REMARK  status: ('A' for Active; 'I' for Inactive)
REMARK    1  A    between atoms: O_2  and  C_11 
REMARK    2  A    between atoms: N_4  and  C_12 
REMARK    3  A    between atoms: N_5  and  C_6 
REMARK    4  A    between atoms: N_5  and  C_13 
REMARK       I    between atoms: N_5  and  C_14 
REMARK    5  A    between atoms: C_6  and  C_11 
REMARK    6  A    between atoms: C_12  and  C_15 
REMARK    7  A    between atoms: C_14  and  C_16 
REMARK    8  A    between atoms: C_15  and  C_19 
ROOT
HETATM    1  N   UNK N   1      20.864  17.134   5.695  0.00  0.00     0.088 N 
HETATM    2  C   UNK N   1      23.430  16.693   4.462  0.00  0.00     0.065 C 
HETATM    3  C   UNK N   1      22.169  16.586   3.572  0.00  0.00     0.064 C 
HETATM    4  C   UNK N   1      23.185  17.984   5.293  0.00  0.00     0.064 C 
HETATM    5  C   UNK N   1      20.880  16.396   4.417  0.00  0.00     0.275 C 
HETATM    6  C   UNK N   1      21.728  18.313   5.665  0.00  0.00     0.275 C 
ENDROOT
BRANCH   2   7
HETATM    7  N   UNK N   1      24.743  16.817   3.757  0.00  0.00    -0.306 N 
HETATM    8  C   UNK N   1      25.217  15.802   2.934  0.00  0.00     0.224 C 
HETATM    9  O   UNK N   1      24.535  14.825   2.680  0.00  0.00    -0.273 OA
BRANCH   7  10
HETATM   10  C   UNK N   1      25.566  17.985   4.054  0.00  0.00     0.038 A 
HETATM   11  C   UNK N   1      26.540  17.964   5.074  0.00  0.00     0.030 A 
HETATM   12  C   UNK N   1      27.384  19.055   5.295  0.00  0.00     0.002 A 
HETATM   13  C   UNK N   1      27.280  20.193   4.496  0.00  0.00     0.000 A 
HETATM   14  C   UNK N   1      26.328  20.243   3.480  0.00  0.00     0.002 A 
HETATM   15  C   UNK N   1      25.488  19.151   3.260  0.00  0.00     0.030 A 
ENDBRANCH   7  10
BRANCH   8  16
HETATM   16  C   UNK N   1      26.639  15.787   2.429  0.00  0.00     0.099 C 
HETATM   17  C   UNK N   1      27.503  14.809   3.196  0.00  0.00     0.014 C 
ENDBRANCH   8  16
ENDBRANCH   2   7
BRANCH   2  18
HETATM   18  C   UNK N   1      23.543  15.441   5.368  0.00  0.00     0.198 C 
BRANCH  18  19
HETATM   19  O   UNK N   1      24.474  15.604   6.411  0.00  0.00    -0.393 OA
HETATM   20  C   UNK N   1      25.236  14.437   6.457  0.00  0.00     0.201 C 
ENDBRANCH  18  19
ENDBRANCH   2  18
BRANCH   1  21
HETATM   21  C   UNK N   1      21.263  16.285   6.821  0.00  0.00     0.277 C 
BRANCH  21  22
HETATM   22  C   UNK N   1      20.255  15.187   7.114  0.00  0.00     0.076 C 
BRANCH  22  23
HETATM   23  C   UNK N   1      20.787  14.219   8.109  0.00  0.00    -0.016 A 
HETATM   24  S   UNK N   1      21.712  12.882   7.809  0.00  0.00    -0.106 SA
HETATM   25  C   UNK N   1      21.963  12.360   9.364  0.00  0.00     0.050 A 
HETATM   26  C   UNK N   1      21.288  13.272  10.190  0.00  0.00     0.008 A 
HETATM   27  C   UNK N   1      20.630  14.318   9.485  0.00  0.00     0.015 A 
ENDBRANCH  22  23
ENDBRANCH  21  22
ENDBRANCH   1  21
TORSDOF 8
ENDMDL
