MODEL 1
REMARK VINA RESULT:      -5.3      0.000      0.000
REMARK  4 active torsions:
REMARK  status: ('A' for Active; 'I' for Inactive)
REMARK    1  A    between atoms: O_3  and  C_12 
REMARK    2  A    between atoms: C_9  and  N_5 
REMARK    3  A    between atoms: N_8  and  C_16 
REMARK    4  A    between atoms: C_11  and  C_12 
ROOT
HETATM    1  O   UNK N   1      29.235  18.686   9.694  0.00  0.00    -0.246 OA
HETATM    2  N   UNK N   1      29.950  17.719   7.777  0.00  0.00    -0.281 N 
HETATM    3  N   UNK N   1      27.895  18.927   7.919  0.00  0.00    -0.295 N 
ATOM      4  HN  UNK N   1      27.226  19.461   8.473  1.00  0.00     0.172 HD
HETATM    5  C   UNK N   1      29.705  17.481   6.455  0.00  0.00     0.102 A 
HETATM    6  C   UNK N   1      29.035  18.451   8.515  0.00  0.00     0.330 A 
HETATM    7  C   UNK N   1      28.549  17.965   5.846  0.00  0.00     0.065 A 
HETATM    8  C   UNK N   1      27.646  18.698   6.607  0.00  0.00     0.103 A 
ENDROOT
BRANCH   2   9
HETATM    9  C   UNK N   1      31.204  17.250   8.390  0.00  0.00     0.242 C 
HETATM   10  O   UNK N   1      32.268  18.136   8.182  0.00  0.00    -0.348 OA
HETATM   11  C   UNK N   1      33.393  17.513   8.752  0.00  0.00     0.209 C 
HETATM   12  S   UNK N   1      33.232  15.690   8.663  0.00  0.00    -0.131 SA
HETATM   13  C   UNK N   1      31.643  15.912   7.860  0.00  0.00     0.131 C 
BRANCH  11  14
HETATM   14  C   UNK N   1      34.635  17.943   7.991  0.00  0.00     0.207 C 
BRANCH  14  15
HETATM   15  O   UNK N   1      35.063  19.189   8.450  0.00  0.00    -0.398 OA
HETATM   16  H   UNK N   1      35.396  19.866   7.841  0.00  0.00     0.209 HD
ENDBRANCH  14  15
ENDBRANCH  11  14
ENDBRANCH   2   9
BRANCH   8  17
HETATM   17  N   UNK N   1      26.478  19.213   6.013  0.00  0.00    -0.385 N 
HETATM   18  H   UNK N   1      25.679  18.645   5.913  0.00  0.00     0.157 HD
HETATM   19  H   UNK N   1      26.458  20.145   5.695  0.00  0.00     0.157 HD
ENDBRANCH   8  17
TORSDOF 4
ENDMDL
MODEL 2
REMARK VINA RESULT:      -5.2      9.458     10.893
REMARK  4 active torsions:
REMARK  status: ('A' for Active; 'I' for Inactive)
REMARK    1  A    between atoms: O_3  and  C_12 
REMARK    2  A    between atoms: C_9  and  N_5 
REMARK    3  A    between atoms: N_8  and  C_16 
REMARK    4  A    between atoms: C_11  and  C_12 
ROOT
HETATM    1  O   UNK N   1      20.051  16.826   1.978  0.00  0.00    -0.246 OA
HETATM    2  N   UNK N   1      21.256  18.228   3.283  0.00  0.00    -0.281 N 
HETATM    3  N   UNK N   1      20.247  18.926   1.235  0.00  0.00    -0.295 N 
ATOM      4  HN  UNK N   1      19.694  18.706   0.408  1.00  0.00     0.172 HD
HETATM    5  C   UNK N   1      21.739  19.493   3.462  0.00  0.00     0.102 A 
HETATM    6  C   UNK N   1      20.502  17.944   2.157  0.00  0.00     0.330 A 
HETATM    7  C   UNK N   1      21.480  20.494   2.529  0.00  0.00     0.065 A 
HETATM    8  C   UNK N   1      20.719  20.186   1.408  0.00  0.00     0.103 A 
ENDROOT
BRANCH   2   9
HETATM    9  C   UNK N   1      21.491  17.197   4.308  0.00  0.00     0.242 C 
HETATM   10  O   UNK N   1      20.587  17.284   5.374  0.00  0.00    -0.348 OA
HETATM   11  C   UNK N   1      20.990  16.296   6.290  0.00  0.00     0.209 C 
HETATM   12  S   UNK N   1      22.799  16.026   6.189  0.00  0.00    -0.131 SA
HETATM   13  C   UNK N   1      22.870  17.275   4.903  0.00  0.00     0.131 C 
BRANCH  11  14
HETATM   14  C   UNK N   1      20.630  16.749   7.695  0.00  0.00     0.207 C 
BRANCH  14  15
HETATM   15  O   UNK N   1      20.642  18.142   7.761  0.00  0.00    -0.398 OA
HETATM   16  H   UNK N   1      20.904  18.684   7.000  0.00  0.00     0.209 HD
ENDBRANCH  14  15
ENDBRANCH  11  14
ENDBRANCH   2   9
BRANCH   8  17
HETATM   17  N   UNK N   1      20.428  21.182   0.456  0.00  0.00    -0.385 N 
HETATM   18  H   UNK N   1      19.858  20.976  -0.320  0.00  0.00     0.157 HD
HETATM   19  H   UNK N   1      20.795  22.089   0.567  0.00  0.00     0.157 HD
ENDBRANCH   8  17
TORSDOF 4
ENDMDL
MODEL 3
REMARK VINA RESULT:      -5.2     10.266     11.580
REMARK  4 active torsions:
REMARK  status: ('A' for Active; 'I' for Inactive)
REMARK    1  A    between atoms: O_3  and  C_12 
REMARK    2  A    between atoms: C_9  and  N_5 
REMARK    3  A    between atoms: N_8  and  C_16 
REMARK    4  A    between atoms: C_11  and  C_12 
ROOT
HETATM    1  O   UNK N   1      19.340  14.213   9.932  0.00  0.00    -0.246 OA
HETATM    2  N   UNK N   1      21.298  14.362   8.808  0.00  0.00    -0.281 N 
HETATM    3  N   UNK N   1      20.935  12.772  10.551  0.00  0.00    -0.295 N 
ATOM      4  HN  UNK N   1      20.324  12.370  11.260  1.00  0.00     0.172 HD
HETATM    5  C   UNK N   1      22.563  13.875   8.643  0.00  0.00     0.102 A 
HETATM    6  C   UNK N   1      20.477  13.802   9.771  0.00  0.00     0.330 A 
HETATM    7  C   UNK N   1      23.032  12.826   9.431  0.00  0.00     0.065 A 
HETATM    8  C   UNK N   1      22.188  12.280  10.391  0.00  0.00     0.103 A 
ENDROOT
BRANCH   2   9
HETATM    9  C   UNK N   1      20.800  15.433   7.926  0.00  0.00     0.242 C 
HETATM   10  O   UNK N   1      19.760  15.001   7.093  0.00  0.00    -0.348 OA
HETATM   11  C   UNK N   1      19.456  16.102   6.272  0.00  0.00     0.209 C 
HETATM   12  S   UNK N   1      20.946  17.133   6.002  0.00  0.00    -0.131 SA
HETATM   13  C   UNK N   1      21.871  15.990   7.029  0.00  0.00     0.131 C 
BRANCH  11  14
HETATM   14  C   UNK N   1      18.948  15.595   4.934  0.00  0.00     0.207 C 
BRANCH  14  15
HETATM   15  O   UNK N   1      18.863  16.653   4.029  0.00  0.00    -0.398 OA
HETATM   16  H   UNK N   1      18.065  16.805   3.500  0.00  0.00     0.209 HD
ENDBRANCH  14  15
ENDBRANCH  11  14
ENDBRANCH   2   9
BRANCH   8  17
HETATM   17  N   UNK N   1      22.630  11.208  11.191  0.00  0.00    -0.385 N 
HETATM   18  H   UNK N   1      23.351  11.344  11.848  0.00  0.00     0.157 HD
HETATM   19  H   UNK N   1      22.217  10.320  11.093  0.00  0.00     0.157 HD
ENDBRANCH   8  17
TORSDOF 4
ENDMDL
MODEL 4
REMARK VINA RESULT:      -5.1      5.612      8.025
REMARK  4 active torsions:
REMARK  status: ('A' for Active; 'I' for Inactive)
REMARK    1  A    between atoms: O_3  and  C_12 
REMARK    2  A    between atoms: C_9  and  N_5 
REMARK    3  A    between atoms: N_8  and  C_16 
REMARK    4  A    between atoms: C_11  and  C_12 
ROOT
HETATM    1  O   UNK N   1      37.711  13.911   9.557  0.00  0.00    -0.246 OA
HETATM    2  N   UNK N   1      35.735  14.465  10.511  0.00  0.00    -0.281 N 
HETATM    3  N   UNK N   1      37.498  13.409  11.727  0.00  0.00    -0.295 N 
ATOM      4  HN  UNK N   1      38.436  13.010  11.746  1.00  0.00     0.172 HD
HETATM    5  C   UNK N   1      34.976  14.478  11.646  0.00  0.00     0.102 A 
HETATM    6  C   UNK N   1      37.009  13.926  10.555  0.00  0.00     0.330 A 
HETATM    7  C   UNK N   1      35.470  13.956  12.840  0.00  0.00     0.065 A 
HETATM    8  C   UNK N   1      36.753  13.422  12.859  0.00  0.00     0.103 A 
ENDROOT
BRANCH   2   9
HETATM    9  C   UNK N   1      35.219  15.073   9.273  0.00  0.00     0.242 C 
HETATM   10  O   UNK N   1      35.374  16.465   9.253  0.00  0.00    -0.348 OA
HETATM   11  C   UNK N   1      34.768  16.893   8.058  0.00  0.00     0.209 C 
HETATM   12  S   UNK N   1      33.399  15.768   7.592  0.00  0.00    -0.131 SA
HETATM   13  C   UNK N   1      33.756  14.797   9.057  0.00  0.00     0.131 C 
BRANCH  11  14
HETATM   14  C   UNK N   1      34.219  18.294   8.257  0.00  0.00     0.207 C 
BRANCH  14  15
HETATM   15  O   UNK N   1      35.269  19.191   8.456  0.00  0.00    -0.398 OA
HETATM   16  H   UNK N   1      35.543  19.461   9.347  0.00  0.00     0.209 HD
ENDBRANCH  14  15
ENDBRANCH  11  14
ENDBRANCH   2   9
BRANCH   8  17
HETATM   17  N   UNK N   1      37.283  12.902  14.056  0.00  0.00    -0.385 N 
HETATM   18  H   UNK N   1      37.141  13.374  14.908  0.00  0.00     0.157 HD
HETATM   19  H   UNK N   1      37.798  12.063  14.041  0.00  0.00     0.157 HD
ENDBRANCH   8  17
TORSDOF 4
ENDMDL
MODEL 5
REMARK VINA RESULT:      -5.1     12.592     14.105
REMARK  4 active torsions:
REMARK  status: ('A' for Active; 'I' for Inactive)
REMARK    1  A    between atoms: O_3  and  C_12 
REMARK    2  A    between atoms: C_9  and  N_5 
REMARK    3  A    between atoms: N_8  and  C_16 
REMARK    4  A    between atoms: C_11  and  C_12 
ROOT
HETATM    1  O   UNK N   1      30.458  23.133  -1.669  0.00  0.00    -0.246 OA
HETATM    2  N   UNK N   1      29.670  23.007  -3.786  0.00  0.00    -0.281 N 
HETATM    3  N   UNK N   1      31.220  21.425  -2.896  0.00  0.00    -0.295 N 
ATOM      4  HN  UNK N   1      31.795  21.099  -2.120  1.00  0.00     0.172 HD
HETATM    5  C   UNK N   1      29.673  22.327  -4.970  0.00  0.00     0.102 A 
HETATM    6  C   UNK N   1      30.451  22.549  -2.739  0.00  0.00     0.330 A 
HETATM    7  C   UNK N   1      30.451  21.183  -5.133  0.00  0.00     0.065 A 
HETATM    8  C   UNK N   1      31.226  20.741  -4.067  0.00  0.00     0.103 A 
ENDROOT
BRANCH   2   9
HETATM    9  C   UNK N   1      28.797  24.181  -3.613  0.00  0.00     0.242 C 
HETATM   10  O   UNK N   1      27.523  23.988  -4.162  0.00  0.00    -0.348 OA
HETATM   11  C   UNK N   1      26.850  25.210  -3.987  0.00  0.00     0.209 C 
HETATM   12  S   UNK N   1      28.036  26.606  -4.009  0.00  0.00    -0.131 SA
HETATM   13  C   UNK N   1      29.360  25.421  -4.251  0.00  0.00     0.131 C 
BRANCH  11  14
HETATM   14  C   UNK N   1      25.847  25.388  -5.114  0.00  0.00     0.207 C 
BRANCH  14  15
HETATM   15  O   UNK N   1      25.266  24.159  -5.429  0.00  0.00    -0.398 OA
HETATM   16  H   UNK N   1      24.304  24.042  -5.445  0.00  0.00     0.209 HD
ENDBRANCH  14  15
ENDBRANCH  11  14
ENDBRANCH   2   9
BRANCH   8  17
HETATM   17  N   UNK N   1      32.010  19.579  -4.198  0.00  0.00    -0.385 N 
HETATM   18  H   UNK N   1      31.580  18.698  -4.289  0.00  0.00     0.157 HD
HETATM   19  H   UNK N   1      32.992  19.647  -4.199  0.00  0.00     0.157 HD
ENDBRANCH   8  17
TORSDOF 4
ENDMDL
MODEL 6
REMARK VINA RESULT:      -5.0     10.467     12.152
REMARK  4 active torsions:
REMARK  status: ('A' for Active; 'I' for Inactive)
REMARK    1  A    between atoms: O_3  and  C_12 
REMARK    2  A    between atoms: C_9  and  N_5 
REMARK    3  A    between atoms: N_8  and  C_16 
REMARK    4  A    between atoms: C_11  and  C_12 
ROOT
HETATM    1  O   UNK N   1      35.262  14.726  18.350  0.00  0.00    -0.246 OA
HETATM    2  N   UNK N   1      35.325  12.727  17.294  0.00  0.00    -0.281 N 
HETATM    3  N   UNK N   1      35.238  12.922  19.671  0.00  0.00    -0.295 N 
ATOM      4  HN  UNK N   1      35.207  13.508  20.504  1.00  0.00     0.172 HD
HETATM    5  C   UNK N   1      35.331  11.367  17.417  0.00  0.00     0.102 A 
HETATM    6  C   UNK N   1      35.277  13.510  18.434  0.00  0.00     0.330 A 
HETATM    7  C   UNK N   1      35.288  10.765  18.673  0.00  0.00     0.065 A 
HETATM    8  C   UNK N   1      35.239  11.572  19.803  0.00  0.00     0.103 A 
ENDROOT
BRANCH   2   9
HETATM    9  C   UNK N   1      35.312  13.345  15.957  0.00  0.00     0.242 C 
HETATM   10  O   UNK N   1      34.693  12.535  14.997  0.00  0.00    -0.348 OA
HETATM   11  C   UNK N   1      34.832  13.223  13.778  0.00  0.00     0.209 C 
HETATM   12  S   UNK N   1      36.361  14.233  13.782  0.00  0.00    -0.131 SA
HETATM   13  C   UNK N   1      36.694  13.645  15.443  0.00  0.00     0.131 C 
BRANCH  11  14
HETATM   14  C   UNK N   1      34.901  12.214  12.646  0.00  0.00     0.207 C 
BRANCH  14  15
HETATM   15  O   UNK N   1      34.471  12.805  11.458  0.00  0.00    -0.398 OA
HETATM   16  H   UNK N   1      34.162  13.724  11.432  0.00  0.00     0.209 HD
ENDBRANCH  14  15
ENDBRANCH  11  14
ENDBRANCH   2   9
BRANCH   8  17
HETATM   17  N   UNK N   1      35.179  10.990  21.084  0.00  0.00    -0.385 N 
HETATM   18  H   UNK N   1      36.001  10.670  21.522  0.00  0.00     0.157 HD
HETATM   19  H   UNK N   1      34.313  10.904  21.544  0.00  0.00     0.157 HD
ENDBRANCH   8  17
TORSDOF 4
ENDMDL
MODEL 7
REMARK VINA RESULT:      -5.0      4.308      6.948
REMARK  4 active torsions:
REMARK  status: ('A' for Active; 'I' for Inactive)
REMARK    1  A    between atoms: O_3  and  C_12 
REMARK    2  A    between atoms: C_9  and  N_5 
REMARK    3  A    between atoms: N_8  and  C_16 
REMARK    4  A    between atoms: C_11  and  C_12 
ROOT
HETATM    1  O   UNK N   1      35.688  17.551  10.362  0.00  0.00    -0.246 OA
HETATM    2  N   UNK N   1      34.805  15.572   9.713  0.00  0.00    -0.281 N 
HETATM    3  N   UNK N   1      36.245  15.777  11.606  0.00  0.00    -0.295 N 
ATOM      4  HN  UNK N   1      36.821  16.360  12.213  1.00  0.00     0.172 HD
HETATM    5  C   UNK N   1      34.700  14.231   9.953  0.00  0.00     0.102 A 
HETATM    6  C   UNK N   1      35.585  16.351  10.550  0.00  0.00     0.330 A 
HETATM    7  C   UNK N   1      35.368  13.645  11.027  0.00  0.00     0.065 A 
HETATM    8  C   UNK N   1      36.144  14.448  11.854  0.00  0.00     0.103 A 
ENDROOT
BRANCH   2   9
HETATM    9  C   UNK N   1      34.047  16.183   8.608  0.00  0.00     0.242 C 
HETATM   10  O   UNK N   1      32.906  16.863   9.052  0.00  0.00    -0.348 OA
HETATM   11  C   UNK N   1      32.261  17.315   7.887  0.00  0.00     0.209 C 
HETATM   12  S   UNK N   1      32.588  16.177   6.489  0.00  0.00    -0.131 SA
HETATM   13  C   UNK N   1      33.583  15.173   7.595  0.00  0.00     0.131 C 
BRANCH  11  14
HETATM   14  C   UNK N   1      30.765  17.376   8.142  0.00  0.00     0.207 C 
BRANCH  14  15
HETATM   15  O   UNK N   1      30.525  17.713   9.474  0.00  0.00    -0.398 OA
HETATM   16  H   UNK N   1      31.157  17.489  10.175  0.00  0.00     0.209 HD
ENDBRANCH  14  15
ENDBRANCH  11  14
ENDBRANCH   2   9
BRANCH   8  17
HETATM   17  N   UNK N   1      36.816  13.885  12.956  0.00  0.00    -0.385 N 
HETATM   18  H   UNK N   1      37.632  13.352  12.819  0.00  0.00     0.157 HD
HETATM   19  H   UNK N   1      36.469  14.026  13.866  0.00  0.00     0.157 HD
ENDBRANCH   8  17
TORSDOF 4
ENDMDL
MODEL 8
REMARK VINA RESULT:      -4.9      8.028      9.958
REMARK  4 active torsions:
REMARK  status: ('A' for Active; 'I' for Inactive)
REMARK    1  A    between atoms: O_3  and  C_12 
REMARK    2  A    between atoms: C_9  and  N_5 
REMARK    3  A    between atoms: N_8  and  C_16 
REMARK    4  A    between atoms: C_11  and  C_12 
ROOT
HETATM    1  O   UNK N   1      37.153  13.549  15.293  0.00  0.00    -0.246 OA
HETATM    2  N   UNK N   1      35.505  12.724  13.981  0.00  0.00    -0.281 N 
HETATM    3  N   UNK N   1      35.960  11.869  16.163  0.00  0.00    -0.295 N 
ATOM      4  HN  UNK N   1      36.515  11.892  17.018  1.00  0.00     0.172 HD
HETATM    5  C   UNK N   1      34.489  11.821  13.852  0.00  0.00     0.102 A 
HETATM    6  C   UNK N   1      36.246  12.747  15.150  0.00  0.00     0.330 A 
HETATM    7  C   UNK N   1      34.193  10.929  14.880  0.00  0.00     0.065 A 
HETATM    8  C   UNK N   1      34.950  10.972  16.045  0.00  0.00     0.103 A 
ENDROOT
BRANCH   2   9
HETATM    9  C   UNK N   1      35.766  13.697  12.907  0.00  0.00     0.242 C 
HETATM   10  O   UNK N   1      34.588  14.228  12.366  0.00  0.00    -0.348 OA
HETATM   11  C   UNK N   1      35.003  15.067  11.316  0.00  0.00     0.209 C 
HETATM   12  S   UNK N   1      36.565  14.455  10.582  0.00  0.00    -0.131 SA
HETATM   13  C   UNK N   1      36.540  13.104  11.762  0.00  0.00     0.131 C 
BRANCH  11  14
HETATM   14  C   UNK N   1      33.924  15.091  10.247  0.00  0.00     0.207 C 
BRANCH  14  15
HETATM   15  O   UNK N   1      32.666  14.991  10.842  0.00  0.00    -0.398 OA
HETATM   16  H   UNK N   1      32.563  14.721  11.768  0.00  0.00     0.209 HD
ENDBRANCH  14  15
ENDBRANCH  11  14
ENDBRANCH   2   9
BRANCH   8  17
HETATM   17  N   UNK N   1      34.662  10.093  17.107  0.00  0.00    -0.385 N 
HETATM   18  H   UNK N   1      34.765   9.121  16.988  0.00  0.00     0.157 HD
HETATM   19  H   UNK N   1      34.358  10.451  17.972  0.00  0.00     0.157 HD
ENDBRANCH   8  17
TORSDOF 4
ENDMDL
MODEL 9
REMARK VINA RESULT:      -4.8      2.231      2.819
REMARK  4 active torsions:
REMARK  status: ('A' for Active; 'I' for Inactive)
REMARK    1  A    between atoms: O_3  and  C_12 
REMARK    2  A    between atoms: C_9  and  N_5 
REMARK    3  A    between atoms: N_8  and  C_16 
REMARK    4  A    between atoms: C_11  and  C_12 
ROOT
HETATM    1  O   UNK N   1      29.623  16.402   5.855  0.00  0.00    -0.246 OA
HETATM    2  N   UNK N   1      30.467  17.017   7.862  0.00  0.00    -0.281 N 
HETATM    3  N   UNK N   1      28.482  17.981   6.953  0.00  0.00    -0.295 N 
ATOM      4  HN  UNK N   1      27.800  18.041   6.198  1.00  0.00     0.172 HD
HETATM    5  C   UNK N   1      30.332  17.809   8.967  0.00  0.00     0.102 A 
HETATM    6  C   UNK N   1      29.530  17.105   6.847  0.00  0.00     0.330 A 
HETATM    7  C   UNK N   1      29.266  18.699   9.080  0.00  0.00     0.065 A 
HETATM    8  C   UNK N   1      28.337  18.768   8.048  0.00  0.00     0.103 A 
ENDROOT
BRANCH   2   9
HETATM    9  C   UNK N   1      31.568  16.041   7.786  0.00  0.00     0.242 C 
HETATM   10  O   UNK N   1      31.977  15.594   9.049  0.00  0.00    -0.348 OA
HETATM   11  C   UNK N   1      33.070  14.742   8.809  0.00  0.00     0.209 C 
HETATM   12  S   UNK N   1      33.970  15.261   7.301  0.00  0.00    -0.131 SA
HETATM   13  C   UNK N   1      32.789  16.596   7.107  0.00  0.00     0.131 C 
BRANCH  11  14
HETATM   14  C   UNK N   1      34.012  14.800   9.999  0.00  0.00     0.207 C 
BRANCH  14  15
HETATM   15  O   UNK N   1      33.278  14.922  11.179  0.00  0.00    -0.398 OA
HETATM   16  H   UNK N   1      32.593  15.602  11.282  0.00  0.00     0.209 HD
ENDBRANCH  14  15
ENDBRANCH  11  14
ENDBRANCH   2   9
BRANCH   8  17
HETATM   17  N   UNK N   1      27.241  19.647   8.143  0.00  0.00    -0.385 N 
HETATM   18  H   UNK N   1      26.652  19.790   7.367  0.00  0.00     0.157 HD
HETATM   19  H   UNK N   1      27.063  20.120   8.987  0.00  0.00     0.157 HD
ENDBRANCH   8  17
TORSDOF 4
ENDMDL
