MODEL 1
REMARK VINA RESULT:      -5.4      0.000      0.000
REMARK  14 active torsions:
REMARK  status: ('A' for Active; 'I' for Inactive)
REMARK    1  A    between atoms: P_1  and  O_4 
REMARK    2  A    between atoms: P_1  and  O_5 
REMARK    3  A    between atoms: P_1  and  C_11 
REMARK    4  A    between atoms: P_2  and  O_6 
REMARK    5  A    between atoms: P_2  and  O_7 
REMARK    6  A    between atoms: P_2  and  C_11 
REMARK    7  A    between atoms: O_3  and  C_11 
REMARK    8  A    between atoms: N_10  and  C_13 
REMARK    9  A    between atoms: N_10  and  C_14 
REMARK   10  A    between atoms: C_11  and  C_12 
REMARK   11  A    between atoms: C_12  and  C_13 
REMARK   12  A    between atoms: C_14  and  C_15 
REMARK   13  A    between atoms: C_15  and  C_16 
REMARK   14  A    between atoms: C_16  and  C_18 
ROOT
HETATM    1  C   UNK N   1      32.833  16.367   8.127  0.00  0.00     0.253 C 
ENDROOT
BRANCH   1   2
HETATM    2  P   UNK N   1      33.907  17.081   6.774  0.00  0.00     0.283 P 
HETATM    3  O   UNK N   1      34.674  18.345   7.248  0.00  0.00    -0.651 OA
BRANCH   2   4
HETATM    4  O   UNK N   1      33.032  17.611   5.373  0.00  0.00    -0.327 OA
HETATM    5  H   UNK N   1      32.461  17.064   4.812  0.00  0.00     0.220 HD
ENDBRANCH   2   4
BRANCH   2   6
HETATM    6  O   UNK N   1      35.154  16.016   6.203  0.00  0.00    -0.327 OA
HETATM    7  H   UNK N   1      36.079  16.291   6.102  0.00  0.00     0.220 HD
ENDBRANCH   2   6
ENDBRANCH   1   2
BRANCH   1   8
HETATM    8  P   UNK N   1      33.876  15.864   9.596  0.00  0.00     0.283 P 
HETATM    9  O   UNK N   1      34.967  14.844   9.176  0.00  0.00    -0.651 OA
BRANCH   8  10
HETATM   10  O   UNK N   1      33.000  15.043  10.850  0.00  0.00    -0.327 OA
HETATM   11  H   UNK N   1      32.977  15.180  11.809  0.00  0.00     0.220 HD
ENDBRANCH   8  10
BRANCH   8  12
HETATM   12  O   UNK N   1      34.764  17.144  10.364  0.00  0.00    -0.327 OA
HETATM   13  H   UNK N   1      34.932  17.613  11.197  0.00  0.00     0.220 HD
ENDBRANCH   8  12
ENDBRANCH   1   8
BRANCH   1  14
HETATM   14  O   UNK N   1      32.203  15.229   7.623  0.00  0.00    -0.368 OA
HETATM   15  H   UNK N   1      31.379  14.723   7.559  0.00  0.00     0.212 HD
ENDBRANCH   1  14
BRANCH   1  16
HETATM   16  C   UNK N   1      31.757  17.371   8.547  0.00  0.00     0.094 C 
BRANCH  16  17
HETATM   17  C   UNK N   1      30.432  17.142   7.828  0.00  0.00     0.276 C 
BRANCH  17  18
HETATM   18  N   UNK N   1      29.322  17.351   8.737  0.00  0.00     0.084 N 
HETATM   19  C   UNK N   1      29.643  18.532   9.519  0.00  0.00     0.309 C 
BRANCH  18  20
HETATM   20  C   UNK N   1      28.170  17.678   7.913  0.00  0.00     0.271 C 
BRANCH  20  21
HETATM   21  C   UNK N   1      28.145  19.169   7.619  0.00  0.00     0.030 C 
BRANCH  21  22
HETATM   22  C   UNK N   1      27.852  19.418   6.151  0.00  0.00     0.001 C 
BRANCH  22  23
HETATM   23  C   UNK N   1      27.544  20.885   5.914  0.00  0.00    -0.005 C 
HETATM   24  C   UNK N   1      26.480  21.342   6.888  0.00  0.00     0.005 C 
ENDBRANCH  22  23
ENDBRANCH  21  22
ENDBRANCH  20  21
ENDBRANCH  18  20
ENDBRANCH  17  18
ENDBRANCH  16  17
ENDBRANCH   1  16
TORSDOF 14
ENDMDL
MODEL 2
REMARK VINA RESULT:      -5.3      4.869      7.456
REMARK  14 active torsions:
REMARK  status: ('A' for Active; 'I' for Inactive)
REMARK    1  A    between atoms: P_1  and  O_4 
REMARK    2  A    between atoms: P_1  and  O_5 
REMARK    3  A    between atoms: P_1  and  C_11 
REMARK    4  A    between atoms: P_2  and  O_6 
REMARK    5  A    between atoms: P_2  and  O_7 
REMARK    6  A    between atoms: P_2  and  C_11 
REMARK    7  A    between atoms: O_3  and  C_11 
REMARK    8  A    between atoms: N_10  and  C_13 
REMARK    9  A    between atoms: N_10  and  C_14 
REMARK   10  A    between atoms: C_11  and  C_12 
REMARK   11  A    between atoms: C_12  and  C_13 
REMARK   12  A    between atoms: C_14  and  C_15 
REMARK   13  A    between atoms: C_15  and  C_16 
REMARK   14  A    between atoms: C_16  and  C_18 
ROOT
HETATM    1  C   UNK N   1      34.235  16.382   9.198  0.00  0.00     0.253 C 
ENDROOT
BRANCH   1   2
HETATM    2  P   UNK N   1      34.200  17.888   8.091  0.00  0.00     0.283 P 
HETATM    3  O   UNK N   1      32.811  18.584   8.103  0.00  0.00    -0.651 OA
BRANCH   2   4
HETATM    4  O   UNK N   1      34.495  17.550   6.415  0.00  0.00    -0.327 OA
HETATM    5  H   UNK N   1      35.046  18.073   5.813  0.00  0.00     0.220 HD
ENDBRANCH   2   4
BRANCH   2   6
HETATM    6  O   UNK N   1      35.309  19.144   8.543  0.00  0.00    -0.327 OA
HETATM    7  H   UNK N   1      35.629  19.817   7.922  0.00  0.00     0.220 HD
ENDBRANCH   2   6
ENDBRANCH   1   2
BRANCH   1   8
HETATM    8  P   UNK N   1      32.639  15.419   9.046  0.00  0.00     0.283 P 
HETATM    9  O   UNK N   1      32.906  13.986   8.514  0.00  0.00    -0.651 OA
BRANCH   8  10
HETATM   10  O   UNK N   1      31.508  16.081   7.907  0.00  0.00    -0.327 OA
HETATM   11  H   UNK N   1      30.833  15.657   7.355  0.00  0.00     0.220 HD
ENDBRANCH   8  10
BRANCH   8  12
HETATM   12  O   UNK N   1      31.766  15.167  10.525  0.00  0.00    -0.327 OA
HETATM   13  H   UNK N   1      31.620  14.569  11.277  0.00  0.00     0.220 HD
ENDBRANCH   8  12
ENDBRANCH   1   8
BRANCH   1  14
HETATM   14  O   UNK N   1      34.362  16.819  10.517  0.00  0.00    -0.368 OA
HETATM   15  H   UNK N   1      34.969  17.077  11.227  0.00  0.00     0.212 HD
ENDBRANCH   1  14
BRANCH   1  16
HETATM   16  C   UNK N   1      35.435  15.494   8.862  0.00  0.00     0.094 C 
BRANCH  16  17
HETATM   17  C   UNK N   1      36.224  15.086  10.102  0.00  0.00     0.276 C 
BRANCH  17  18
HETATM   18  N   UNK N   1      36.249  13.642  10.231  0.00  0.00     0.084 N 
HETATM   19  C   UNK N   1      37.506  13.307  10.878  0.00  0.00     0.309 C 
BRANCH  18  20
HETATM   20  C   UNK N   1      35.181  13.291  11.153  0.00  0.00     0.271 C 
BRANCH  20  21
HETATM   21  C   UNK N   1      35.521  13.775  12.553  0.00  0.00     0.030 C 
BRANCH  21  22
HETATM   22  C   UNK N   1      35.090  12.752  13.589  0.00  0.00     0.001 C 
BRANCH  22  23
HETATM   23  C   UNK N   1      35.413  13.247  14.986  0.00  0.00    -0.005 C 
HETATM   24  C   UNK N   1      36.714  14.018  14.962  0.00  0.00     0.005 C 
ENDBRANCH  22  23
ENDBRANCH  21  22
ENDBRANCH  20  21
ENDBRANCH  18  20
ENDBRANCH  17  18
ENDBRANCH  16  17
ENDBRANCH   1  16
TORSDOF 14
ENDMDL
MODEL 3
REMARK VINA RESULT:      -5.2      2.219      3.054
REMARK  14 active torsions:
REMARK  status: ('A' for Active; 'I' for Inactive)
REMARK    1  A    between atoms: P_1  and  O_4 
REMARK    2  A    between atoms: P_1  and  O_5 
REMARK    3  A    between atoms: P_1  and  C_11 
REMARK    4  A    between atoms: P_2  and  O_6 
REMARK    5  A    between atoms: P_2  and  O_7 
REMARK    6  A    between atoms: P_2  and  C_11 
REMARK    7  A    between atoms: O_3  and  C_11 
REMARK    8  A    between atoms: N_10  and  C_13 
REMARK    9  A    between atoms: N_10  and  C_14 
REMARK   10  A    between atoms: C_11  and  C_12 
REMARK   11  A    between atoms: C_12  and  C_13 
REMARK   12  A    between atoms: C_14  and  C_15 
REMARK   13  A    between atoms: C_15  and  C_16 
REMARK   14  A    between atoms: C_16  and  C_18 
ROOT
HETATM    1  C   UNK N   1      33.967  15.915   8.443  0.00  0.00     0.253 C 
ENDROOT
BRANCH   1   2
HETATM    2  P   UNK N   1      34.038  17.717   7.951  0.00  0.00     0.283 P 
HETATM    3  O   UNK N   1      32.707  18.456   8.262  0.00  0.00    -0.651 OA
BRANCH   2   4
HETATM    4  O   UNK N   1      34.290  17.986   6.256  0.00  0.00    -0.327 OA
HETATM    5  H   UNK N   1      35.133  18.207   5.830  0.00  0.00     0.220 HD
ENDBRANCH   2   4
BRANCH   2   6
HETATM    6  O   UNK N   1      35.244  18.647   8.783  0.00  0.00    -0.327 OA
HETATM    7  H   UNK N   1      35.068  19.520   9.167  0.00  0.00     0.220 HD
ENDBRANCH   2   6
ENDBRANCH   1   2
BRANCH   1   8
HETATM    8  P   UNK N   1      34.589  15.688  10.192  0.00  0.00     0.283 P 
HETATM    9  O   UNK N   1      35.856  14.792  10.216  0.00  0.00    -0.651 OA
BRANCH   8  10
HETATM   10  O   UNK N   1      33.481  14.868  11.246  0.00  0.00    -0.327 OA
HETATM   11  H   UNK N   1      32.582  15.095  11.532  0.00  0.00     0.220 HD
ENDBRANCH   8  10
BRANCH   8  12
HETATM   12  O   UNK N   1      35.079  17.137  11.013  0.00  0.00    -0.327 OA
HETATM   13  H   UNK N   1      35.781  17.800  11.117  0.00  0.00     0.220 HD
ENDBRANCH   8  12
ENDBRANCH   1   8
BRANCH   1  14
HETATM   14  O   UNK N   1      34.800  15.200   7.581  0.00  0.00    -0.368 OA
HETATM   15  H   UNK N   1      35.415  14.458   7.484  0.00  0.00     0.212 HD
ENDBRANCH   1  14
BRANCH   1  16
HETATM   16  C   UNK N   1      32.543  15.373   8.301  0.00  0.00     0.094 C 
BRANCH  16  17
HETATM   17  C   UNK N   1      32.301  14.715   6.947  0.00  0.00     0.276 C 
BRANCH  17  18
HETATM   18  N   UNK N   1      31.775  15.682   6.003  0.00  0.00     0.084 N 
HETATM   19  C   UNK N   1      32.250  15.279   4.691  0.00  0.00     0.309 C 
BRANCH  18  20
HETATM   20  C   UNK N   1      30.330  15.520   6.007  0.00  0.00     0.271 C 
BRANCH  20  21
HETATM   21  C   UNK N   1      29.653  16.868   5.829  0.00  0.00     0.030 C 
BRANCH  21  22
HETATM   22  C   UNK N   1      28.620  17.093   6.918  0.00  0.00     0.001 C 
BRANCH  22  23
HETATM   23  C   UNK N   1      29.298  17.466   8.223  0.00  0.00    -0.005 C 
HETATM   24  C   UNK N   1      28.258  17.933   9.218  0.00  0.00     0.005 C 
ENDBRANCH  22  23
ENDBRANCH  21  22
ENDBRANCH  20  21
ENDBRANCH  18  20
ENDBRANCH  17  18
ENDBRANCH  16  17
ENDBRANCH   1  16
TORSDOF 14
ENDMDL
MODEL 4
REMARK VINA RESULT:      -5.2     11.614     12.913
REMARK  14 active torsions:
REMARK  status: ('A' for Active; 'I' for Inactive)
REMARK    1  A    between atoms: P_1  and  O_4 
REMARK    2  A    between atoms: P_1  and  O_5 
REMARK    3  A    between atoms: P_1  and  C_11 
REMARK    4  A    between atoms: P_2  and  O_6 
REMARK    5  A    between atoms: P_2  and  O_7 
REMARK    6  A    between atoms: P_2  and  C_11 
REMARK    7  A    between atoms: O_3  and  C_11 
REMARK    8  A    between atoms: N_10  and  C_13 
REMARK    9  A    between atoms: N_10  and  C_14 
REMARK   10  A    between atoms: C_11  and  C_12 
REMARK   11  A    between atoms: C_12  and  C_13 
REMARK   12  A    between atoms: C_14  and  C_15 
REMARK   13  A    between atoms: C_15  and  C_16 
REMARK   14  A    between atoms: C_16  and  C_18 
ROOT
HETATM    1  C   UNK N   1      20.276  17.039   2.742  0.00  0.00     0.253 C 
ENDROOT
BRANCH   1   2
HETATM    2  P   UNK N   1      19.752  18.820   2.517  0.00  0.00     0.283 P 
HETATM    3  O   UNK N   1      20.135  19.695   3.742  0.00  0.00    -0.651 OA
BRANCH   2   4
HETATM    4  O   UNK N   1      18.040  19.044   2.350  0.00  0.00    -0.327 OA
HETATM    5  H   UNK N   1      17.455  19.491   2.981  0.00  0.00     0.220 HD
ENDBRANCH   2   4
BRANCH   2   6
HETATM    6  O   UNK N   1      20.489  19.626   1.170  0.00  0.00    -0.327 OA
HETATM    7  H   UNK N   1      20.222  19.473   0.250  0.00  0.00     0.220 HD
ENDBRANCH   2   6
ENDBRANCH   1   2
BRANCH   1   8
HETATM    8  P   UNK N   1      20.268  16.142   1.101  0.00  0.00     0.283 P 
HETATM    9  O   UNK N   1      21.533  15.255   0.950  0.00  0.00    -0.651 OA
BRANCH   8  10
HETATM   10  O   UNK N   1      20.324  17.184  -0.287  0.00  0.00    -0.327 OA
HETATM   11  H   UNK N   1      20.645  18.092  -0.392  0.00  0.00     0.220 HD
ENDBRANCH   8  10
BRANCH   8  12
HETATM   12  O   UNK N   1      18.947  15.044   0.847  0.00  0.00    -0.327 OA
HETATM   13  H   UNK N   1      18.056  14.935   0.477  0.00  0.00     0.220 HD
ENDBRANCH   8  12
ENDBRANCH   1   8
BRANCH   1  14
HETATM   14  O   UNK N   1      19.353  16.421   3.587  0.00  0.00    -0.368 OA
HETATM   15  H   UNK N   1      18.826  16.492   4.397  0.00  0.00     0.212 HD
ENDBRANCH   1  14
BRANCH   1  16
HETATM   16  C   UNK N   1      21.658  16.962   3.394  0.00  0.00     0.094 C 
BRANCH  16  17
HETATM   17  C   UNK N   1      21.682  16.032   4.602  0.00  0.00     0.276 C 
BRANCH  17  18
HETATM   18  N   UNK N   1      22.494  16.601   5.660  0.00  0.00     0.084 N 
HETATM   19  C   UNK N   1      21.825  17.819   6.085  0.00  0.00     0.309 C 
BRANCH  18  20
HETATM   20  C   UNK N   1      22.437  15.667   6.772  0.00  0.00     0.271 C 
BRANCH  20  21
HETATM   21  C   UNK N   1      21.040  15.651   7.370  0.00  0.00     0.030 C 
BRANCH  21  22
HETATM   22  C   UNK N   1      20.748  14.305   8.006  0.00  0.00     0.001 C 
BRANCH  22  23
HETATM   23  C   UNK N   1      20.854  14.398   9.517  0.00  0.00    -0.005 C 
HETATM   24  C   UNK N   1      21.892  13.416  10.012  0.00  0.00     0.005 C 
ENDBRANCH  22  23
ENDBRANCH  21  22
ENDBRANCH  20  21
ENDBRANCH  18  20
ENDBRANCH  17  18
ENDBRANCH  16  17
ENDBRANCH   1  16
TORSDOF 14
ENDMDL
MODEL 5
REMARK VINA RESULT:      -5.1      7.056      9.708
REMARK  14 active torsions:
REMARK  status: ('A' for Active; 'I' for Inactive)
REMARK    1  A    between atoms: P_1  and  O_4 
REMARK    2  A    between atoms: P_1  and  O_5 
REMARK    3  A    between atoms: P_1  and  C_11 
REMARK    4  A    between atoms: P_2  and  O_6 
REMARK    5  A    between atoms: P_2  and  O_7 
REMARK    6  A    between atoms: P_2  and  C_11 
REMARK    7  A    between atoms: O_3  and  C_11 
REMARK    8  A    between atoms: N_10  and  C_13 
REMARK    9  A    between atoms: N_10  and  C_14 
REMARK   10  A    between atoms: C_11  and  C_12 
REMARK   11  A    between atoms: C_12  and  C_13 
REMARK   12  A    between atoms: C_14  and  C_15 
REMARK   13  A    between atoms: C_15  and  C_16 
REMARK   14  A    between atoms: C_16  and  C_18 
ROOT
HETATM    1  C   UNK N   1      35.560  14.020  11.517  0.00  0.00     0.253 C 
ENDROOT
BRANCH   1   2
HETATM    2  P   UNK N   1      34.498  15.254  10.598  0.00  0.00     0.283 P 
HETATM    3  O   UNK N   1      34.623  15.093   9.059  0.00  0.00    -0.651 OA
BRANCH   2   4
HETATM    4  O   UNK N   1      34.915  16.913  10.890  0.00  0.00    -0.327 OA
HETATM    5  H   UNK N   1      34.387  17.558  11.385  0.00  0.00     0.220 HD
ENDBRANCH   2   4
BRANCH   2   6
HETATM    6  O   UNK N   1      32.795  15.113  10.904  0.00  0.00    -0.327 OA
HETATM    7  H   UNK N   1      32.403  15.233  11.783  0.00  0.00     0.220 HD
ENDBRANCH   2   6
ENDBRANCH   1   2
BRANCH   1   8
HETATM    8  P   UNK N   1      37.078  13.587  10.515  0.00  0.00     0.283 P 
HETATM    9  O   UNK N   1      37.995  12.607  11.295  0.00  0.00    -0.651 OA
BRANCH   8  10
HETATM   10  O   UNK N   1      38.115  14.935  10.165  0.00  0.00    -0.327 OA
HETATM   11  H   UNK N   1      38.904  15.007   9.607  0.00  0.00     0.220 HD
ENDBRANCH   8  10
BRANCH   8  12
HETATM   12  O   UNK N   1      36.782  12.781   9.006  0.00  0.00    -0.327 OA
HETATM   13  H   UNK N   1      36.355  12.024   8.573  0.00  0.00     0.220 HD
ENDBRANCH   8  12
ENDBRANCH   1   8
BRANCH   1  14
HETATM   14  O   UNK N   1      34.809  12.859  11.704  0.00  0.00    -0.368 OA
HETATM   15  H   UNK N   1      34.321  12.136  11.282  0.00  0.00     0.212 HD
ENDBRANCH   1  14
BRANCH   1  16
HETATM   16  C   UNK N   1      35.956  14.567  12.890  0.00  0.00     0.094 C 
BRANCH  16  17
HETATM   17  C   UNK N   1      35.578  13.623  14.026  0.00  0.00     0.276 C 
BRANCH  17  18
HETATM   18  N   UNK N   1      36.746  13.297  14.821  0.00  0.00     0.084 N 
HETATM   19  C   UNK N   1      37.048  14.475  15.616  0.00  0.00     0.309 C 
BRANCH  18  20
HETATM   20  C   UNK N   1      36.340  12.248  15.742  0.00  0.00     0.271 C 
BRANCH  20  21
HETATM   21  C   UNK N   1      35.166  12.718  16.584  0.00  0.00     0.030 C 
BRANCH  21  22
HETATM   22  C   UNK N   1      35.245  12.132  17.982  0.00  0.00     0.001 C 
BRANCH  22  23
HETATM   23  C   UNK N   1      35.820  10.730  17.936  0.00  0.00    -0.005 C 
HETATM   24  C   UNK N   1      34.693   9.720  17.923  0.00  0.00     0.005 C 
ENDBRANCH  22  23
ENDBRANCH  21  22
ENDBRANCH  20  21
ENDBRANCH  18  20
ENDBRANCH  17  18
ENDBRANCH  16  17
ENDBRANCH   1  16
TORSDOF 14
ENDMDL
MODEL 6
REMARK VINA RESULT:      -5.1      4.978      7.901
REMARK  14 active torsions:
REMARK  status: ('A' for Active; 'I' for Inactive)
REMARK    1  A    between atoms: P_1  and  O_4 
REMARK    2  A    between atoms: P_1  and  O_5 
REMARK    3  A    between atoms: P_1  and  C_11 
REMARK    4  A    between atoms: P_2  and  O_6 
REMARK    5  A    between atoms: P_2  and  O_7 
REMARK    6  A    between atoms: P_2  and  C_11 
REMARK    7  A    between atoms: O_3  and  C_11 
REMARK    8  A    between atoms: N_10  and  C_13 
REMARK    9  A    between atoms: N_10  and  C_14 
REMARK   10  A    between atoms: C_11  and  C_12 
REMARK   11  A    between atoms: C_12  and  C_13 
REMARK   12  A    between atoms: C_14  and  C_15 
REMARK   13  A    between atoms: C_15  and  C_16 
REMARK   14  A    between atoms: C_16  and  C_18 
ROOT
HETATM    1  C   UNK N   1      34.464  16.102   8.597  0.00  0.00     0.253 C 
ENDROOT
BRANCH   1   2
HETATM    2  P   UNK N   1      32.846  15.256   8.997  0.00  0.00     0.283 P 
HETATM    3  O   UNK N   1      32.829  13.779   8.515  0.00  0.00    -0.651 OA
BRANCH   2   4
HETATM    4  O   UNK N   1      31.459  15.970   8.237  0.00  0.00    -0.327 OA
HETATM    5  H   UNK N   1      30.580  16.076   8.632  0.00  0.00     0.220 HD
ENDBRANCH   2   4
BRANCH   2   6
HETATM    6  O   UNK N   1      32.482  15.154  10.691  0.00  0.00    -0.327 OA
HETATM    7  H   UNK N   1      32.304  15.932  11.242  0.00  0.00     0.220 HD
ENDBRANCH   2   6
ENDBRANCH   1   2
BRANCH   1   8
HETATM    8  P   UNK N   1      34.157  17.829   7.948  0.00  0.00     0.283 P 
HETATM    9  O   UNK N   1      32.753  18.337   8.369  0.00  0.00    -0.651 OA
BRANCH   8  10
HETATM   10  O   UNK N   1      34.141  17.952   6.216  0.00  0.00    -0.327 OA
HETATM   11  H   UNK N   1      34.690  17.527   5.539  0.00  0.00     0.220 HD
ENDBRANCH   8  10
BRANCH   8  12
HETATM   12  O   UNK N   1      35.243  19.056   8.525  0.00  0.00    -0.327 OA
HETATM   13  H   UNK N   1      35.395  19.736   9.200  0.00  0.00     0.220 HD
ENDBRANCH   8  12
ENDBRANCH   1   8
BRANCH   1  14
HETATM   14  O   UNK N   1      35.102  15.363   7.600  0.00  0.00    -0.368 OA
HETATM   15  H   UNK N   1      35.897  15.259   7.055  0.00  0.00     0.212 HD
ENDBRANCH   1  14
BRANCH   1  16
HETATM   16  C   UNK N   1      35.371  16.141   9.829  0.00  0.00     0.094 C 
BRANCH  16  17
HETATM   17  C   UNK N   1      36.196  14.869   9.986  0.00  0.00     0.276 C 
BRANCH  17  18
HETATM   18  N   UNK N   1      36.299  14.504  11.386  0.00  0.00     0.084 N 
HETATM   19  C   UNK N   1      35.758  15.619  12.145  0.00  0.00     0.309 C 
BRANCH  18  20
HETATM   20  C   UNK N   1      35.407  13.373  11.585  0.00  0.00     0.271 C 
BRANCH  20  21
HETATM   21  C   UNK N   1      35.387  12.976  13.051  0.00  0.00     0.030 C 
BRANCH  21  22
HETATM   22  C   UNK N   1      36.701  12.324  13.444  0.00  0.00     0.001 C 
BRANCH  22  23
HETATM   23  C   UNK N   1      36.955  12.501  14.929  0.00  0.00    -0.005 C 
HETATM   24  C   UNK N   1      36.847  13.966  15.290  0.00  0.00     0.005 C 
ENDBRANCH  22  23
ENDBRANCH  21  22
ENDBRANCH  20  21
ENDBRANCH  18  20
ENDBRANCH  17  18
ENDBRANCH  16  17
ENDBRANCH   1  16
TORSDOF 14
ENDMDL
MODEL 7
REMARK VINA RESULT:      -5.1      1.567      3.302
REMARK  14 active torsions:
REMARK  status: ('A' for Active; 'I' for Inactive)
REMARK    1  A    between atoms: P_1  and  O_4 
REMARK    2  A    between atoms: P_1  and  O_5 
REMARK    3  A    between atoms: P_1  and  C_11 
REMARK    4  A    between atoms: P_2  and  O_6 
REMARK    5  A    between atoms: P_2  and  O_7 
REMARK    6  A    between atoms: P_2  and  C_11 
REMARK    7  A    between atoms: O_3  and  C_11 
REMARK    8  A    between atoms: N_10  and  C_13 
REMARK    9  A    between atoms: N_10  and  C_14 
REMARK   10  A    between atoms: C_11  and  C_12 
REMARK   11  A    between atoms: C_12  and  C_13 
REMARK   12  A    between atoms: C_14  and  C_15 
REMARK   13  A    between atoms: C_15  and  C_16 
REMARK   14  A    between atoms: C_16  and  C_18 
ROOT
HETATM    1  C   UNK N   1      32.590  16.430   8.202  0.00  0.00     0.253 C 
ENDROOT
BRANCH   1   2
HETATM    2  P   UNK N   1      33.193  14.983   9.220  0.00  0.00     0.283 P 
HETATM    3  O   UNK N   1      34.695  14.681   8.965  0.00  0.00    -0.651 OA
BRANCH   2   4
HETATM    4  O   UNK N   1      32.391  13.484   8.875  0.00  0.00    -0.327 OA
HETATM    5  H   UNK N   1      32.746  12.752   8.347  0.00  0.00     0.220 HD
ENDBRANCH   2   4
BRANCH   2   6
HETATM    6  O   UNK N   1      33.091  15.213  10.937  0.00  0.00    -0.327 OA
HETATM    7  H   UNK N   1      32.927  16.078  11.346  0.00  0.00     0.220 HD
ENDBRANCH   2   6
ENDBRANCH   1   2
BRANCH   1   8
HETATM    8  P   UNK N   1      33.989  17.145   7.186  0.00  0.00     0.283 P 
HETATM    9  O   UNK N   1      33.452  17.778   5.875  0.00  0.00    -0.651 OA
BRANCH   8  10
HETATM   10  O   UNK N   1      35.148  15.974   6.637  0.00  0.00    -0.327 OA
HETATM   11  H   UNK N   1      35.835  16.026   5.955  0.00  0.00     0.220 HD
ENDBRANCH   8  10
BRANCH   8  12
HETATM   12  O   UNK N   1      34.890  18.425   7.937  0.00  0.00    -0.327 OA
HETATM   13  H   UNK N   1      35.153  19.358   7.883  0.00  0.00     0.220 HD
ENDBRANCH   8  12
ENDBRANCH   1   8
BRANCH   1  14
HETATM   14  O   UNK N   1      32.135  17.415   9.079  0.00  0.00    -0.368 OA
HETATM   15  H   UNK N   1      32.097  18.362   9.281  0.00  0.00     0.212 HD
ENDBRANCH   1  14
BRANCH   1  16
HETATM   16  C   UNK N   1      31.428  16.008   7.300  0.00  0.00     0.094 C 
BRANCH  16  17
HETATM   17  C   UNK N   1      30.299  17.032   7.287  0.00  0.00     0.276 C 
BRANCH  17  18
HETATM   18  N   UNK N   1      30.003  17.440   5.927  0.00  0.00     0.084 N 
HETATM   19  C   UNK N   1      30.250  16.283   5.085  0.00  0.00     0.309 C 
BRANCH  18  20
HETATM   20  C   UNK N   1      28.576  17.713   5.878  0.00  0.00     0.271 C 
BRANCH  20  21
HETATM   21  C   UNK N   1      28.223  18.820   6.857  0.00  0.00     0.030 C 
BRANCH  21  22
HETATM   22  C   UNK N   1      27.528  19.963   6.139  0.00  0.00     0.001 C 
BRANCH  22  23
HETATM   23  C   UNK N   1      27.931  19.994   4.677  0.00  0.00    -0.005 C 
HETATM   24  C   UNK N   1      26.710  20.253   3.821  0.00  0.00     0.005 C 
ENDBRANCH  22  23
ENDBRANCH  21  22
ENDBRANCH  20  21
ENDBRANCH  18  20
ENDBRANCH  17  18
ENDBRANCH  16  17
ENDBRANCH   1  16
TORSDOF 14
ENDMDL
MODEL 8
REMARK VINA RESULT:      -5.0      3.657      4.486
REMARK  14 active torsions:
REMARK  status: ('A' for Active; 'I' for Inactive)
REMARK    1  A    between atoms: P_1  and  O_4 
REMARK    2  A    between atoms: P_1  and  O_5 
REMARK    3  A    between atoms: P_1  and  C_11 
REMARK    4  A    between atoms: P_2  and  O_6 
REMARK    5  A    between atoms: P_2  and  O_7 
REMARK    6  A    between atoms: P_2  and  C_11 
REMARK    7  A    between atoms: O_3  and  C_11 
REMARK    8  A    between atoms: N_10  and  C_13 
REMARK    9  A    between atoms: N_10  and  C_14 
REMARK   10  A    between atoms: C_11  and  C_12 
REMARK   11  A    between atoms: C_12  and  C_13 
REMARK   12  A    between atoms: C_14  and  C_15 
REMARK   13  A    between atoms: C_15  and  C_16 
REMARK   14  A    between atoms: C_16  and  C_18 
ROOT
HETATM    1  C   UNK N   1      34.245  15.849   8.520  0.00  0.00     0.253 C 
ENDROOT
BRANCH   1   2
HETATM    2  P   UNK N   1      34.150  17.662   8.074  0.00  0.00     0.283 P 
HETATM    3  O   UNK N   1      34.485  17.909   6.578  0.00  0.00    -0.651 OA
BRANCH   2   4
HETATM    4  O   UNK N   1      35.271  18.668   8.935  0.00  0.00    -0.327 OA
HETATM    5  H   UNK N   1      35.200  18.942   9.863  0.00  0.00     0.220 HD
ENDBRANCH   2   4
BRANCH   2   6
HETATM    6  O   UNK N   1      32.583  18.377   8.284  0.00  0.00    -0.327 OA
HETATM    7  H   UNK N   1      32.044  18.697   7.544  0.00  0.00     0.220 HD
ENDBRANCH   2   6
ENDBRANCH   1   2
BRANCH   1   8
HETATM    8  P   UNK N   1      34.632  15.640  10.337  0.00  0.00     0.283 P 
HETATM    9  O   UNK N   1      35.879  14.737  10.537  0.00  0.00    -0.651 OA
BRANCH   8  10
HETATM   10  O   UNK N   1      33.390  14.839  11.248  0.00  0.00    -0.327 OA
HETATM   11  H   UNK N   1      33.390  14.472  12.146  0.00  0.00     0.220 HD
ENDBRANCH   8  10
BRANCH   8  12
HETATM   12  O   UNK N   1      35.021  17.097  11.199  0.00  0.00    -0.327 OA
HETATM   13  H   UNK N   1      35.532  17.483  11.928  0.00  0.00     0.220 HD
ENDBRANCH   8  12
ENDBRANCH   1   8
BRANCH   1  14
HETATM   14  O   UNK N   1      35.280  15.276   7.780  0.00  0.00    -0.368 OA
HETATM   15  H   UNK N   1      35.642  14.466   7.390  0.00  0.00     0.212 HD
ENDBRANCH   1  14
BRANCH   1  16
HETATM   16  C   UNK N   1      32.939  15.136   8.160  0.00  0.00     0.094 C 
BRANCH  16  17
HETATM   17  C   UNK N   1      33.161  13.938   7.245  0.00  0.00     0.276 C 
BRANCH  17  18
HETATM   18  N   UNK N   1      32.187  13.936   6.171  0.00  0.00     0.084 N 
HETATM   19  C   UNK N   1      31.444  15.179   6.283  0.00  0.00     0.309 C 
BRANCH  18  20
HETATM   20  C   UNK N   1      32.941  13.994   4.929  0.00  0.00     0.271 C 
BRANCH  20  21
HETATM   21  C   UNK N   1      33.388  15.420   4.656  0.00  0.00     0.030 C 
BRANCH  21  22
HETATM   22  C   UNK N   1      33.344  15.717   3.168  0.00  0.00     0.001 C 
BRANCH  22  23
HETATM   23  C   UNK N   1      32.273  16.748   2.866  0.00  0.00    -0.005 C 
HETATM   24  C   UNK N   1      32.234  17.776   3.975  0.00  0.00     0.005 C 
ENDBRANCH  22  23
ENDBRANCH  21  22
ENDBRANCH  20  21
ENDBRANCH  18  20
ENDBRANCH  17  18
ENDBRANCH  16  17
ENDBRANCH   1  16
TORSDOF 14
ENDMDL
MODEL 9
REMARK VINA RESULT:      -5.0      3.383      5.171
REMARK  14 active torsions:
REMARK  status: ('A' for Active; 'I' for Inactive)
REMARK    1  A    between atoms: P_1  and  O_4 
REMARK    2  A    between atoms: P_1  and  O_5 
REMARK    3  A    between atoms: P_1  and  C_11 
REMARK    4  A    between atoms: P_2  and  O_6 
REMARK    5  A    between atoms: P_2  and  O_7 
REMARK    6  A    between atoms: P_2  and  C_11 
REMARK    7  A    between atoms: O_3  and  C_11 
REMARK    8  A    between atoms: N_10  and  C_13 
REMARK    9  A    between atoms: N_10  and  C_14 
REMARK   10  A    between atoms: C_11  and  C_12 
REMARK   11  A    between atoms: C_12  and  C_13 
REMARK   12  A    between atoms: C_14  and  C_15 
REMARK   13  A    between atoms: C_15  and  C_16 
REMARK   14  A    between atoms: C_16  and  C_18 
ROOT
HETATM    1  C   UNK N   1      34.576  14.421  10.647  0.00  0.00     0.253 C 
ENDROOT
BRANCH   1   2
HETATM    2  P   UNK N   1      34.820  12.745  11.437  0.00  0.00     0.283 P 
HETATM    3  O   UNK N   1      36.289  12.257  11.320  0.00  0.00    -0.651 OA
BRANCH   2   4
HETATM    4  O   UNK N   1      33.887  11.472  10.715  0.00  0.00    -0.327 OA
HETATM    5  H   UNK N   1      32.964  11.532  10.425  0.00  0.00     0.220 HD
ENDBRANCH   2   4
BRANCH   2   6
HETATM    6  O   UNK N   1      34.489  12.693  13.140  0.00  0.00    -0.327 OA
HETATM    7  H   UNK N   1      34.258  13.480  13.659  0.00  0.00     0.220 HD
ENDBRANCH   2   6
ENDBRANCH   1   2
BRANCH   1   8
HETATM    8  P   UNK N   1      35.840  15.640  11.290  0.00  0.00     0.283 P 
HETATM    9  O   UNK N   1      35.319  17.096  11.166  0.00  0.00    -0.651 OA
BRANCH   8  10
HETATM   10  O   UNK N   1      37.334  15.657  10.406  0.00  0.00    -0.327 OA
HETATM   11  H   UNK N   1      38.072  16.286  10.408  0.00  0.00     0.220 HD
ENDBRANCH   8  10
BRANCH   8  12
HETATM   12  O   UNK N   1      36.256  15.481  12.969  0.00  0.00    -0.327 OA
HETATM   13  H   UNK N   1      36.979  15.375  13.608  0.00  0.00     0.220 HD
ENDBRANCH   8  12
ENDBRANCH   1   8
BRANCH   1  14
HETATM   14  O   UNK N   1      33.305  14.881  10.993  0.00  0.00    -0.368 OA
HETATM   15  H   UNK N   1      32.620  14.924  11.677  0.00  0.00     0.212 HD
ENDBRANCH   1  14
BRANCH   1  16
HETATM   16  C   UNK N   1      34.655  14.315   9.122  0.00  0.00     0.094 C 
BRANCH  16  17
HETATM   17  C   UNK N   1      33.638  15.209   8.421  0.00  0.00     0.276 C 
BRANCH  17  18
HETATM   18  N   UNK N   1      34.311  16.276   7.708  0.00  0.00     0.084 N 
HETATM   19  C   UNK N   1      34.720  15.724   6.428  0.00  0.00     0.309 C 
BRANCH  18  20
HETATM   20  C   UNK N   1      33.306  17.292   7.439  0.00  0.00     0.271 C 
BRANCH  20  21
HETATM   21  C   UNK N   1      32.400  17.462   8.646  0.00  0.00     0.030 C 
BRANCH  21  22
HETATM   22  C   UNK N   1      30.969  17.714   8.207  0.00  0.00     0.001 C 
BRANCH  22  23
HETATM   23  C   UNK N   1      30.282  18.669   9.165  0.00  0.00    -0.005 C 
HETATM   24  C   UNK N   1      28.797  18.378   9.191  0.00  0.00     0.005 C 
ENDBRANCH  22  23
ENDBRANCH  21  22
ENDBRANCH  20  21
ENDBRANCH  18  20
ENDBRANCH  17  18
ENDBRANCH  16  17
ENDBRANCH   1  16
TORSDOF 14
ENDMDL
