MODEL 1
REMARK VINA RESULT:      -7.0      0.000      0.000
REMARK  4 active torsions:
REMARK  status: ('A' for Active; 'I' for Inactive)
REMARK    1  A    between atoms: O_2  and  C_13 
REMARK    2  A    between atoms: C_4  and  C_5 
REMARK    3  A    between atoms: C_4  and  C_13 
REMARK    4  A    between atoms: C_6  and  C_12 
ROOT
HETATM    1  F   UNK N   1      37.201  14.800  15.909  0.00  0.00    -0.205 F 
HETATM    2  C   UNK N   1      35.667  13.867  12.713  0.00  0.00    -0.041 A 
HETATM    3  C   UNK N   1      35.626  13.032  15.414  0.00  0.00     0.013 A 
HETATM    4  C   UNK N   1      36.447  14.534  13.673  0.00  0.00     0.051 A 
HETATM    5  C   UNK N   1      34.877  12.791  13.118  0.00  0.00     0.009 A 
HETATM    6  C   UNK N   1      36.433  14.127  15.016  0.00  0.00     0.128 A 
HETATM    7  C   UNK N   1      34.856  12.380  14.442  0.00  0.00     0.016 A 
ENDROOT
BRANCH   2   8
HETATM    8  C   UNK N   1      35.674  14.296  11.263  0.00  0.00     0.112 C 
HETATM    9  C   UNK N   1      34.700  13.654  10.286  0.00  0.00     0.026 C 
BRANCH   8  10
HETATM   10  C   UNK N   1      36.619  15.352  10.731  0.00  0.00     0.148 C 
HETATM   11  O   UNK N   1      36.302  16.533  10.728  0.00  0.00    -0.649 OA
BRANCH  10  12
HETATM   12  O   UNK N   1      37.824  14.996  10.252  0.00  0.00    -0.776 OA
HETATM   13  H   UNK N   1      38.593  15.451  10.534  0.00  0.00     0.167 HD
ENDBRANCH  10  12
ENDBRANCH   8  10
ENDBRANCH   2   8
BRANCH   3  14
HETATM   14  C   UNK N   1      35.550  12.533  16.817  0.00  0.00    -0.023 A 
HETATM   15  C   UNK N   1      35.197  13.370  17.886  0.00  0.00     0.012 A 
HETATM   16  C   UNK N   1      35.136  12.867  19.191  0.00  0.00     0.001 A 
HETATM   17  C   UNK N   1      35.427  11.523  19.439  0.00  0.00     0.000 A 
HETATM   18  C   UNK N   1      35.780  10.680  18.385  0.00  0.00     0.001 A 
HETATM   19  C   UNK N   1      35.840  11.182  17.085  0.00  0.00     0.012 A 
ENDBRANCH   3  14
TORSDOF 4
ENDMDL
MODEL 2
REMARK VINA RESULT:      -7.0      1.335      2.100
REMARK  4 active torsions:
REMARK  status: ('A' for Active; 'I' for Inactive)
REMARK    1  A    between atoms: O_2  and  C_13 
REMARK    2  A    between atoms: C_4  and  C_5 
REMARK    3  A    between atoms: C_4  and  C_13 
REMARK    4  A    between atoms: C_6  and  C_12 
ROOT
HETATM    1  F   UNK N   1      33.727  11.260  14.995  0.00  0.00    -0.205 F 
HETATM    2  C   UNK N   1      35.617  13.650  12.956  0.00  0.00    -0.041 A 
HETATM    3  C   UNK N   1      35.462  12.813  15.653  0.00  0.00     0.013 A 
HETATM    4  C   UNK N   1      34.705  12.650  13.337  0.00  0.00     0.051 A 
HETATM    5  C   UNK N   1      36.438  14.218  13.930  0.00  0.00     0.009 A 
HETATM    6  C   UNK N   1      34.621  12.228  14.673  0.00  0.00     0.128 A 
HETATM    7  C   UNK N   1      36.363  13.808  15.253  0.00  0.00     0.016 A 
ENDROOT
BRANCH   2   8
HETATM    8  C   UNK N   1      35.716  14.112  11.520  0.00  0.00     0.112 C 
HETATM    9  C   UNK N   1      35.610  13.093  10.394  0.00  0.00     0.026 C 
BRANCH   8  10
HETATM   10  C   UNK N   1      35.920  15.564  11.144  0.00  0.00     0.148 C 
HETATM   11  O   UNK N   1      34.975  16.340  11.103  0.00  0.00    -0.649 OA
BRANCH  10  12
HETATM   12  O   UNK N   1      37.151  16.016  10.849  0.00  0.00    -0.776 OA
HETATM   13  H   UNK N   1      37.560  16.656  11.398  0.00  0.00     0.167 HD
ENDBRANCH  10  12
ENDBRANCH   8  10
ENDBRANCH   2   8
BRANCH   3  14
HETATM   14  C   UNK N   1      35.440  12.427  17.092  0.00  0.00    -0.023 A 
HETATM   15  C   UNK N   1      35.682  11.110  17.513  0.00  0.00     0.012 A 
HETATM   16  C   UNK N   1      35.653  10.783  18.873  0.00  0.00     0.001 A 
HETATM   17  C   UNK N   1      35.382  11.768  19.826  0.00  0.00     0.000 A 
HETATM   18  C   UNK N   1      35.139  13.081  19.421  0.00  0.00     0.001 A 
HETATM   19  C   UNK N   1      35.168  13.407  18.066  0.00  0.00     0.012 A 
ENDBRANCH   3  14
TORSDOF 4
ENDMDL
MODEL 3
REMARK VINA RESULT:      -6.6     11.349     14.120
REMARK  4 active torsions:
REMARK  status: ('A' for Active; 'I' for Inactive)
REMARK    1  A    between atoms: O_2  and  C_13 
REMARK    2  A    between atoms: C_4  and  C_5 
REMARK    3  A    between atoms: C_4  and  C_13 
REMARK    4  A    between atoms: C_6  and  C_12 
ROOT
HETATM    1  F   UNK N   1      27.909  21.018   6.552  0.00  0.00    -0.205 F 
HETATM    2  C   UNK N   1      25.360  19.186   4.658  0.00  0.00    -0.041 A 
HETATM    3  C   UNK N   1      27.640  18.634   6.236  0.00  0.00     0.013 A 
HETATM    4  C   UNK N   1      26.095  20.237   5.232  0.00  0.00     0.051 A 
HETATM    5  C   UNK N   1      25.776  17.873   4.881  0.00  0.00     0.009 A 
HETATM    6  C   UNK N   1      27.229  19.973   6.017  0.00  0.00     0.128 A 
HETATM    7  C   UNK N   1      26.894  17.601   5.655  0.00  0.00     0.016 A 
ENDROOT
BRANCH   2   8
HETATM    8  C   UNK N   1      24.138  19.458   3.811  0.00  0.00     0.112 C 
HETATM    9  C   UNK N   1      22.932  18.534   3.914  0.00  0.00     0.026 C 
BRANCH   8  10
HETATM   10  C   UNK N   1      24.055  20.625   2.850  0.00  0.00     0.148 C 
HETATM   11  O   UNK N   1      24.929  20.813   2.015  0.00  0.00    -0.649 OA
BRANCH  10  12
HETATM   12  O   UNK N   1      23.012  21.471   2.906  0.00  0.00    -0.776 OA
HETATM   13  H   UNK N   1      22.144  21.138   3.020  0.00  0.00     0.167 HD
ENDBRANCH  10  12
ENDBRANCH   8  10
ENDBRANCH   2   8
BRANCH   3  14
HETATM   14  C   UNK N   1      28.830  18.263   7.054  0.00  0.00    -0.023 A 
HETATM   15  C   UNK N   1      28.984  18.694   8.381  0.00  0.00     0.012 A 
HETATM   16  C   UNK N   1      30.114  18.326   9.120  0.00  0.00     0.001 A 
HETATM   17  C   UNK N   1      31.100  17.524   8.541  0.00  0.00     0.000 A 
HETATM   18  C   UNK N   1      30.959  17.088   7.223  0.00  0.00     0.001 A 
HETATM   19  C   UNK N   1      29.833  17.455   6.487  0.00  0.00     0.012 A 
ENDBRANCH   3  14
TORSDOF 4
ENDMDL
MODEL 4
REMARK VINA RESULT:      -6.6      1.451      1.985
REMARK  4 active torsions:
REMARK  status: ('A' for Active; 'I' for Inactive)
REMARK    1  A    between atoms: O_2  and  C_13 
REMARK    2  A    between atoms: C_4  and  C_5 
REMARK    3  A    between atoms: C_4  and  C_13 
REMARK    4  A    between atoms: C_6  and  C_12 
ROOT
HETATM    1  F   UNK N   1      33.792  11.088  15.146  0.00  0.00    -0.205 F 
HETATM    2  C   UNK N   1      35.604  13.618  13.209  0.00  0.00    -0.041 A 
HETATM    3  C   UNK N   1      35.445  12.697  15.877  0.00  0.00     0.013 A 
HETATM    4  C   UNK N   1      34.732  12.568  13.545  0.00  0.00     0.051 A 
HETATM    5  C   UNK N   1      36.384  14.193  14.212  0.00  0.00     0.009 A 
HETATM    6  C   UNK N   1      34.647  12.104  14.867  0.00  0.00     0.128 A 
HETATM    7  C   UNK N   1      36.307  13.742  15.522  0.00  0.00     0.016 A 
ENDROOT
BRANCH   2   8
HETATM    8  C   UNK N   1      35.705  14.127  11.789  0.00  0.00     0.112 C 
HETATM    9  C   UNK N   1      34.462  14.666  11.094  0.00  0.00     0.026 C 
BRANCH   8  10
HETATM   10  C   UNK N   1      37.004  14.124  11.013  0.00  0.00     0.148 C 
HETATM   11  O   UNK N   1      37.714  13.128  10.981  0.00  0.00    -0.649 OA
BRANCH  10  12
HETATM   12  O   UNK N   1      37.393  15.225  10.346  0.00  0.00    -0.776 OA
HETATM   13  H   UNK N   1      37.342  15.250   9.411  0.00  0.00     0.167 HD
ENDBRANCH  10  12
ENDBRANCH   8  10
ENDBRANCH   2   8
BRANCH   3  14
HETATM   14  C   UNK N   1      35.418  12.267  17.305  0.00  0.00    -0.023 A 
HETATM   15  C   UNK N   1      35.165  13.171  18.349  0.00  0.00     0.012 A 
HETATM   16  C   UNK N   1      35.147  12.732  19.677  0.00  0.00     0.001 A 
HETATM   17  C   UNK N   1      35.382  11.387  19.976  0.00  0.00     0.000 A 
HETATM   18  C   UNK N   1      35.634  10.479  18.947  0.00  0.00     0.001 A 
HETATM   19  C   UNK N   1      35.652  10.916  17.623  0.00  0.00     0.012 A 
ENDBRANCH   3  14
TORSDOF 4
ENDMDL
MODEL 5
REMARK VINA RESULT:      -6.6     14.731     17.628
REMARK  4 active torsions:
REMARK  status: ('A' for Active; 'I' for Inactive)
REMARK    1  A    between atoms: O_2  and  C_13 
REMARK    2  A    between atoms: C_4  and  C_5 
REMARK    3  A    between atoms: C_4  and  C_13 
REMARK    4  A    between atoms: C_6  and  C_12 
ROOT
HETATM    1  F   UNK N   1      25.818  21.045   2.656  0.00  0.00    -0.205 F 
HETATM    2  C   UNK N   1      22.338  19.917   2.898  0.00  0.00    -0.041 A 
HETATM    3  C   UNK N   1      24.830  19.398   4.128  0.00  0.00     0.013 A 
HETATM    4  C   UNK N   1      23.490  20.607   2.483  0.00  0.00     0.051 A 
HETATM    5  C   UNK N   1      22.448  18.978   3.923  0.00  0.00     0.009 A 
HETATM    6  C   UNK N   1      24.732  20.356   3.088  0.00  0.00     0.128 A 
HETATM    7  C   UNK N   1      23.670  18.722   4.528  0.00  0.00     0.016 A 
ENDROOT
BRANCH   2   8
HETATM    8  C   UNK N   1      20.995  20.179   2.254  0.00  0.00     0.112 C 
HETATM    9  C   UNK N   1      19.741  19.561   2.856  0.00  0.00     0.026 C 
BRANCH   8  10
HETATM   10  C   UNK N   1      20.837  21.040   1.020  0.00  0.00     0.148 C 
HETATM   11  O   UNK N   1      21.067  20.589  -0.094  0.00  0.00    -0.649 OA
BRANCH  10  12
HETATM   12  O   UNK N   1      20.440  22.319   1.138  0.00  0.00    -0.776 OA
HETATM   13  H   UNK N   1      21.076  23.008   1.155  0.00  0.00     0.167 HD
ENDBRANCH  10  12
ENDBRANCH   8  10
ENDBRANCH   2   8
BRANCH   3  14
HETATM   14  C   UNK N   1      26.106  19.069   4.825  0.00  0.00    -0.023 A 
HETATM   15  C   UNK N   1      26.649  19.903   5.816  0.00  0.00     0.012 A 
HETATM   16  C   UNK N   1      27.850  19.563   6.449  0.00  0.00     0.001 A 
HETATM   17  C   UNK N   1      28.519  18.387   6.100  0.00  0.00     0.000 A 
HETATM   18  C   UNK N   1      27.990  17.550   5.117  0.00  0.00     0.001 A 
HETATM   19  C   UNK N   1      26.793  17.889   4.486  0.00  0.00     0.012 A 
ENDBRANCH   3  14
TORSDOF 4
ENDMDL
MODEL 6
REMARK VINA RESULT:      -6.5      3.234      4.946
REMARK  4 active torsions:
REMARK  status: ('A' for Active; 'I' for Inactive)
REMARK    1  A    between atoms: O_2  and  C_13 
REMARK    2  A    between atoms: C_4  and  C_5 
REMARK    3  A    between atoms: C_4  and  C_13 
REMARK    4  A    between atoms: C_6  and  C_12 
ROOT
HETATM    1  F   UNK N   1      34.360  12.631  10.432  0.00  0.00    -0.205 F 
HETATM    2  C   UNK N   1      34.367  16.230   9.738  0.00  0.00    -0.041 A 
HETATM    3  C   UNK N   1      35.577  14.410  11.531  0.00  0.00     0.013 A 
HETATM    4  C   UNK N   1      34.075  14.858   9.659  0.00  0.00     0.051 A 
HETATM    5  C   UNK N   1      35.260  16.673  10.713  0.00  0.00     0.009 A 
HETATM    6  C   UNK N   1      34.671  13.947  10.545  0.00  0.00     0.128 A 
HETATM    7  C   UNK N   1      35.855  15.781  11.593  0.00  0.00     0.016 A 
ENDROOT
BRANCH   2   8
HETATM    8  C   UNK N   1      33.731  17.221   8.789  0.00  0.00     0.112 C 
HETATM    9  C   UNK N   1      32.215  17.280   8.670  0.00  0.00     0.026 C 
BRANCH   8  10
HETATM   10  C   UNK N   1      34.545  18.173   7.939  0.00  0.00     0.148 C 
HETATM   11  O   UNK N   1      34.589  18.047   6.723  0.00  0.00    -0.649 OA
BRANCH  10  12
HETATM   12  O   UNK N   1      35.233  19.172   8.518  0.00  0.00    -0.776 OA
HETATM   13  H   UNK N   1      35.208  20.033   8.149  0.00  0.00     0.167 HD
ENDBRANCH  10  12
ENDBRANCH   8  10
ENDBRANCH   2   8
BRANCH   3  14
HETATM   14  C   UNK N   1      36.255  13.514  12.511  0.00  0.00    -0.023 A 
HETATM   15  C   UNK N   1      36.997  12.394  12.105  0.00  0.00     0.012 A 
HETATM   16  C   UNK N   1      37.620  11.575  13.053  0.00  0.00     0.001 A 
HETATM   17  C   UNK N   1      37.508  11.867  14.416  0.00  0.00     0.000 A 
HETATM   18  C   UNK N   1      36.773  12.977  14.832  0.00  0.00     0.001 A 
HETATM   19  C   UNK N   1      36.152  13.793  13.887  0.00  0.00     0.012 A 
ENDBRANCH   3  14
TORSDOF 4
ENDMDL
MODEL 7
REMARK VINA RESULT:      -6.4      2.358      3.854
REMARK  4 active torsions:
REMARK  status: ('A' for Active; 'I' for Inactive)
REMARK    1  A    between atoms: O_2  and  C_13 
REMARK    2  A    between atoms: C_4  and  C_5 
REMARK    3  A    between atoms: C_4  and  C_13 
REMARK    4  A    between atoms: C_6  and  C_12 
ROOT
HETATM    1  F   UNK N   1      34.641  13.150  19.568  0.00  0.00    -0.205 F 
HETATM    2  C   UNK N   1      36.049  13.111  16.183  0.00  0.00    -0.041 A 
HETATM    3  C   UNK N   1      35.255  11.269  18.175  0.00  0.00     0.013 A 
HETATM    4  C   UNK N   1      35.532  13.570  17.407  0.00  0.00     0.051 A 
HETATM    5  C   UNK N   1      36.161  11.737  15.972  0.00  0.00     0.009 A 
HETATM    6  C   UNK N   1      35.135  12.662  18.402  0.00  0.00     0.128 A 
HETATM    7  C   UNK N   1      35.772  10.832  16.949  0.00  0.00     0.016 A 
ENDROOT
BRANCH   2   8
HETATM    8  C   UNK N   1      36.479  14.079  15.104  0.00  0.00     0.112 C 
HETATM    9  C   UNK N   1      37.259  15.330  15.485  0.00  0.00     0.026 C 
BRANCH   8  10
HETATM   10  C   UNK N   1      36.167  13.858  13.640  0.00  0.00     0.148 C 
HETATM   11  O   UNK N   1      35.010  13.838  13.241  0.00  0.00    -0.649 OA
BRANCH  10  12
HETATM   12  O   UNK N   1      37.166  13.681  12.757  0.00  0.00    -0.776 OA
HETATM   13  H   UNK N   1      37.964  14.162  12.850  0.00  0.00     0.167 HD
ENDBRANCH  10  12
ENDBRANCH   8  10
ENDBRANCH   2   8
BRANCH   3  14
HETATM   14  C   UNK N   1      34.858  10.236  19.174  0.00  0.00    -0.023 A 
HETATM   15  C   UNK N   1      35.307  10.275  20.503  0.00  0.00     0.012 A 
HETATM   16  C   UNK N   1      34.915   9.289  21.415  0.00  0.00     0.001 A 
HETATM   17  C   UNK N   1      34.070   8.253  21.007  0.00  0.00     0.000 A 
HETATM   18  C   UNK N   1      33.616   8.202  19.688  0.00  0.00     0.001 A 
HETATM   19  C   UNK N   1      34.007   9.186  18.781  0.00  0.00     0.012 A 
ENDBRANCH   3  14
TORSDOF 4
ENDMDL
MODEL 8
REMARK VINA RESULT:      -6.2      8.779     12.801
REMARK  4 active torsions:
REMARK  status: ('A' for Active; 'I' for Inactive)
REMARK    1  A    between atoms: O_2  and  C_13 
REMARK    2  A    between atoms: C_4  and  C_5 
REMARK    3  A    between atoms: C_4  and  C_13 
REMARK    4  A    between atoms: C_6  and  C_12 
ROOT
HETATM    1  F   UNK N   1      28.141  18.224   7.598  0.00  0.00    -0.205 F 
HETATM    2  C   UNK N   1      31.472  17.055   6.610  0.00  0.00    -0.041 A 
HETATM    3  C   UNK N   1      29.088  17.957   5.388  0.00  0.00     0.013 A 
HETATM    4  C   UNK N   1      30.369  17.427   7.397  0.00  0.00     0.051 A 
HETATM    5  C   UNK N   1      31.367  17.140   5.221  0.00  0.00     0.009 A 
HETATM    6  C   UNK N   1      29.181  17.876   6.799  0.00  0.00     0.128 A 
HETATM    7  C   UNK N   1      30.198  17.583   4.621  0.00  0.00     0.016 A 
ENDROOT
BRANCH   2   8
HETATM    8  C   UNK N   1      32.757  16.570   7.242  0.00  0.00     0.112 C 
HETATM    9  C   UNK N   1      32.698  15.574   8.391  0.00  0.00     0.026 C 
BRANCH   8  10
HETATM   10  C   UNK N   1      34.120  17.035   6.778  0.00  0.00     0.148 C 
HETATM   11  O   UNK N   1      34.550  18.135   7.097  0.00  0.00    -0.649 OA
BRANCH  10  12
HETATM   12  O   UNK N   1      34.877  16.237   6.004  0.00  0.00    -0.776 OA
HETATM   13  H   UNK N   1      35.732  15.983   6.288  0.00  0.00     0.167 HD
ENDBRANCH  10  12
ENDBRANCH   8  10
ENDBRANCH   2   8
BRANCH   3  14
HETATM   14  C   UNK N   1      27.867  18.423   4.670  0.00  0.00    -0.023 A 
HETATM   15  C   UNK N   1      26.878  17.530   4.228  0.00  0.00     0.012 A 
HETATM   16  C   UNK N   1      25.744  18.002   3.557  0.00  0.00     0.001 A 
HETATM   17  C   UNK N   1      25.587  19.371   3.321  0.00  0.00     0.000 A 
HETATM   18  C   UNK N   1      26.563  20.269   3.755  0.00  0.00     0.001 A 
HETATM   19  C   UNK N   1      27.693  19.798   4.424  0.00  0.00     0.012 A 
ENDBRANCH   3  14
TORSDOF 4
ENDMDL
MODEL 9
REMARK VINA RESULT:      -6.2     25.061     26.404
REMARK  4 active torsions:
REMARK  status: ('A' for Active; 'I' for Inactive)
REMARK    1  A    between atoms: O_2  and  C_13 
REMARK    2  A    between atoms: C_4  and  C_5 
REMARK    3  A    between atoms: C_4  and  C_13 
REMARK    4  A    between atoms: C_6  and  C_12 
ROOT
HETATM    1  F   UNK N   1      26.859  25.033  -3.942  0.00  0.00    -0.205 F 
HETATM    2  C   UNK N   1      25.724  23.532  -7.088  0.00  0.00    -0.041 A 
HETATM    3  C   UNK N   1      26.305  26.094  -6.045  0.00  0.00     0.013 A 
HETATM    4  C   UNK N   1      26.155  23.674  -5.758  0.00  0.00     0.051 A 
HETATM    5  C   UNK N   1      25.589  24.674  -7.878  0.00  0.00     0.009 A 
HETATM    6  C   UNK N   1      26.446  24.943  -5.231  0.00  0.00     0.128 A 
HETATM    7  C   UNK N   1      25.874  25.931  -7.367  0.00  0.00     0.016 A 
ENDROOT
BRANCH   2   8
HETATM    8  C   UNK N   1      25.408  22.171  -7.667  0.00  0.00     0.112 C 
HETATM    9  C   UNK N   1      24.472  21.235  -6.916  0.00  0.00     0.026 C 
BRANCH   8  10
HETATM   10  C   UNK N   1      25.988  21.689  -8.979  0.00  0.00     0.148 C 
HETATM   11  O   UNK N   1      27.183  21.796  -9.214  0.00  0.00    -0.649 OA
BRANCH  10  12
HETATM   12  O   UNK N   1      25.187  21.135  -9.906  0.00  0.00    -0.776 OA
HETATM   13  H   UNK N   1      24.585  21.669 -10.386  0.00  0.00     0.167 HD
ENDBRANCH  10  12
ENDBRANCH   8  10
ENDBRANCH   2   8
BRANCH   3  14
HETATM   14  C   UNK N   1      26.591  27.478  -5.568  0.00  0.00    -0.023 A 
HETATM   15  C   UNK N   1      25.925  28.037  -4.466  0.00  0.00     0.012 A 
HETATM   16  C   UNK N   1      26.220  29.340  -4.046  0.00  0.00     0.001 A 
HETATM   17  C   UNK N   1      27.182  30.095  -4.723  0.00  0.00     0.000 A 
HETATM   18  C   UNK N   1      27.850  29.550  -5.819  0.00  0.00     0.001 A 
HETATM   19  C   UNK N   1      27.557  28.252  -6.237  0.00  0.00     0.012 A 
ENDBRANCH   3  14
TORSDOF 4
ENDMDL
