MODEL 1
REMARK VINA RESULT:      -7.3      0.000      0.000
REMARK  25 active torsions:
REMARK  status: ('A' for Active; 'I' for Inactive)
REMARK    1  A    between atoms: C_1  and  O_7 
REMARK    2  A    between atoms: C_60  and  C_2 
REMARK    3  A    between atoms: C_4  and  C_12 
REMARK    4  A    between atoms: C_6  and  C_20 
REMARK    5  A    between atoms: O_7  and  C_8 
REMARK    6  A    between atoms: C_8  and  C_9 
REMARK    7  A    between atoms: C_9  and  O_10 
REMARK    8  A    between atoms: C_12  and  C_15 
REMARK    9  A    between atoms: C_15  and  C_16 
REMARK   10  A    between atoms: C_22  and  C_20 
REMARK   11  A    between atoms: C_21  and  O_27 
REMARK   12  A    between atoms: C_24  and  C_32 
REMARK   13  A    between atoms: O_27  and  C_28 
REMARK   14  A    between atoms: C_28  and  C_29 
REMARK   15  A    between atoms: C_29  and  O_30 
REMARK   16  A    between atoms: C_32  and  C_35 
REMARK   17  A    between atoms: C_35  and  C_36 
REMARK   18  A    between atoms: C_41  and  O_47 
REMARK   19  A    between atoms: C_44  and  C_52 
REMARK   20  A    between atoms: C_46  and  C_60 
REMARK   21  A    between atoms: O_47  and  C_48 
REMARK   22  A    between atoms: C_48  and  C_49 
REMARK   23  A    between atoms: C_49  and  O_50 
REMARK   24  A    between atoms: C_52  and  C_55 
REMARK   25  A    between atoms: C_55  and  C_56 
ROOT
HETATM    1  C   UNK N   1      22.782  16.005   5.721  0.00  0.00     0.082 A 
HETATM    2  C   UNK N   1      22.424  17.041   4.809  0.00  0.00    -0.019 A 
HETATM    3  C   UNK N   1      23.409  17.888   4.333  0.00  0.00     0.018 A 
HETATM    4  C   UNK N   1      24.743  17.718   4.643  0.00  0.00    -0.049 A 
HETATM    5  C   UNK N   1      25.119  16.647   5.432  0.00  0.00     0.018 A 
HETATM    6  C   UNK N   1      24.183  15.802   6.007  0.00  0.00    -0.019 A 
ENDROOT
BRANCH   6   7
HETATM    7  C   UNK N   1      24.728  14.716   6.911  0.00  0.00     0.083 C 
BRANCH   7   8
HETATM    8  C   UNK N   1      24.858  13.298   6.329  0.00  0.00    -0.019 A 
HETATM    9  C   UNK N   1      24.297  12.231   7.057  0.00  0.00     0.081 A 
HETATM   10  C   UNK N   1      24.381  10.913   6.533  0.00  0.00    -0.028 A 
HETATM   11  C   UNK N   1      25.065  10.667   5.349  0.00  0.00     0.017 A 
HETATM   12  C   UNK N   1      23.756   9.754   7.230  0.00  0.00     0.051 C 
HETATM   13  C   UNK N   1      25.656  11.702   4.623  0.00  0.00    -0.049 A 
HETATM   14  C   UNK N   1      25.534  13.022   5.117  0.00  0.00     0.018 A 
BRANCH   9  15
HETATM   15  O   UNK N   1      23.721  12.490   8.250  0.00  0.00    -0.348 OA
BRANCH  15  16
HETATM   16  C   UNK N   1      24.410  12.324   9.433  0.00  0.00     0.201 C 
BRANCH  16  17
HETATM   17  C   UNK N   1      23.464  12.313  10.614  0.00  0.00     0.190 C 
BRANCH  17  18
HETATM   18  O   UNK N   1      22.721  11.136  10.608  0.00  0.00    -0.399 OA
HETATM   19  H   UNK N   1      22.528  10.957  11.562  0.00  0.00     0.209 HD
ENDBRANCH  17  18
ENDBRANCH  16  17
ENDBRANCH  15  16
ENDBRANCH   9  15
BRANCH  13  20
HETATM   20  C   UNK N   1      26.588  11.347   3.464  0.00  0.00    -0.020 C 
HETATM   21  C   UNK N   1      25.951  10.167   2.754  0.00  0.00     0.020 C 
HETATM   22  C   UNK N   1      27.939  10.869   3.915  0.00  0.00     0.020 C 
BRANCH  20  23
HETATM   23  C   UNK N   1      26.749  12.439   2.381  0.00  0.00     0.022 C 
BRANCH  23  24
HETATM   24  C   UNK N   1      27.885  13.473   2.449  0.00  0.00    -0.050 C 
HETATM   25  C   UNK N   1      27.294  14.816   2.079  0.00  0.00     0.014 C 
HETATM   26  C   UNK N   1      28.989  13.191   1.444  0.00  0.00     0.014 C 
HETATM   27  C   UNK N   1      28.468  13.562   3.844  0.00  0.00     0.014 C 
ENDBRANCH  23  24
ENDBRANCH  20  23
ENDBRANCH  13  20
ENDBRANCH   7   8
ENDBRANCH   6   7
BRANCH   1  28
HETATM   28  O   UNK N   1      21.790  15.281   6.299  0.00  0.00    -0.348 OA
BRANCH  28  29
HETATM   29  C   UNK N   1      21.394  14.037   5.857  0.00  0.00     0.201 C 
BRANCH  29  30
HETATM   30  C   UNK N   1      20.439  13.395   6.840  0.00  0.00     0.190 C 
BRANCH  30  31
HETATM   31  O   UNK N   1      20.956  12.166   7.248  0.00  0.00    -0.399 OA
HETATM   32  H   UNK N   1      21.869  12.141   6.867  0.00  0.00     0.209 HD
ENDBRANCH  30  31
ENDBRANCH  29  30
ENDBRANCH  28  29
ENDBRANCH   1  28
BRANCH   4  33
HETATM   33  C   UNK N   1      25.749  18.776   4.313  0.00  0.00    -0.020 C 
HETATM   34  C   UNK N   1      25.273  19.418   3.035  0.00  0.00     0.020 C 
HETATM   35  C   UNK N   1      27.084  18.189   3.964  0.00  0.00     0.020 C 
BRANCH  33  36
HETATM   36  C   UNK N   1      25.930  19.750   5.492  0.00  0.00     0.022 C 
BRANCH  36  37
HETATM   37  C   UNK N   1      27.347  20.240   5.845  0.00  0.00    -0.050 C 
HETATM   38  C   UNK N   1      27.888  19.374   6.959  0.00  0.00     0.014 C 
HETATM   39  C   UNK N   1      28.345  20.188   4.697  0.00  0.00     0.014 C 
HETATM   40  C   UNK N   1      27.247  21.657   6.363  0.00  0.00     0.014 C 
ENDBRANCH  36  37
ENDBRANCH  33  36
ENDBRANCH   4  33
BRANCH   2  41
HETATM   41  C   UNK N   1      20.994  17.361   4.417  0.00  0.00     0.083 C 
BRANCH  41  42
HETATM   42  C   UNK N   1      20.620  16.879   3.012  0.00  0.00    -0.020 A 
HETATM   43  C   UNK N   1      20.711  15.498   2.717  0.00  0.00     0.018 A 
HETATM   44  C   UNK N   1      20.351  14.979   1.463  0.00  0.00    -0.050 A 
HETATM   45  C   UNK N   1      19.954  15.877   0.464  0.00  0.00     0.011 A 
HETATM   46  C   UNK N   1      19.892  17.245   0.718  0.00  0.00     0.038 A 
HETATM   47  C   UNK N   1      20.189  17.767   1.982  0.00  0.00     0.075 A 
BRANCH  44  48
HETATM   48  C   UNK N   1      20.290  13.476   1.185  0.00  0.00    -0.020 C 
HETATM   49  C   UNK N   1      20.209  12.773   2.536  0.00  0.00     0.020 C 
HETATM   50  C   UNK N   1      19.030  13.163   0.396  0.00  0.00     0.020 C 
BRANCH  48  51
HETATM   51  C   UNK N   1      21.504  12.955   0.375  0.00  0.00     0.022 C 
BRANCH  51  52
HETATM   52  C   UNK N   1      22.917  12.955   1.023  0.00  0.00    -0.050 C 
HETATM   53  C   UNK N   1      23.777  11.928   0.311  0.00  0.00     0.014 C 
HETATM   54  C   UNK N   1      22.893  12.582   2.490  0.00  0.00     0.014 C 
HETATM   55  C   UNK N   1      23.588  14.311   0.870  0.00  0.00     0.014 C 
ENDBRANCH  51  52
ENDBRANCH  48  51
ENDBRANCH  44  48
BRANCH  47  56
HETATM   56  O   UNK N   1      20.035  19.106   2.147  0.00  0.00    -0.348 OA
BRANCH  56  57
HETATM   57  C   UNK N   1      21.048  20.030   2.080  0.00  0.00     0.201 C 
BRANCH  57  58
HETATM   58  C   UNK N   1      20.688  21.135   1.112  0.00  0.00     0.190 C 
BRANCH  58  59
HETATM   59  O   UNK N   1      20.575  20.600  -0.170  0.00  0.00    -0.399 OA
HETATM   60  H   UNK N   1      19.843  21.114  -0.596  0.00  0.00     0.209 HD
ENDBRANCH  58  59
ENDBRANCH  57  58
ENDBRANCH  56  57
ENDBRANCH  47  56
ENDBRANCH  41  42
ENDBRANCH   2  41
TORSDOF 25
ENDMDL
MODEL 2
REMARK VINA RESULT:      -7.1      1.961      5.786
REMARK  25 active torsions:
REMARK  status: ('A' for Active; 'I' for Inactive)
REMARK    1  A    between atoms: C_1  and  O_7 
REMARK    2  A    between atoms: C_60  and  C_2 
REMARK    3  A    between atoms: C_4  and  C_12 
REMARK    4  A    between atoms: C_6  and  C_20 
REMARK    5  A    between atoms: O_7  and  C_8 
REMARK    6  A    between atoms: C_8  and  C_9 
REMARK    7  A    between atoms: C_9  and  O_10 
REMARK    8  A    between atoms: C_12  and  C_15 
REMARK    9  A    between atoms: C_15  and  C_16 
REMARK   10  A    between atoms: C_22  and  C_20 
REMARK   11  A    between atoms: C_21  and  O_27 
REMARK   12  A    between atoms: C_24  and  C_32 
REMARK   13  A    between atoms: O_27  and  C_28 
REMARK   14  A    between atoms: C_28  and  C_29 
REMARK   15  A    between atoms: C_29  and  O_30 
REMARK   16  A    between atoms: C_32  and  C_35 
REMARK   17  A    between atoms: C_35  and  C_36 
REMARK   18  A    between atoms: C_41  and  O_47 
REMARK   19  A    between atoms: C_44  and  C_52 
REMARK   20  A    between atoms: C_46  and  C_60 
REMARK   21  A    between atoms: O_47  and  C_48 
REMARK   22  A    between atoms: C_48  and  C_49 
REMARK   23  A    between atoms: C_49  and  O_50 
REMARK   24  A    between atoms: C_52  and  C_55 
REMARK   25  A    between atoms: C_55  and  C_56 
ROOT
HETATM    1  C   UNK N   1      20.707  15.211   5.482  0.00  0.00     0.082 A 
HETATM    2  C   UNK N   1      20.809  15.964   4.276  0.00  0.00    -0.019 A 
HETATM    3  C   UNK N   1      20.953  15.293   3.074  0.00  0.00     0.018 A 
HETATM    4  C   UNK N   1      20.918  13.916   2.988  0.00  0.00    -0.049 A 
HETATM    5  C   UNK N   1      20.701  13.176   4.136  0.00  0.00     0.018 A 
HETATM    6  C   UNK N   1      20.624  13.773   5.384  0.00  0.00    -0.019 A 
ENDROOT
BRANCH   6   7
HETATM    7  C   UNK N   1      20.462  12.837   6.564  0.00  0.00     0.083 C 
BRANCH   7   8
HETATM    8  C   UNK N   1      21.655  11.940   6.934  0.00  0.00    -0.019 A 
HETATM    9  C   UNK N   1      22.482  12.345   8.000  0.00  0.00     0.081 A 
HETATM   10  C   UNK N   1      23.577  11.525   8.380  0.00  0.00    -0.028 A 
HETATM   11  C   UNK N   1      23.874  10.369   7.667  0.00  0.00     0.017 A 
HETATM   12  C   UNK N   1      24.450  11.873   9.536  0.00  0.00     0.051 C 
HETATM   13  C   UNK N   1      23.090   9.960   6.588  0.00  0.00    -0.049 A 
HETATM   14  C   UNK N   1      21.969  10.749   6.237  0.00  0.00     0.018 A 
BRANCH   9  15
HETATM   15  O   UNK N   1      22.224  13.520   8.612  0.00  0.00    -0.348 OA
BRANCH  15  16
HETATM   16  C   UNK N   1      22.054  13.599   9.978  0.00  0.00     0.201 C 
BRANCH  16  17
HETATM   17  C   UNK N   1      20.786  12.897  10.409  0.00  0.00     0.190 C 
BRANCH  17  18
HETATM   18  O   UNK N   1      21.084  11.939  11.373  0.00  0.00    -0.399 OA
HETATM   19  H   UNK N   1      21.821  11.409  10.979  0.00  0.00     0.209 HD
ENDBRANCH  17  18
ENDBRANCH  16  17
ENDBRANCH  15  16
ENDBRANCH   9  15
BRANCH  13  20
HETATM   20  C   UNK N   1      23.596   8.820   5.703  0.00  0.00    -0.020 C 
HETATM   21  C   UNK N   1      24.020   9.457   4.394  0.00  0.00     0.020 C 
HETATM   22  C   UNK N   1      22.525   7.828   5.345  0.00  0.00     0.020 C 
BRANCH  20  23
HETATM   23  C   UNK N   1      24.848   8.079   6.224  0.00  0.00     0.022 C 
BRANCH  23  24
HETATM   24  C   UNK N   1      24.754   6.660   6.809  0.00  0.00    -0.050 C 
HETATM   25  C   UNK N   1      26.102   6.331   7.413  0.00  0.00     0.014 C 
HETATM   26  C   UNK N   1      24.486   5.608   5.745  0.00  0.00     0.014 C 
HETATM   27  C   UNK N   1      23.699   6.578   7.891  0.00  0.00     0.014 C 
ENDBRANCH  23  24
ENDBRANCH  20  23
ENDBRANCH  13  20
ENDBRANCH   7   8
ENDBRANCH   6   7
BRANCH   1  28
HETATM   28  O   UNK N   1      20.722  15.878   6.664  0.00  0.00    -0.348 OA
BRANCH  28  29
HETATM   29  C   UNK N   1      19.586  16.310   7.313  0.00  0.00     0.201 C 
BRANCH  29  30
HETATM   30  C   UNK N   1      19.858  16.534   8.785  0.00  0.00     0.190 C 
BRANCH  30  31
HETATM   31  O   UNK N   1      20.038  17.897   9.017  0.00  0.00    -0.399 OA
HETATM   32  H   UNK N   1      19.772  18.026   9.962  0.00  0.00     0.209 HD
ENDBRANCH  30  31
ENDBRANCH  29  30
ENDBRANCH  28  29
ENDBRANCH   1  28
BRANCH   4  33
HETATM   33  C   UNK N   1      21.310  13.215   1.724  0.00  0.00    -0.020 C 
HETATM   34  C   UNK N   1      21.273  14.262   0.640  0.00  0.00     0.020 C 
HETATM   35  C   UNK N   1      20.284  12.204   1.305  0.00  0.00     0.020 C 
BRANCH  33  36
HETATM   36  C   UNK N   1      22.666  12.506   1.887  0.00  0.00     0.022 C 
BRANCH  36  37
HETATM   37  C   UNK N   1      23.791  12.805   0.878  0.00  0.00    -0.050 C 
HETATM   38  C   UNK N   1      25.053  12.126   1.355  0.00  0.00     0.014 C 
HETATM   39  C   UNK N   1      23.520  12.325  -0.541  0.00  0.00     0.014 C 
HETATM   40  C   UNK N   1      24.039  14.296   0.867  0.00  0.00     0.014 C 
ENDBRANCH  36  37
ENDBRANCH  33  36
ENDBRANCH   4  33
BRANCH   2  41
HETATM   41  C   UNK N   1      20.899  17.477   4.232  0.00  0.00     0.083 C 
BRANCH  41  42
HETATM   42  C   UNK N   1      22.327  18.004   4.061  0.00  0.00    -0.020 A 
HETATM   43  C   UNK N   1      23.411  17.129   4.309  0.00  0.00     0.018 A 
HETATM   44  C   UNK N   1      24.746  17.531   4.138  0.00  0.00    -0.050 A 
HETATM   45  C   UNK N   1      24.996  18.859   3.775  0.00  0.00     0.011 A 
HETATM   46  C   UNK N   1      23.947  19.751   3.562  0.00  0.00     0.038 A 
HETATM   47  C   UNK N   1      22.612  19.345   3.668  0.00  0.00     0.075 A 
BRANCH  44  48
HETATM   48  C   UNK N   1      25.916  16.551   4.245  0.00  0.00    -0.020 C 
HETATM   49  C   UNK N   1      26.941  16.958   3.192  0.00  0.00     0.020 C 
HETATM   50  C   UNK N   1      26.551  16.676   5.620  0.00  0.00     0.020 C 
BRANCH  48  51
HETATM   51  C   UNK N   1      25.493  15.072   4.046  0.00  0.00     0.022 C 
BRANCH  51  52
HETATM   52  C   UNK N   1      25.292  14.157   5.286  0.00  0.00    -0.050 C 
HETATM   53  C   UNK N   1      24.377  13.010   4.901  0.00  0.00     0.014 C 
HETATM   54  C   UNK N   1      24.646  14.876   6.452  0.00  0.00     0.014 C 
HETATM   55  C   UNK N   1      26.615  13.563   5.746  0.00  0.00     0.014 C 
ENDBRANCH  51  52
ENDBRANCH  48  51
ENDBRANCH  44  48
BRANCH  47  56
HETATM   56  O   UNK N   1      21.662  20.271   3.377  0.00  0.00    -0.348 OA
BRANCH  56  57
HETATM   57  C   UNK N   1      21.485  20.859   2.150  0.00  0.00     0.201 C 
BRANCH  57  58
HETATM   58  C   UNK N   1      20.733  19.929   1.224  0.00  0.00     0.190 C 
BRANCH  58  59
HETATM   59  O   UNK N   1      20.658  20.506  -0.042  0.00  0.00    -0.399 OA
HETATM   60  H   UNK N   1      20.164  19.847  -0.592  0.00  0.00     0.209 HD
ENDBRANCH  58  59
ENDBRANCH  57  58
ENDBRANCH  56  57
ENDBRANCH  47  56
ENDBRANCH  41  42
ENDBRANCH   2  41
TORSDOF 25
ENDMDL
MODEL 3
REMARK VINA RESULT:      -7.1      2.979      6.248
REMARK  25 active torsions:
REMARK  status: ('A' for Active; 'I' for Inactive)
REMARK    1  A    between atoms: C_1  and  O_7 
REMARK    2  A    between atoms: C_60  and  C_2 
REMARK    3  A    between atoms: C_4  and  C_12 
REMARK    4  A    between atoms: C_6  and  C_20 
REMARK    5  A    between atoms: O_7  and  C_8 
REMARK    6  A    between atoms: C_8  and  C_9 
REMARK    7  A    between atoms: C_9  and  O_10 
REMARK    8  A    between atoms: C_12  and  C_15 
REMARK    9  A    between atoms: C_15  and  C_16 
REMARK   10  A    between atoms: C_22  and  C_20 
REMARK   11  A    between atoms: C_21  and  O_27 
REMARK   12  A    between atoms: C_24  and  C_32 
REMARK   13  A    between atoms: O_27  and  C_28 
REMARK   14  A    between atoms: C_28  and  C_29 
REMARK   15  A    between atoms: C_29  and  O_30 
REMARK   16  A    between atoms: C_32  and  C_35 
REMARK   17  A    between atoms: C_35  and  C_36 
REMARK   18  A    between atoms: C_41  and  O_47 
REMARK   19  A    between atoms: C_44  and  C_52 
REMARK   20  A    between atoms: C_46  and  C_60 
REMARK   21  A    between atoms: O_47  and  C_48 
REMARK   22  A    between atoms: C_48  and  C_49 
REMARK   23  A    between atoms: C_49  and  O_50 
REMARK   24  A    between atoms: C_52  and  C_55 
REMARK   25  A    between atoms: C_55  and  C_56 
ROOT
HETATM    1  C   UNK N   1      24.429  17.794   4.496  0.00  0.00     0.082 A 
HETATM    2  C   UNK N   1      23.194  17.307   5.011  0.00  0.00    -0.019 A 
HETATM    3  C   UNK N   1      23.189  16.143   5.761  0.00  0.00     0.018 A 
HETATM    4  C   UNK N   1      24.349  15.479   6.101  0.00  0.00    -0.049 A 
HETATM    5  C   UNK N   1      25.566  16.006   5.707  0.00  0.00     0.018 A 
HETATM    6  C   UNK N   1      25.646  17.123   4.891  0.00  0.00    -0.019 A 
ENDROOT
BRANCH   6   7
HETATM    7  C   UNK N   1      27.038  17.547   4.472  0.00  0.00     0.083 C 
BRANCH   7   8
HETATM    8  C   UNK N   1      28.189  17.303   5.463  0.00  0.00    -0.019 A 
HETATM    9  C   UNK N   1      28.251  18.109   6.616  0.00  0.00     0.081 A 
HETATM   10  C   UNK N   1      29.289  17.892   7.561  0.00  0.00    -0.028 A 
HETATM   11  C   UNK N   1      30.272  16.940   7.322  0.00  0.00     0.017 A 
HETATM   12  C   UNK N   1      29.371  18.675   8.825  0.00  0.00     0.051 C 
HETATM   13  C   UNK N   1      30.252  16.147   6.174  0.00  0.00    -0.049 A 
HETATM   14  C   UNK N   1      29.193  16.328   5.253  0.00  0.00     0.018 A 
BRANCH   9  15
HETATM   15  O   UNK N   1      27.336  19.089   6.774  0.00  0.00    -0.348 OA
BRANCH  15  16
HETATM   16  C   UNK N   1      27.625  20.402   6.466  0.00  0.00     0.201 C 
BRANCH  16  17
HETATM   17  C   UNK N   1      26.511  21.322   6.913  0.00  0.00     0.190 C 
BRANCH  17  18
HETATM   18  O   UNK N   1      25.954  20.844   8.097  0.00  0.00    -0.399 OA
HETATM   19  H   UNK N   1      25.960  21.622   8.708  0.00  0.00     0.209 HD
ENDBRANCH  17  18
ENDBRANCH  16  17
ENDBRANCH  15  16
ENDBRANCH   9  15
BRANCH  13  20
HETATM   20  C   UNK N   1      31.476  15.289   5.851  0.00  0.00    -0.020 C 
HETATM   21  C   UNK N   1      32.113  15.906   4.621  0.00  0.00     0.020 C 
HETATM   22  C   UNK N   1      31.127  13.880   5.466  0.00  0.00     0.020 C 
BRANCH  20  23
HETATM   23  C   UNK N   1      32.586  15.283   6.928  0.00  0.00     0.022 C 
BRANCH  23  24
HETATM   24  C   UNK N   1      33.909  16.039   6.719  0.00  0.00    -0.050 C 
HETATM   25  C   UNK N   1      34.659  16.005   8.033  0.00  0.00     0.014 C 
HETATM   26  C   UNK N   1      33.694  17.504   6.378  0.00  0.00     0.014 C 
HETATM   27  C   UNK N   1      34.758  15.380   5.653  0.00  0.00     0.014 C 
ENDBRANCH  23  24
ENDBRANCH  20  23
ENDBRANCH  13  20
ENDBRANCH   7   8
ENDBRANCH   6   7
BRANCH   1  28
HETATM   28  O   UNK N   1      24.403  18.845   3.637  0.00  0.00    -0.348 OA
BRANCH  28  29
HETATM   29  C   UNK N   1      24.826  20.114   3.968  0.00  0.00     0.201 C 
BRANCH  29  30
HETATM   30  C   UNK N   1      25.658  20.713   2.855  0.00  0.00     0.190 C 
BRANCH  30  31
HETATM   31  O   UNK N   1      24.944  20.642   1.658  0.00  0.00    -0.399 OA
HETATM   32  H   UNK N   1      25.171  19.753   1.285  0.00  0.00     0.209 HD
ENDBRANCH  30  31
ENDBRANCH  29  30
ENDBRANCH  28  29
ENDBRANCH   1  28
BRANCH   4  33
HETATM   33  C   UNK N   1      24.303  14.109   6.703  0.00  0.00    -0.020 C 
HETATM   34  C   UNK N   1      25.676  13.860   7.272  0.00  0.00     0.020 C 
HETATM   35  C   UNK N   1      24.130  13.045   5.660  0.00  0.00     0.020 C 
BRANCH  33  36
HETATM   36  C   UNK N   1      23.154  13.995   7.722  0.00  0.00     0.022 C 
BRANCH  36  37
HETATM   37  C   UNK N   1      23.325  13.067   8.939  0.00  0.00    -0.050 C 
HETATM   38  C   UNK N   1      23.145  11.638   8.479  0.00  0.00     0.014 C 
HETATM   39  C   UNK N   1      24.680  13.159   9.627  0.00  0.00     0.014 C 
HETATM   40  C   UNK N   1      22.231  13.378   9.934  0.00  0.00     0.014 C 
ENDBRANCH  36  37
ENDBRANCH  33  36
ENDBRANCH   4  33
BRANCH   2  41
HETATM   41  C   UNK N   1      21.844  17.917   4.683  0.00  0.00     0.083 C 
BRANCH  41  42
HETATM   42  C   UNK N   1      21.187  17.323   3.434  0.00  0.00    -0.020 A 
HETATM   43  C   UNK N   1      21.264  15.925   3.223  0.00  0.00     0.018 A 
HETATM   44  C   UNK N   1      20.655  15.304   2.120  0.00  0.00    -0.050 A 
HETATM   45  C   UNK N   1      20.014  16.115   1.175  0.00  0.00     0.011 A 
HETATM   46  C   UNK N   1      19.958  17.497   1.340  0.00  0.00     0.038 A 
HETATM   47  C   UNK N   1      20.507  18.120   2.467  0.00  0.00     0.075 A 
BRANCH  44  48
HETATM   48  C   UNK N   1      20.591  13.784   1.968  0.00  0.00    -0.020 C 
HETATM   49  C   UNK N   1      19.182  13.437   1.502  0.00  0.00     0.020 C 
HETATM   50  C   UNK N   1      21.580  13.345   0.901  0.00  0.00     0.020 C 
BRANCH  48  51
HETATM   51  C   UNK N   1      20.932  13.026   3.277  0.00  0.00     0.022 C 
BRANCH  51  52
HETATM   52  C   UNK N   1      19.788  12.609   4.243  0.00  0.00    -0.050 C 
HETATM   53  C   UNK N   1      20.403  12.109   5.537  0.00  0.00     0.014 C 
HETATM   54  C   UNK N   1      18.928  11.490   3.693  0.00  0.00     0.014 C 
HETATM   55  C   UNK N   1      18.897  13.795   4.579  0.00  0.00     0.014 C 
ENDBRANCH  51  52
ENDBRANCH  48  51
ENDBRANCH  44  48
BRANCH  47  56
HETATM   56  O   UNK N   1      20.343  19.464   2.569  0.00  0.00    -0.348 OA
BRANCH  56  57
HETATM   57  C   UNK N   1      21.249  20.403   2.143  0.00  0.00     0.201 C 
BRANCH  57  58
HETATM   58  C   UNK N   1      20.632  21.283   1.078  0.00  0.00     0.190 C 
BRANCH  58  59
HETATM   59  O   UNK N   1      20.630  20.597  -0.136  0.00  0.00    -0.399 OA
HETATM   60  H   UNK N   1      19.717  20.726  -0.498  0.00  0.00     0.209 HD
ENDBRANCH  58  59
ENDBRANCH  57  58
ENDBRANCH  56  57
ENDBRANCH  47  56
ENDBRANCH  41  42
ENDBRANCH   2  41
TORSDOF 25
ENDMDL
MODEL 4
REMARK VINA RESULT:      -7.1      1.736      5.248
REMARK  25 active torsions:
REMARK  status: ('A' for Active; 'I' for Inactive)
REMARK    1  A    between atoms: C_1  and  O_7 
REMARK    2  A    between atoms: C_60  and  C_2 
REMARK    3  A    between atoms: C_4  and  C_12 
REMARK    4  A    between atoms: C_6  and  C_20 
REMARK    5  A    between atoms: O_7  and  C_8 
REMARK    6  A    between atoms: C_8  and  C_9 
REMARK    7  A    between atoms: C_9  and  O_10 
REMARK    8  A    between atoms: C_12  and  C_15 
REMARK    9  A    between atoms: C_15  and  C_16 
REMARK   10  A    between atoms: C_22  and  C_20 
REMARK   11  A    between atoms: C_21  and  O_27 
REMARK   12  A    between atoms: C_24  and  C_32 
REMARK   13  A    between atoms: O_27  and  C_28 
REMARK   14  A    between atoms: C_28  and  C_29 
REMARK   15  A    between atoms: C_29  and  O_30 
REMARK   16  A    between atoms: C_32  and  C_35 
REMARK   17  A    between atoms: C_35  and  C_36 
REMARK   18  A    between atoms: C_41  and  O_47 
REMARK   19  A    between atoms: C_44  and  C_52 
REMARK   20  A    between atoms: C_46  and  C_60 
REMARK   21  A    between atoms: O_47  and  C_48 
REMARK   22  A    between atoms: C_48  and  C_49 
REMARK   23  A    between atoms: C_49  and  O_50 
REMARK   24  A    between atoms: C_52  and  C_55 
REMARK   25  A    between atoms: C_55  and  C_56 
ROOT
HETATM    1  C   UNK N   1      21.174  15.985   5.959  0.00  0.00     0.082 A 
HETATM    2  C   UNK N   1      21.274  16.940   4.906  0.00  0.00    -0.019 A 
HETATM    3  C   UNK N   1      21.101  16.522   3.599  0.00  0.00     0.018 A 
HETATM    4  C   UNK N   1      20.751  15.227   3.277  0.00  0.00    -0.049 A 
HETATM    5  C   UNK N   1      20.534  14.317   4.296  0.00  0.00     0.018 A 
HETATM    6  C   UNK N   1      20.762  14.641   5.623  0.00  0.00    -0.019 A 
ENDROOT
BRANCH   6   7
HETATM    7  C   UNK N   1      20.560  13.527   6.629  0.00  0.00     0.083 C 
BRANCH   7   8
HETATM    8  C   UNK N   1      21.727  12.552   6.860  0.00  0.00    -0.019 A 
HETATM    9  C   UNK N   1      22.471  12.681   8.049  0.00  0.00     0.081 A 
HETATM   10  C   UNK N   1      23.540  11.780   8.300  0.00  0.00    -0.028 A 
HETATM   11  C   UNK N   1      23.893  10.823   7.357  0.00  0.00     0.017 A 
HETATM   12  C   UNK N   1      24.324  11.832   9.566  0.00  0.00     0.051 C 
HETATM   13  C   UNK N   1      23.192  10.692   6.158  0.00  0.00    -0.049 A 
HETATM   14  C   UNK N   1      22.097  11.557   5.924  0.00  0.00     0.018 A 
BRANCH   9  15
HETATM   15  O   UNK N   1      22.164  13.680   8.902  0.00  0.00    -0.348 OA
BRANCH  15  16
HETATM   16  C   UNK N   1      21.961  13.444  10.246  0.00  0.00     0.201 C 
BRANCH  16  17
HETATM   17  C   UNK N   1      20.571  12.905  10.498  0.00  0.00     0.190 C 
BRANCH  17  18
HETATM   18  O   UNK N   1      19.629  13.747   9.913  0.00  0.00    -0.399 OA
HETATM   19  H   UNK N   1      19.091  13.154   9.331  0.00  0.00     0.209 HD
ENDBRANCH  17  18
ENDBRANCH  16  17
ENDBRANCH  15  16
ENDBRANCH   9  15
BRANCH  13  20
HETATM   20  C   UNK N   1      23.767   9.789   5.065  0.00  0.00    -0.020 C 
HETATM   21  C   UNK N   1      22.578   9.117   4.404  0.00  0.00     0.020 C 
HETATM   22  C   UNK N   1      24.616   8.674   5.605  0.00  0.00     0.020 C 
BRANCH  20  23
HETATM   23  C   UNK N   1      24.514  10.517   3.925  0.00  0.00     0.022 C 
BRANCH  23  24
HETATM   24  C   UNK N   1      25.987  10.934   4.070  0.00  0.00    -0.050 C 
HETATM   25  C   UNK N   1      26.041  12.044   5.098  0.00  0.00     0.014 C 
HETATM   26  C   UNK N   1      26.560  11.505   2.784  0.00  0.00     0.014 C 
HETATM   27  C   UNK N   1      26.842   9.781   4.549  0.00  0.00     0.014 C 
ENDBRANCH  23  24
ENDBRANCH  20  23
ENDBRANCH  13  20
ENDBRANCH   7   8
ENDBRANCH   6   7
BRANCH   1  28
HETATM   28  O   UNK N   1      21.496  16.373   7.218  0.00  0.00    -0.348 OA
BRANCH  28  29
HETATM   29  C   UNK N   1      20.583  16.475   8.246  0.00  0.00     0.201 C 
BRANCH  29  30
HETATM   30  C   UNK N   1      19.679  17.671   8.046  0.00  0.00     0.190 C 
BRANCH  30  31
HETATM   31  O   UNK N   1      20.410  18.841   8.257  0.00  0.00    -0.399 OA
HETATM   32  H   UNK N   1      20.435  19.283   7.372  0.00  0.00     0.209 HD
ENDBRANCH  30  31
ENDBRANCH  29  30
ENDBRANCH  28  29
ENDBRANCH   1  28
BRANCH   4  33
HETATM   33  C   UNK N   1      20.802  14.746   1.861  0.00  0.00    -0.020 C 
HETATM   34  C   UNK N   1      19.779  15.560   1.109  0.00  0.00     0.020 C 
HETATM   35  C   UNK N   1      20.322  13.330   1.734  0.00  0.00     0.020 C 
BRANCH  33  36
HETATM   36  C   UNK N   1      22.233  14.836   1.300  0.00  0.00     0.022 C 
BRANCH  36  37
HETATM   37  C   UNK N   1      23.327  13.930   1.895  0.00  0.00    -0.050 C 
HETATM   38  C   UNK N   1      24.509  13.928   0.954  0.00  0.00     0.014 C 
HETATM   39  C   UNK N   1      23.832  14.355   3.266  0.00  0.00     0.014 C 
HETATM   40  C   UNK N   1      22.789  12.519   1.970  0.00  0.00     0.014 C 
ENDBRANCH  36  37
ENDBRANCH  33  36
ENDBRANCH   4  33
BRANCH   2  41
HETATM   41  C   UNK N   1      21.690  18.384   5.116  0.00  0.00     0.083 C 
BRANCH  41  42
HETATM   42  C   UNK N   1      22.987  18.762   4.395  0.00  0.00    -0.020 A 
HETATM   43  C   UNK N   1      24.168  18.041   4.693  0.00  0.00     0.018 A 
HETATM   44  C   UNK N   1      25.386  18.307   4.046  0.00  0.00    -0.050 A 
HETATM   45  C   UNK N   1      25.432  19.364   3.130  0.00  0.00     0.011 A 
HETATM   46  C   UNK N   1      24.292  20.115   2.848  0.00  0.00     0.038 A 
HETATM   47  C   UNK N   1      23.058  19.818   3.440  0.00  0.00     0.075 A 
BRANCH  44  48
HETATM   48  C   UNK N   1      26.624  17.429   4.239  0.00  0.00    -0.020 C 
HETATM   49  C   UNK N   1      27.817  18.365   4.400  0.00  0.00     0.020 C 
HETATM   50  C   UNK N   1      26.467  16.615   5.513  0.00  0.00     0.020 C 
BRANCH  48  51
HETATM   51  C   UNK N   1      26.862  16.443   3.067  0.00  0.00     0.022 C 
BRANCH  51  52
HETATM   52  C   UNK N   1      28.154  15.580   3.039  0.00  0.00    -0.050 C 
HETATM   53  C   UNK N   1      28.113  14.682   1.817  0.00  0.00     0.014 C 
HETATM   54  C   UNK N   1      28.291  14.684   4.252  0.00  0.00     0.014 C 
HETATM   55  C   UNK N   1      29.393  16.456   2.932  0.00  0.00     0.014 C 
ENDBRANCH  51  52
ENDBRANCH  48  51
ENDBRANCH  44  48
BRANCH  47  56
HETATM   56  O   UNK N   1      21.994  20.565   3.051  0.00  0.00    -0.348 OA
BRANCH  56  57
HETATM   57  C   UNK N   1      20.992  20.136   2.216  0.00  0.00     0.201 C 
BRANCH  57  58
HETATM   58  C   UNK N   1      20.711  21.175   1.154  0.00  0.00     0.190 C 
BRANCH  58  59
HETATM   59  O   UNK N   1      20.578  20.542  -0.081  0.00  0.00    -0.399 OA
HETATM   60  H   UNK N   1      20.677  21.267  -0.749  0.00  0.00     0.209 HD
ENDBRANCH  58  59
ENDBRANCH  57  58
ENDBRANCH  56  57
ENDBRANCH  47  56
ENDBRANCH  41  42
ENDBRANCH   2  41
TORSDOF 25
ENDMDL
MODEL 5
REMARK VINA RESULT:      -7.0      1.714      5.743
REMARK  25 active torsions:
REMARK  status: ('A' for Active; 'I' for Inactive)
REMARK    1  A    between atoms: C_1  and  O_7 
REMARK    2  A    between atoms: C_60  and  C_2 
REMARK    3  A    between atoms: C_4  and  C_12 
REMARK    4  A    between atoms: C_6  and  C_20 
REMARK    5  A    between atoms: O_7  and  C_8 
REMARK    6  A    between atoms: C_8  and  C_9 
REMARK    7  A    between atoms: C_9  and  O_10 
REMARK    8  A    between atoms: C_12  and  C_15 
REMARK    9  A    between atoms: C_15  and  C_16 
REMARK   10  A    between atoms: C_22  and  C_20 
REMARK   11  A    between atoms: C_21  and  O_27 
REMARK   12  A    between atoms: C_24  and  C_32 
REMARK   13  A    between atoms: O_27  and  C_28 
REMARK   14  A    between atoms: C_28  and  C_29 
REMARK   15  A    between atoms: C_29  and  O_30 
REMARK   16  A    between atoms: C_32  and  C_35 
REMARK   17  A    between atoms: C_35  and  C_36 
REMARK   18  A    between atoms: C_41  and  O_47 
REMARK   19  A    between atoms: C_44  and  C_52 
REMARK   20  A    between atoms: C_46  and  C_60 
REMARK   21  A    between atoms: O_47  and  C_48 
REMARK   22  A    between atoms: C_48  and  C_49 
REMARK   23  A    between atoms: C_49  and  O_50 
REMARK   24  A    between atoms: C_52  and  C_55 
REMARK   25  A    between atoms: C_55  and  C_56 
ROOT
HETATM    1  C   UNK N   1      20.852  16.436   5.379  0.00  0.00     0.082 A 
HETATM    2  C   UNK N   1      20.830  17.382   4.313  0.00  0.00    -0.019 A 
HETATM    3  C   UNK N   1      20.518  16.950   3.036  0.00  0.00     0.018 A 
HETATM    4  C   UNK N   1      20.144  15.650   2.767  0.00  0.00    -0.049 A 
HETATM    5  C   UNK N   1      20.047  14.748   3.811  0.00  0.00     0.018 A 
HETATM    6  C   UNK N   1      20.416  15.087   5.103  0.00  0.00    -0.019 A 
ENDROOT
BRANCH   6   7
HETATM    7  C   UNK N   1      20.334  13.981   6.134  0.00  0.00     0.083 C 
BRANCH   7   8
HETATM    8  C   UNK N   1      21.330  12.816   6.015  0.00  0.00    -0.019 A 
HETATM    9  C   UNK N   1      22.067  12.455   7.159  0.00  0.00     0.081 A 
HETATM   10  C   UNK N   1      22.978  11.368   7.086  0.00  0.00    -0.028 A 
HETATM   11  C   UNK N   1      23.192  10.708   5.882  0.00  0.00     0.017 A 
HETATM   12  C   UNK N   1      23.741  10.906   8.278  0.00  0.00     0.051 C 
HETATM   13  C   UNK N   1      22.497  11.063   4.725  0.00  0.00    -0.049 A 
HETATM   14  C   UNK N   1      21.554  12.115   4.806  0.00  0.00     0.018 A 
BRANCH   9  15
HETATM   15  O   UNK N   1      21.906  13.177   8.289  0.00  0.00    -0.348 OA
BRANCH  15  16
HETATM   16  C   UNK N   1      21.075  12.750   9.304  0.00  0.00     0.201 C 
BRANCH  16  17
HETATM   17  C   UNK N   1      21.819  12.675  10.618  0.00  0.00     0.190 C 
BRANCH  17  18
HETATM   18  O   UNK N   1      23.037  13.342  10.507  0.00  0.00    -0.399 OA
HETATM   19  H   UNK N   1      23.636  12.875  11.141  0.00  0.00     0.209 HD
ENDBRANCH  17  18
ENDBRANCH  16  17
ENDBRANCH  15  16
ENDBRANCH   9  15
BRANCH  13  20
HETATM   20  C   UNK N   1      22.940  10.464   3.389  0.00  0.00    -0.020 C 
HETATM   21  C   UNK N   1      21.725   9.761   2.817  0.00  0.00     0.020 C 
HETATM   22  C   UNK N   1      23.994   9.403   3.535  0.00  0.00     0.020 C 
BRANCH  20  23
HETATM   23  C   UNK N   1      23.368  11.487   2.311  0.00  0.00     0.022 C 
BRANCH  23  24
HETATM   24  C   UNK N   1      24.529  12.466   2.552  0.00  0.00    -0.050 C 
HETATM   25  C   UNK N   1      25.080  12.852   1.196  0.00  0.00     0.014 C 
HETATM   26  C   UNK N   1      25.674  11.832   3.323  0.00  0.00     0.014 C 
HETATM   27  C   UNK N   1      24.057  13.717   3.263  0.00  0.00     0.014 C 
ENDBRANCH  23  24
ENDBRANCH  20  23
ENDBRANCH  13  20
ENDBRANCH   7   8
ENDBRANCH   6   7
BRANCH   1  28
HETATM   28  O   UNK N   1      21.308  16.839   6.593  0.00  0.00    -0.348 OA
BRANCH  28  29
HETATM   29  C   UNK N   1      20.561  17.578   7.484  0.00  0.00     0.201 C 
BRANCH  29  30
HETATM   30  C   UNK N   1      19.936  16.685   8.534  0.00  0.00     0.190 C 
BRANCH  30  31
HETATM   31  O   UNK N   1      20.924  15.878   9.098  0.00  0.00    -0.399 OA
HETATM   32  H   UNK N   1      20.430  15.247   9.679  0.00  0.00     0.209 HD
ENDBRANCH  30  31
ENDBRANCH  29  30
ENDBRANCH  28  29
ENDBRANCH   1  28
BRANCH   4  33
HETATM   33  C   UNK N   1      20.044  15.155   1.358  0.00  0.00    -0.020 C 
HETATM   34  C   UNK N   1      21.384  14.542   1.037  0.00  0.00     0.020 C 
HETATM   35  C   UNK N   1      19.901  16.282   0.378  0.00  0.00     0.020 C 
BRANCH  33  36
HETATM   36  C   UNK N   1      18.846  14.202   1.193  0.00  0.00     0.022 C 
BRANCH  36  37
HETATM   37  C   UNK N   1      19.111  12.701   0.973  0.00  0.00    -0.050 C 
HETATM   38  C   UNK N   1      18.111  12.183  -0.036  0.00  0.00     0.014 C 
HETATM   39  C   UNK N   1      20.502  12.368   0.452  0.00  0.00     0.014 C 
HETATM   40  C   UNK N   1      18.873  11.977   2.278  0.00  0.00     0.014 C 
ENDBRANCH  36  37
ENDBRANCH  33  36
ENDBRANCH   4  33
BRANCH   2  41
HETATM   41  C   UNK N   1      21.255  18.831   4.464  0.00  0.00     0.083 C 
BRANCH  41  42
HETATM   42  C   UNK N   1      22.687  19.103   3.996  0.00  0.00    -0.020 A 
HETATM   43  C   UNK N   1      23.719  18.229   4.413  0.00  0.00     0.018 A 
HETATM   44  C   UNK N   1      25.050  18.394   3.996  0.00  0.00    -0.050 A 
HETATM   45  C   UNK N   1      25.360  19.501   3.196  0.00  0.00     0.011 A 
HETATM   46  C   UNK N   1      24.368  20.398   2.803  0.00  0.00     0.038 A 
HETATM   47  C   UNK N   1      23.029  20.208   3.162  0.00  0.00     0.075 A 
BRANCH  44  48
HETATM   48  C   UNK N   1      26.139  17.367   4.306  0.00  0.00    -0.020 C 
HETATM   49  C   UNK N   1      27.342  18.134   4.843  0.00  0.00     0.020 C 
HETATM   50  C   UNK N   1      25.642  16.421   5.386  0.00  0.00     0.020 C 
BRANCH  48  51
HETATM   51  C   UNK N   1      26.544  16.516   3.075  0.00  0.00     0.022 C 
BRANCH  51  52
HETATM   52  C   UNK N   1      27.840  15.659   3.125  0.00  0.00    -0.050 C 
HETATM   53  C   UNK N   1      27.893  14.785   1.887  0.00  0.00     0.014 C 
HETATM   54  C   UNK N   1      27.893  14.740   4.328  0.00  0.00     0.014 C 
HETATM   55  C   UNK N   1      29.079  16.542   3.125  0.00  0.00     0.014 C 
ENDBRANCH  51  52
ENDBRANCH  48  51
ENDBRANCH  44  48
BRANCH  47  56
HETATM   56  O   UNK N   1      22.129  21.100   2.675  0.00  0.00    -0.348 OA
BRANCH  56  57
HETATM   57  C   UNK N   1      20.844  20.798   2.295  0.00  0.00     0.201 C 
BRANCH  57  58
HETATM   58  C   UNK N   1      20.846  20.061   0.975  0.00  0.00     0.190 C 
BRANCH  58  59
HETATM   59  O   UNK N   1      20.829  20.988  -0.066  0.00  0.00    -0.399 OA
HETATM   60  H   UNK N   1      21.497  20.652  -0.716  0.00  0.00     0.209 HD
ENDBRANCH  58  59
ENDBRANCH  57  58
ENDBRANCH  56  57
ENDBRANCH  47  56
ENDBRANCH  41  42
ENDBRANCH   2  41
TORSDOF 25
ENDMDL
MODEL 6
REMARK VINA RESULT:      -6.9      3.572      9.155
REMARK  25 active torsions:
REMARK  status: ('A' for Active; 'I' for Inactive)
REMARK    1  A    between atoms: C_1  and  O_7 
REMARK    2  A    between atoms: C_60  and  C_2 
REMARK    3  A    between atoms: C_4  and  C_12 
REMARK    4  A    between atoms: C_6  and  C_20 
REMARK    5  A    between atoms: O_7  and  C_8 
REMARK    6  A    between atoms: C_8  and  C_9 
REMARK    7  A    between atoms: C_9  and  O_10 
REMARK    8  A    between atoms: C_12  and  C_15 
REMARK    9  A    between atoms: C_15  and  C_16 
REMARK   10  A    between atoms: C_22  and  C_20 
REMARK   11  A    between atoms: C_21  and  O_27 
REMARK   12  A    between atoms: C_24  and  C_32 
REMARK   13  A    between atoms: O_27  and  C_28 
REMARK   14  A    between atoms: C_28  and  C_29 
REMARK   15  A    between atoms: C_29  and  O_30 
REMARK   16  A    between atoms: C_32  and  C_35 
REMARK   17  A    between atoms: C_35  and  C_36 
REMARK   18  A    between atoms: C_41  and  O_47 
REMARK   19  A    between atoms: C_44  and  C_52 
REMARK   20  A    between atoms: C_46  and  C_60 
REMARK   21  A    between atoms: O_47  and  C_48 
REMARK   22  A    between atoms: C_48  and  C_49 
REMARK   23  A    between atoms: C_49  and  O_50 
REMARK   24  A    between atoms: C_52  and  C_55 
REMARK   25  A    between atoms: C_55  and  C_56 
ROOT
HETATM    1  C   UNK N   1      26.574  18.276   4.894  0.00  0.00     0.082 A 
HETATM    2  C   UNK N   1      27.754  17.850   4.217  0.00  0.00    -0.019 A 
HETATM    3  C   UNK N   1      27.690  16.749   3.382  0.00  0.00     0.018 A 
HETATM    4  C   UNK N   1      26.507  16.094   3.112  0.00  0.00    -0.049 A 
HETATM    5  C   UNK N   1      25.333  16.568   3.670  0.00  0.00     0.018 A 
HETATM    6  C   UNK N   1      25.329  17.617   4.575  0.00  0.00    -0.019 A 
ENDROOT
BRANCH   6   7
HETATM    7  C   UNK N   1      23.984  17.984   5.167  0.00  0.00     0.083 C 
BRANCH   7   8
HETATM    8  C   UNK N   1      22.968  16.851   5.391  0.00  0.00    -0.019 A 
HETATM    9  C   UNK N   1      21.766  16.885   4.658  0.00  0.00     0.081 A 
HETATM   10  C   UNK N   1      20.819  15.841   4.827  0.00  0.00    -0.028 A 
HETATM   11  C   UNK N   1      21.043  14.829   5.753  0.00  0.00     0.017 A 
HETATM   12  C   UNK N   1      19.558  15.794   4.036  0.00  0.00     0.051 C 
HETATM   13  C   UNK N   1      22.211  14.787   6.515  0.00  0.00    -0.049 A 
HETATM   14  C   UNK N   1      23.178  15.800   6.315  0.00  0.00     0.018 A 
BRANCH   9  15
HETATM   15  O   UNK N   1      21.537  17.930   3.835  0.00  0.00    -0.348 OA
BRANCH  15  16
HETATM   16  C   UNK N   1      21.039  19.125   4.310  0.00  0.00     0.201 C 
BRANCH  16  17
HETATM   17  C   UNK N   1      20.335  19.893   3.214  0.00  0.00     0.190 C 
BRANCH  17  18
HETATM   18  O   UNK N   1      20.873  21.174   3.118  0.00  0.00    -0.399 OA
HETATM   19  H   UNK N   1      21.650  21.073   2.514  0.00  0.00     0.209 HD
ENDBRANCH  17  18
ENDBRANCH  16  17
ENDBRANCH  15  16
ENDBRANCH   9  15
BRANCH  13  20
HETATM   20  C   UNK N   1      22.296  13.794   7.675  0.00  0.00    -0.020 C 
HETATM   21  C   UNK N   1      21.400  14.343   8.769  0.00  0.00     0.020 C 
HETATM   22  C   UNK N   1      23.669  13.705   8.280  0.00  0.00     0.020 C 
BRANCH  20  23
HETATM   23  C   UNK N   1      21.758  12.375   7.378  0.00  0.00     0.022 C 
BRANCH  23  24
HETATM   24  C   UNK N   1      22.503  11.417   6.435  0.00  0.00    -0.050 C 
HETATM   25  C   UNK N   1      23.275  10.443   7.299  0.00  0.00     0.014 C 
HETATM   26  C   UNK N   1      23.525  12.133   5.567  0.00  0.00     0.014 C 
HETATM   27  C   UNK N   1      21.539  10.641   5.563  0.00  0.00     0.014 C 
ENDBRANCH  23  24
ENDBRANCH  20  23
ENDBRANCH  13  20
ENDBRANCH   7   8
ENDBRANCH   6   7
BRANCH   1  28
HETATM   28  O   UNK N   1      26.680  19.257   5.826  0.00  0.00    -0.348 OA
BRANCH  28  29
HETATM   29  C   UNK N   1      26.405  20.584   5.575  0.00  0.00     0.201 C 
BRANCH  29  30
HETATM   30  C   UNK N   1      26.506  21.404   6.843  0.00  0.00     0.190 C 
BRANCH  30  31
HETATM   31  O   UNK N   1      26.351  20.565   7.947  0.00  0.00    -0.399 OA
HETATM   32  H   UNK N   1      27.022  19.850   7.812  0.00  0.00     0.209 HD
ENDBRANCH  30  31
ENDBRANCH  29  30
ENDBRANCH  28  29
ENDBRANCH   1  28
BRANCH   4  33
HETATM   33  C   UNK N   1      26.502  14.776   2.402  0.00  0.00    -0.020 C 
HETATM   34  C   UNK N   1      26.406  13.725   3.480  0.00  0.00     0.020 C 
HETATM   35  C   UNK N   1      27.812  14.501   1.725  0.00  0.00     0.020 C 
BRANCH  33  36
HETATM   36  C   UNK N   1      25.380  14.721   1.350  0.00  0.00     0.022 C 
BRANCH  36  37
HETATM   37  C   UNK N   1      24.319  13.609   1.447  0.00  0.00    -0.050 C 
HETATM   38  C   UNK N   1      23.598  13.521   0.121  0.00  0.00     0.014 C 
HETATM   39  C   UNK N   1      24.871  12.226   1.761  0.00  0.00     0.014 C 
HETATM   40  C   UNK N   1      23.310  14.001   2.501  0.00  0.00     0.014 C 
ENDBRANCH  36  37
ENDBRANCH  33  36
ENDBRANCH   4  33
BRANCH   2  41
HETATM   41  C   UNK N   1      29.124  18.456   4.452  0.00  0.00     0.083 C 
BRANCH  41  42
HETATM   42  C   UNK N   1      30.099  17.515   5.165  0.00  0.00    -0.020 A 
HETATM   43  C   UNK N   1      31.062  16.818   4.395  0.00  0.00     0.018 A 
HETATM   44  C   UNK N   1      32.011  15.966   4.983  0.00  0.00    -0.050 A 
HETATM   45  C   UNK N   1      31.947  15.759   6.366  0.00  0.00     0.011 A 
HETATM   46  C   UNK N   1      30.985  16.402   7.142  0.00  0.00     0.038 A 
HETATM   47  C   UNK N   1      30.074  17.302   6.575  0.00  0.00     0.075 A 
BRANCH  44  48
HETATM   48  C   UNK N   1      33.154  15.339   4.183  0.00  0.00    -0.020 C 
HETATM   49  C   UNK N   1      32.737  13.911   3.848  0.00  0.00     0.020 C 
HETATM   50  C   UNK N   1      33.341  16.110   2.888  0.00  0.00     0.020 C 
BRANCH  48  51
HETATM   51  C   UNK N   1      34.505  15.345   4.943  0.00  0.00     0.022 C 
BRANCH  51  52
HETATM   52  C   UNK N   1      35.215  13.998   5.259  0.00  0.00    -0.050 C 
HETATM   53  C   UNK N   1      35.685  13.380   3.956  0.00  0.00     0.014 C 
HETATM   54  C   UNK N   1      34.303  12.993   5.930  0.00  0.00     0.014 C 
HETATM   55  C   UNK N   1      36.437  14.219   6.138  0.00  0.00     0.014 C 
ENDBRANCH  51  52
ENDBRANCH  48  51
ENDBRANCH  44  48
BRANCH  47  56
HETATM   56  O   UNK N   1      29.219  17.928   7.423  0.00  0.00    -0.348 OA
BRANCH  56  57
HETATM   57  C   UNK N   1      29.578  18.522   8.608  0.00  0.00     0.201 C 
BRANCH  57  58
HETATM   58  C   UNK N   1      28.726  17.992   9.740  0.00  0.00     0.190 C 
BRANCH  58  59
HETATM   59  O   UNK N   1      27.380  18.144   9.409  0.00  0.00    -0.399 OA
HETATM   60  H   UNK N   1      26.985  18.634  10.174  0.00  0.00     0.209 HD
ENDBRANCH  58  59
ENDBRANCH  57  58
ENDBRANCH  56  57
ENDBRANCH  47  56
ENDBRANCH  41  42
ENDBRANCH   2  41
TORSDOF 25
ENDMDL
MODEL 7
REMARK VINA RESULT:      -6.9      3.544      6.579
REMARK  25 active torsions:
REMARK  status: ('A' for Active; 'I' for Inactive)
REMARK    1  A    between atoms: C_1  and  O_7 
REMARK    2  A    between atoms: C_60  and  C_2 
REMARK    3  A    between atoms: C_4  and  C_12 
REMARK    4  A    between atoms: C_6  and  C_20 
REMARK    5  A    between atoms: O_7  and  C_8 
REMARK    6  A    between atoms: C_8  and  C_9 
REMARK    7  A    between atoms: C_9  and  O_10 
REMARK    8  A    between atoms: C_12  and  C_15 
REMARK    9  A    between atoms: C_15  and  C_16 
REMARK   10  A    between atoms: C_22  and  C_20 
REMARK   11  A    between atoms: C_21  and  O_27 
REMARK   12  A    between atoms: C_24  and  C_32 
REMARK   13  A    between atoms: O_27  and  C_28 
REMARK   14  A    between atoms: C_28  and  C_29 
REMARK   15  A    between atoms: C_29  and  O_30 
REMARK   16  A    between atoms: C_32  and  C_35 
REMARK   17  A    between atoms: C_35  and  C_36 
REMARK   18  A    between atoms: C_41  and  O_47 
REMARK   19  A    between atoms: C_44  and  C_52 
REMARK   20  A    between atoms: C_46  and  C_60 
REMARK   21  A    between atoms: O_47  and  C_48 
REMARK   22  A    between atoms: C_48  and  C_49 
REMARK   23  A    between atoms: C_49  and  O_50 
REMARK   24  A    between atoms: C_52  and  C_55 
REMARK   25  A    between atoms: C_55  and  C_56 
ROOT
HETATM    1  C   UNK N   1      26.960  18.743   4.532  0.00  0.00     0.082 A 
HETATM    2  C   UNK N   1      25.692  18.204   4.171  0.00  0.00    -0.019 A 
HETATM    3  C   UNK N   1      25.634  16.949   3.592  0.00  0.00     0.018 A 
HETATM    4  C   UNK N   1      26.753  16.159   3.427  0.00  0.00    -0.049 A 
HETATM    5  C   UNK N   1      27.975  16.622   3.880  0.00  0.00     0.018 A 
HETATM    6  C   UNK N   1      28.124  17.897   4.400  0.00  0.00    -0.019 A 
ENDROOT
BRANCH   6   7
HETATM    7  C   UNK N   1      29.531  18.303   4.787  0.00  0.00     0.083 C 
BRANCH   7   8
HETATM    8  C   UNK N   1      30.518  17.186   5.166  0.00  0.00    -0.019 A 
HETATM    9  C   UNK N   1      30.720  16.917   6.533  0.00  0.00     0.081 A 
HETATM   10  C   UNK N   1      31.608  15.877   6.914  0.00  0.00    -0.028 A 
HETATM   11  C   UNK N   1      32.323  15.173   5.952  0.00  0.00     0.017 A 
HETATM   12  C   UNK N   1      31.817  15.510   8.342  0.00  0.00     0.051 C 
HETATM   13  C   UNK N   1      32.164  15.437   4.591  0.00  0.00    -0.049 A 
HETATM   14  C   UNK N   1      31.245  16.442   4.206  0.00  0.00     0.018 A 
BRANCH   9  15
HETATM   15  O   UNK N   1      30.083  17.682   7.446  0.00  0.00    -0.348 OA
BRANCH  15  16
HETATM   16  C   UNK N   1      28.889  17.285   8.011  0.00  0.00     0.201 C 
BRANCH  16  17
HETATM   17  C   UNK N   1      28.625  18.030   9.300  0.00  0.00     0.190 C 
BRANCH  17  18
HETATM   18  O   UNK N   1      27.332  18.545   9.287  0.00  0.00    -0.399 OA
HETATM   19  H   UNK N   1      26.763  17.788   9.000  0.00  0.00     0.209 HD
ENDBRANCH  17  18
ENDBRANCH  16  17
ENDBRANCH  15  16
ENDBRANCH   9  15
BRANCH  13  20
HETATM   20  C   UNK N   1      33.140  14.801   3.600  0.00  0.00    -0.020 C 
HETATM   21  C   UNK N   1      33.612  15.921   2.693  0.00  0.00     0.020 C 
HETATM   22  C   UNK N   1      32.493  13.790   2.697  0.00  0.00     0.020 C 
BRANCH  20  23
HETATM   23  C   UNK N   1      34.426  14.207   4.220  0.00  0.00     0.022 C 
BRANCH  23  24
HETATM   24  C   UNK N   1      34.644  12.687   4.309  0.00  0.00    -0.050 C 
HETATM   25  C   UNK N   1      35.791  12.452   5.268  0.00  0.00     0.014 C 
HETATM   26  C   UNK N   1      35.058  12.080   2.979  0.00  0.00     0.014 C 
HETATM   27  C   UNK N   1      33.412  11.983   4.836  0.00  0.00     0.014 C 
ENDBRANCH  23  24
ENDBRANCH  20  23
ENDBRANCH  13  20
ENDBRANCH   7   8
ENDBRANCH   6   7
BRANCH   1  28
HETATM   28  O   UNK N   1      27.020  20.032   4.955  0.00  0.00    -0.348 OA
BRANCH  28  29
HETATM   29  C   UNK N   1      27.382  20.403   6.232  0.00  0.00     0.201 C 
BRANCH  29  30
HETATM   30  C   UNK N   1      26.373  21.365   6.820  0.00  0.00     0.190 C 
BRANCH  30  31
HETATM   31  O   UNK N   1      26.008  20.926   8.093  0.00  0.00    -0.399 OA
HETATM   32  H   UNK N   1      25.069  21.222   8.199  0.00  0.00     0.209 HD
ENDBRANCH  30  31
ENDBRANCH  29  30
ENDBRANCH  28  29
ENDBRANCH   1  28
BRANCH   4  33
HETATM   33  C   UNK N   1      26.702  14.918   2.591  0.00  0.00    -0.020 C 
HETATM   34  C   UNK N   1      26.687  13.765   3.562  0.00  0.00     0.020 C 
HETATM   35  C   UNK N   1      27.961  14.725   1.799  0.00  0.00     0.020 C 
BRANCH  33  36
HETATM   36  C   UNK N   1      25.507  14.957   1.621  0.00  0.00     0.022 C 
BRANCH  36  37
HETATM   37  C   UNK N   1      24.500  13.792   1.629  0.00  0.00    -0.050 C 
HETATM   38  C   UNK N   1      23.559  13.966   0.460  0.00  0.00     0.014 C 
HETATM   39  C   UNK N   1      25.124  12.408   1.514  0.00  0.00     0.014 C 
HETATM   40  C   UNK N   1      23.685  13.874   2.900  0.00  0.00     0.014 C 
ENDBRANCH  36  37
ENDBRANCH  33  36
ENDBRANCH   4  33
BRANCH   2  41
HETATM   41  C   UNK N   1      24.390  18.978   4.264  0.00  0.00     0.083 C 
BRANCH  41  42
HETATM   42  C   UNK N   1      23.155  18.087   4.431  0.00  0.00    -0.020 A 
HETATM   43  C   UNK N   1      23.240  16.955   5.277  0.00  0.00     0.018 A 
HETATM   44  C   UNK N   1      22.140  16.113   5.507  0.00  0.00    -0.050 A 
HETATM   45  C   UNK N   1      20.949  16.378   4.819  0.00  0.00     0.011 A 
HETATM   46  C   UNK N   1      20.851  17.464   3.952  0.00  0.00     0.038 A 
HETATM   47  C   UNK N   1      21.923  18.346   3.763  0.00  0.00     0.075 A 
BRANCH  44  48
HETATM   48  C   UNK N   1      22.172  14.987   6.541  0.00  0.00    -0.020 C 
HETATM   49  C   UNK N   1      23.636  14.740   6.890  0.00  0.00     0.020 C 
HETATM   50  C   UNK N   1      21.441  15.437   7.795  0.00  0.00     0.020 C 
BRANCH  48  51
HETATM   51  C   UNK N   1      21.506  13.680   6.041  0.00  0.00     0.022 C 
BRANCH  51  52
HETATM   52  C   UNK N   1      21.944  12.315   6.642  0.00  0.00    -0.050 C 
HETATM   53  C   UNK N   1      20.973  11.246   6.177  0.00  0.00     0.014 C 
HETATM   54  C   UNK N   1      21.932  12.306   8.156  0.00  0.00     0.014 C 
HETATM   55  C   UNK N   1      23.333  11.926   6.158  0.00  0.00     0.014 C 
ENDBRANCH  51  52
ENDBRANCH  48  51
ENDBRANCH  44  48
BRANCH  47  56
HETATM   56  O   UNK N   1      21.707  19.410   2.949  0.00  0.00    -0.348 OA
BRANCH  56  57
HETATM   57  C   UNK N   1      20.747  19.473   1.970  0.00  0.00     0.201 C 
BRANCH  57  58
HETATM   58  C   UNK N   1      20.815  20.803   1.252  0.00  0.00     0.190 C 
BRANCH  58  59
HETATM   59  O   UNK N   1      20.608  20.597  -0.111  0.00  0.00    -0.399 OA
HETATM   60  H   UNK N   1      21.474  20.257  -0.451  0.00  0.00     0.209 HD
ENDBRANCH  58  59
ENDBRANCH  57  58
ENDBRANCH  56  57
ENDBRANCH  47  56
ENDBRANCH  41  42
ENDBRANCH   2  41
TORSDOF 25
ENDMDL
MODEL 8
REMARK VINA RESULT:      -6.9      3.232      5.558
REMARK  25 active torsions:
REMARK  status: ('A' for Active; 'I' for Inactive)
REMARK    1  A    between atoms: C_1  and  O_7 
REMARK    2  A    between atoms: C_60  and  C_2 
REMARK    3  A    between atoms: C_4  and  C_12 
REMARK    4  A    between atoms: C_6  and  C_20 
REMARK    5  A    between atoms: O_7  and  C_8 
REMARK    6  A    between atoms: C_8  and  C_9 
REMARK    7  A    between atoms: C_9  and  O_10 
REMARK    8  A    between atoms: C_12  and  C_15 
REMARK    9  A    between atoms: C_15  and  C_16 
REMARK   10  A    between atoms: C_22  and  C_20 
REMARK   11  A    between atoms: C_21  and  O_27 
REMARK   12  A    between atoms: C_24  and  C_32 
REMARK   13  A    between atoms: O_27  and  C_28 
REMARK   14  A    between atoms: C_28  and  C_29 
REMARK   15  A    between atoms: C_29  and  O_30 
REMARK   16  A    between atoms: C_32  and  C_35 
REMARK   17  A    between atoms: C_35  and  C_36 
REMARK   18  A    between atoms: C_41  and  O_47 
REMARK   19  A    between atoms: C_44  and  C_52 
REMARK   20  A    between atoms: C_46  and  C_60 
REMARK   21  A    between atoms: O_47  and  C_48 
REMARK   22  A    between atoms: C_48  and  C_49 
REMARK   23  A    between atoms: C_49  and  O_50 
REMARK   24  A    between atoms: C_52  and  C_55 
REMARK   25  A    between atoms: C_55  and  C_56 
ROOT
HETATM    1  C   UNK N   1      25.312  15.962   5.172  0.00  0.00     0.082 A 
HETATM    2  C   UNK N   1      24.298  16.925   4.898  0.00  0.00    -0.019 A 
HETATM    3  C   UNK N   1      24.668  18.208   4.536  0.00  0.00     0.018 A 
HETATM    4  C   UNK N   1      25.985  18.571   4.346  0.00  0.00    -0.049 A 
HETATM    5  C   UNK N   1      26.974  17.615   4.494  0.00  0.00     0.018 A 
HETATM    6  C   UNK N   1      26.687  16.331   4.929  0.00  0.00    -0.019 A 
ENDROOT
BRANCH   6   7
HETATM    7  C   UNK N   1      27.873  15.409   5.121  0.00  0.00     0.083 C 
BRANCH   7   8
HETATM    8  C   UNK N   1      29.261  16.052   5.277  0.00  0.00    -0.019 A 
HETATM    9  C   UNK N   1      30.064  16.178   4.127  0.00  0.00     0.081 A 
HETATM   10  C   UNK N   1      31.342  16.789   4.235  0.00  0.00    -0.028 A 
HETATM   11  C   UNK N   1      31.825  17.199   5.472  0.00  0.00     0.017 A 
HETATM   12  C   UNK N   1      32.210  17.001   3.044  0.00  0.00     0.051 C 
HETATM   13  C   UNK N   1      31.063  17.060   6.632  0.00  0.00    -0.049 A 
HETATM   14  C   UNK N   1      29.770  16.495   6.521  0.00  0.00     0.018 A 
BRANCH   9  15
HETATM   15  O   UNK N   1      29.606  15.685   2.957  0.00  0.00    -0.348 OA
BRANCH  15  16
HETATM   16  C   UNK N   1      29.806  14.368   2.603  0.00  0.00     0.201 C 
BRANCH  16  17
HETATM   17  C   UNK N   1      28.747  13.900   1.630  0.00  0.00     0.190 C 
BRANCH  17  18
HETATM   18  O   UNK N   1      27.724  13.259   2.323  0.00  0.00    -0.399 OA
HETATM   19  H   UNK N   1      26.933  13.841   2.197  0.00  0.00     0.209 HD
ENDBRANCH  17  18
ENDBRANCH  16  17
ENDBRANCH  15  16
ENDBRANCH   9  15
BRANCH  13  20
HETATM   20  C   UNK N   1      31.731  17.308   7.985  0.00  0.00    -0.020 C 
HETATM   21  C   UNK N   1      30.723  18.072   8.821  0.00  0.00     0.020 C 
HETATM   22  C   UNK N   1      32.941  18.195   7.895  0.00  0.00     0.020 C 
BRANCH  20  23
HETATM   23  C   UNK N   1      32.067  16.041   8.804  0.00  0.00     0.022 C 
BRANCH  23  24
HETATM   24  C   UNK N   1      33.157  15.056   8.347  0.00  0.00    -0.050 C 
HETATM   25  C   UNK N   1      32.527  14.127   7.331  0.00  0.00     0.014 C 
HETATM   26  C   UNK N   1      33.664  14.181   9.481  0.00  0.00     0.014 C 
HETATM   27  C   UNK N   1      34.316  15.780   7.696  0.00  0.00     0.014 C 
ENDBRANCH  23  24
ENDBRANCH  20  23
ENDBRANCH  13  20
ENDBRANCH   7   8
ENDBRANCH   6   7
BRANCH   1  28
HETATM   28  O   UNK N   1      24.942  14.757   5.675  0.00  0.00    -0.348 OA
BRANCH  28  29
HETATM   29  C   UNK N   1      24.926  14.461   7.020  0.00  0.00     0.201 C 
BRANCH  29  30
HETATM   30  C   UNK N   1      23.717  13.622   7.373  0.00  0.00     0.190 C 
BRANCH  30  31
HETATM   31  O   UNK N   1      23.687  13.416   8.753  0.00  0.00    -0.399 OA
HETATM   32  H   UNK N   1      23.551  12.441   8.857  0.00  0.00     0.209 HD
ENDBRANCH  30  31
ENDBRANCH  29  30
ENDBRANCH  28  29
ENDBRANCH   1  28
BRANCH   4  33
HETATM   33  C   UNK N   1      26.372  20.009   4.188  0.00  0.00    -0.020 C 
HETATM   34  C   UNK N   1      25.813  20.444   2.857  0.00  0.00     0.020 C 
HETATM   35  C   UNK N   1      27.856  20.177   4.046  0.00  0.00     0.020 C 
BRANCH  33  36
HETATM   36  C   UNK N   1      25.892  20.843   5.390  0.00  0.00     0.022 C 
BRANCH  36  37
HETATM   37  C   UNK N   1      26.825  21.010   6.604  0.00  0.00    -0.050 C 
HETATM   38  C   UNK N   1      26.002  21.492   7.775  0.00  0.00     0.014 C 
HETATM   39  C   UNK N   1      27.541  19.738   7.038  0.00  0.00     0.014 C 
HETATM   40  C   UNK N   1      27.845  22.077   6.279  0.00  0.00     0.014 C 
ENDBRANCH  36  37
ENDBRANCH  33  36
ENDBRANCH   4  33
BRANCH   2  41
HETATM   41  C   UNK N   1      22.816  16.670   5.104  0.00  0.00     0.083 C 
BRANCH  41  42
HETATM   42  C   UNK N   1      22.047  16.431   3.801  0.00  0.00    -0.020 A 
HETATM   43  C   UNK N   1      22.126  15.158   3.186  0.00  0.00     0.018 A 
HETATM   44  C   UNK N   1      21.420  14.854   2.011  0.00  0.00    -0.050 A 
HETATM   45  C   UNK N   1      20.673  15.872   1.406  0.00  0.00     0.011 A 
HETATM   46  C   UNK N   1      20.609  17.144   1.971  0.00  0.00     0.038 A 
HETATM   47  C   UNK N   1      21.258  17.440   3.175  0.00  0.00     0.075 A 
BRANCH  44  48
HETATM   48  C   UNK N   1      21.368  13.440   1.430  0.00  0.00    -0.020 C 
HETATM   49  C   UNK N   1      20.076  13.331   0.628  0.00  0.00     0.020 C 
HETATM   50  C   UNK N   1      22.545  13.242   0.489  0.00  0.00     0.020 C 
BRANCH  48  51
HETATM   51  C   UNK N   1      21.430  12.333   2.513  0.00  0.00     0.022 C 
BRANCH  51  52
HETATM   52  C   UNK N   1      20.212  12.109   3.453  0.00  0.00    -0.050 C 
HETATM   53  C   UNK N   1      19.667  10.714   3.218  0.00  0.00     0.014 C 
HETATM   54  C   UNK N   1      19.082  13.084   3.197  0.00  0.00     0.014 C 
HETATM   55  C   UNK N   1      20.625  12.207   4.914  0.00  0.00     0.014 C 
ENDBRANCH  51  52
ENDBRANCH  48  51
ENDBRANCH  44  48
BRANCH  47  56
HETATM   56  O   UNK N   1      21.082  18.689   3.678  0.00  0.00    -0.348 OA
BRANCH  56  57
HETATM   57  C   UNK N   1      20.329  19.676   3.092  0.00  0.00     0.201 C 
BRANCH  57  58
HETATM   58  C   UNK N   1      21.187  20.513   2.170  0.00  0.00     0.190 C 
BRANCH  58  59
HETATM   59  O   UNK N   1      21.781  21.538   2.904  0.00  0.00    -0.399 OA
HETATM   60  H   UNK N   1      21.867  22.291   2.265  0.00  0.00     0.209 HD
ENDBRANCH  58  59
ENDBRANCH  57  58
ENDBRANCH  56  57
ENDBRANCH  47  56
ENDBRANCH  41  42
ENDBRANCH   2  41
TORSDOF 25
ENDMDL
MODEL 9
REMARK VINA RESULT:      -6.9      1.945      7.775
REMARK  25 active torsions:
REMARK  status: ('A' for Active; 'I' for Inactive)
REMARK    1  A    between atoms: C_1  and  O_7 
REMARK    2  A    between atoms: C_60  and  C_2 
REMARK    3  A    between atoms: C_4  and  C_12 
REMARK    4  A    between atoms: C_6  and  C_20 
REMARK    5  A    between atoms: O_7  and  C_8 
REMARK    6  A    between atoms: C_8  and  C_9 
REMARK    7  A    between atoms: C_9  and  O_10 
REMARK    8  A    between atoms: C_12  and  C_15 
REMARK    9  A    between atoms: C_15  and  C_16 
REMARK   10  A    between atoms: C_22  and  C_20 
REMARK   11  A    between atoms: C_21  and  O_27 
REMARK   12  A    between atoms: C_24  and  C_32 
REMARK   13  A    between atoms: O_27  and  C_28 
REMARK   14  A    between atoms: C_28  and  C_29 
REMARK   15  A    between atoms: C_29  and  O_30 
REMARK   16  A    between atoms: C_32  and  C_35 
REMARK   17  A    between atoms: C_35  and  C_36 
REMARK   18  A    between atoms: C_41  and  O_47 
REMARK   19  A    between atoms: C_44  and  C_52 
REMARK   20  A    between atoms: C_46  and  C_60 
REMARK   21  A    between atoms: O_47  and  C_48 
REMARK   22  A    between atoms: C_48  and  C_49 
REMARK   23  A    between atoms: C_49  and  O_50 
REMARK   24  A    between atoms: C_52  and  C_55 
REMARK   25  A    between atoms: C_55  and  C_56 
ROOT
HETATM    1  C   UNK N   1      21.693  15.467   6.202  0.00  0.00     0.082 A 
HETATM    2  C   UNK N   1      21.183  14.207   5.775  0.00  0.00    -0.019 A 
HETATM    3  C   UNK N   1      20.931  14.004   4.430  0.00  0.00     0.018 A 
HETATM    4  C   UNK N   1      21.234  14.948   3.471  0.00  0.00    -0.049 A 
HETATM    5  C   UNK N   1      21.839  16.130   3.858  0.00  0.00     0.018 A 
HETATM    6  C   UNK N   1      22.053  16.436   5.192  0.00  0.00    -0.019 A 
ENDROOT
BRANCH   6   7
HETATM    7  C   UNK N   1      22.653  17.796   5.479  0.00  0.00     0.083 C 
BRANCH   7   8
HETATM    8  C   UNK N   1      24.039  18.105   4.888  0.00  0.00    -0.019 A 
HETATM    9  C   UNK N   1      24.160  19.216   4.031  0.00  0.00     0.081 A 
HETATM   10  C   UNK N   1      25.432  19.539   3.488  0.00  0.00    -0.028 A 
HETATM   11  C   UNK N   1      26.534  18.733   3.745  0.00  0.00     0.017 A 
HETATM   12  C   UNK N   1      25.631  20.735   2.622  0.00  0.00     0.051 C 
HETATM   13  C   UNK N   1      26.437  17.610   4.567  0.00  0.00    -0.049 A 
HETATM   14  C   UNK N   1      25.181  17.311   5.148  0.00  0.00     0.018 A 
BRANCH   9  15
HETATM   15  O   UNK N   1      23.052  19.924   3.725  0.00  0.00    -0.348 OA
BRANCH  15  16
HETATM   16  C   UNK N   1      22.213  19.542   2.699  0.00  0.00     0.201 C 
BRANCH  16  17
HETATM   17  C   UNK N   1      21.097  20.544   2.510  0.00  0.00     0.190 C 
BRANCH  17  18
HETATM   18  O   UNK N   1      21.612  21.836   2.565  0.00  0.00    -0.399 OA
HETATM   19  H   UNK N   1      20.937  22.353   3.072  0.00  0.00     0.209 HD
ENDBRANCH  17  18
ENDBRANCH  16  17
ENDBRANCH  15  16
ENDBRANCH   9  15
BRANCH  13  20
HETATM   20  C   UNK N   1      27.615  16.636   4.624  0.00  0.00    -0.020 C 
HETATM   21  C   UNK N   1      28.140  16.525   3.206  0.00  0.00     0.020 C 
HETATM   22  C   UNK N   1      27.214  15.244   5.021  0.00  0.00     0.020 C 
BRANCH  20  23
HETATM   23  C   UNK N   1      28.821  17.100   5.473  0.00  0.00     0.022 C 
BRANCH  23  24
HETATM   24  C   UNK N   1      28.639  17.611   6.912  0.00  0.00    -0.050 C 
HETATM   25  C   UNK N   1      29.985  17.518   7.596  0.00  0.00     0.014 C 
HETATM   26  C   UNK N   1      27.681  16.750   7.718  0.00  0.00     0.014 C 
HETATM   27  C   UNK N   1      28.177  19.052   6.931  0.00  0.00     0.014 C 
ENDBRANCH  23  24
ENDBRANCH  20  23
ENDBRANCH  13  20
ENDBRANCH   7   8
ENDBRANCH   6   7
BRANCH   1  28
HETATM   28  O   UNK N   1      21.791  15.709   7.534  0.00  0.00    -0.348 OA
BRANCH  28  29
HETATM   29  C   UNK N   1      20.709  15.745   8.387  0.00  0.00     0.201 C 
BRANCH  29  30
HETATM   30  C   UNK N   1      19.788  16.895   8.041  0.00  0.00     0.190 C 
BRANCH  30  31
HETATM   31  O   UNK N   1      20.486  18.097   8.169  0.00  0.00    -0.399 OA
HETATM   32  H   UNK N   1      19.811  18.798   7.984  0.00  0.00     0.209 HD
ENDBRANCH  30  31
ENDBRANCH  29  30
ENDBRANCH  28  29
ENDBRANCH   1  28
BRANCH   4  33
HETATM   33  C   UNK N   1      20.739  14.803   2.065  0.00  0.00    -0.020 C 
HETATM   34  C   UNK N   1      21.958  14.523   1.223  0.00  0.00     0.020 C 
HETATM   35  C   UNK N   1      20.198  16.094   1.527  0.00  0.00     0.020 C 
BRANCH  33  36
HETATM   36  C   UNK N   1      19.638  13.730   1.978  0.00  0.00     0.022 C 
BRANCH  36  37
HETATM   37  C   UNK N   1      19.965  12.376   1.320  0.00  0.00    -0.050 C 
HETATM   38  C   UNK N   1      18.996  12.152   0.183  0.00  0.00     0.014 C 
HETATM   39  C   UNK N   1      21.373  12.266   0.752  0.00  0.00     0.014 C 
HETATM   40  C   UNK N   1      19.745  11.284   2.342  0.00  0.00     0.014 C 
ENDBRANCH  36  37
ENDBRANCH  33  36
ENDBRANCH   4  33
BRANCH   2  41
HETATM   41  C   UNK N   1      20.771  13.099   6.726  0.00  0.00     0.083 C 
BRANCH  41  42
HETATM   42  C   UNK N   1      21.760  11.931   6.774  0.00  0.00    -0.020 A 
HETATM   43  C   UNK N   1      21.750  10.986   5.720  0.00  0.00     0.018 A 
HETATM   44  C   UNK N   1      22.651   9.909   5.677  0.00  0.00    -0.050 A 
HETATM   45  C   UNK N   1      23.534   9.742   6.750  0.00  0.00     0.011 A 
HETATM   46  C   UNK N   1      23.537  10.636   7.819  0.00  0.00     0.038 A 
HETATM   47  C   UNK N   1      22.687  11.748   7.841  0.00  0.00     0.075 A 
BRANCH  44  48
HETATM   48  C   UNK N   1      22.759   8.980   4.467  0.00  0.00    -0.020 C 
HETATM   49  C   UNK N   1      23.911   8.019   4.739  0.00  0.00     0.020 C 
HETATM   50  C   UNK N   1      21.475   8.177   4.336  0.00  0.00     0.020 C 
BRANCH  48  51
HETATM   51  C   UNK N   1      22.988   9.737   3.134  0.00  0.00     0.022 C 
BRANCH  51  52
HETATM   52  C   UNK N   1      24.239  10.646   2.972  0.00  0.00    -0.050 C 
HETATM   53  C   UNK N   1      24.646  10.655   1.510  0.00  0.00     0.014 C 
HETATM   54  C   UNK N   1      25.431  10.156   3.767  0.00  0.00     0.014 C 
HETATM   55  C   UNK N   1      23.930  12.078   3.379  0.00  0.00     0.014 C 
ENDBRANCH  51  52
ENDBRANCH  48  51
ENDBRANCH  44  48
BRANCH  47  56
HETATM   56  O   UNK N   1      22.812  12.597   8.894  0.00  0.00    -0.348 OA
BRANCH  56  57
HETATM   57  C   UNK N   1      23.533  12.340  10.033  0.00  0.00     0.201 C 
BRANCH  57  58
HETATM   58  C   UNK N   1      24.860  13.066   9.990  0.00  0.00     0.190 C 
BRANCH  58  59
HETATM   59  O   UNK N   1      25.473  12.971  11.238  0.00  0.00    -0.399 OA
HETATM   60  H   UNK N   1      25.230  13.811  11.704  0.00  0.00     0.209 HD
ENDBRANCH  58  59
ENDBRANCH  57  58
ENDBRANCH  56  57
ENDBRANCH  47  56
ENDBRANCH  41  42
ENDBRANCH   2  41
TORSDOF 25
ENDMDL
