REMARK  2 active torsions:
REMARK  status: ('A' for Active; 'I' for Inactive)
REMARK    1  A    between atoms: O_1  and  C_17 
REMARK    2  A    between atoms: O_2  and  C_19 
ROOT
HETATM    1  N   UNK N   1       7.411  -1.813   0.354  0.00  0.00     0.093 N 
HETATM    2  C   UNK N   1       6.070  -1.168   0.362  0.00  0.00     0.261 C 
HETATM    3  C   UNK N   1       6.105   0.321   0.024  0.00  0.00    -0.007 A 
HETATM    4  C   UNK N   1       5.013  -1.825  -0.534  0.00  0.00     0.080 C 
HETATM    5  C   UNK N   1       7.327   1.001  -0.125  0.00  0.00    -0.047 A 
HETATM    6  C   UNK N   1       8.389  -1.164  -0.515  0.00  0.00     0.277 C 
HETATM    7  C   UNK N   1       8.614   0.257  -0.014  0.00  0.00     0.069 C 
HETATM    8  C   UNK N   1       4.887   1.016  -0.150  0.00  0.00    -0.014 A 
HETATM    9  C   UNK N   1       3.682  -1.164  -0.266  0.00  0.00    -0.042 A 
HETATM   10  C   UNK N   1       3.609   0.244  -0.112  0.00  0.00     0.017 A 
HETATM   11  C   UNK N   1       7.371  -3.238   0.045  0.00  0.00     0.310 C 
HETATM   12  C   UNK N   1       7.337   2.371  -0.396  0.00  0.00     0.008 A 
HETATM   13  C   UNK N   1       4.915   2.396  -0.406  0.00  0.00     0.013 A 
HETATM   14  C   UNK N   1       2.524  -1.940  -0.200  0.00  0.00     0.011 A 
HETATM   15  C   UNK N   1       2.344   0.849   0.066  0.00  0.00     0.110 A 
HETATM   16  C   UNK N   1       6.134   3.070  -0.519  0.00  0.00     0.001 A 
HETATM   17  C   UNK N   1       1.190   0.055   0.128  0.00  0.00     0.099 A 
HETATM   18  C   UNK N   1       1.284  -1.334   0.004  0.00  0.00     0.040 A 
ENDROOT
BRANCH  15  19
HETATM   19  O   UNK N   1       2.229   2.185   0.198  0.00  0.00    -0.357 OA
HETATM   20  H   UNK N   1       2.993   2.719   0.290  0.00  0.00     0.217 HD
ENDBRANCH  15  19
BRANCH  17  21
HETATM   21  O   UNK N   1      -0.013   0.622   0.316  0.00  0.00    -0.358 OA
HETATM   22  H   UNK N   1      -0.090   1.547   0.448  0.00  0.00     0.217 HD
ENDBRANCH  17  21
TORSDOF 2
