MODEL 1
REMARK VINA RESULT:      -7.4      0.000      0.000
REMARK  2 active torsions:
REMARK  status: ('A' for Active; 'I' for Inactive)
REMARK    1  A    between atoms: O_1  and  C_17 
REMARK    2  A    between atoms: O_2  and  C_19 
ROOT
HETATM    1  N   UNK N   1      28.162  22.949  -7.810  0.00  0.00     0.093 N 
HETATM    2  C   UNK N   1      28.995  22.761  -6.591  0.00  0.00     0.261 C 
HETATM    3  C   UNK N   1      28.343  23.293  -5.316  0.00  0.00    -0.007 A 
HETATM    4  C   UNK N   1      29.452  21.323  -6.316  0.00  0.00     0.080 C 
HETATM    5  C   UNK N   1      27.138  24.017  -5.367  0.00  0.00    -0.047 A 
HETATM    6  C   UNK N   1      26.726  23.015  -7.557  0.00  0.00     0.277 C 
HETATM    7  C   UNK N   1      26.445  24.223  -6.671  0.00  0.00     0.069 C 
HETATM    8  C   UNK N   1      28.961  23.042  -4.071  0.00  0.00    -0.014 A 
HETATM    9  C   UNK N   1      30.426  21.344  -5.162  0.00  0.00    -0.042 A 
HETATM   10  C   UNK N   1      30.169  22.164  -4.033  0.00  0.00     0.017 A 
HETATM   11  C   UNK N   1      28.418  21.958  -8.849  0.00  0.00     0.310 C 
HETATM   12  C   UNK N   1      26.579  24.528  -4.194  0.00  0.00     0.008 A 
HETATM   13  C   UNK N   1      28.394  23.577  -2.903  0.00  0.00     0.013 A 
HETATM   14  C   UNK N   1      31.560  20.533  -5.198  0.00  0.00     0.011 A 
HETATM   15  C   UNK N   1      31.056  22.114  -2.934  0.00  0.00     0.110 A 
HETATM   16  C   UNK N   1      27.215  24.324  -2.967  0.00  0.00     0.001 A 
HETATM   17  C   UNK N   1      32.190  21.292  -2.986  0.00  0.00     0.099 A 
HETATM   18  C   UNK N   1      32.444  20.512  -4.118  0.00  0.00     0.040 A 
ENDROOT
BRANCH  15  19
HETATM   19  O   UNK N   1      30.838  22.863  -1.835  0.00  0.00    -0.357 OA
HETATM   20  H   UNK N   1      30.576  22.460  -1.032  0.00  0.00     0.217 HD
ENDBRANCH  15  19
BRANCH  17  21
HETATM   21  O   UNK N   1      33.047  21.254  -1.952  0.00  0.00    -0.358 OA
HETATM   22  H   UNK N   1      33.848  21.741  -1.977  0.00  0.00     0.217 HD
ENDBRANCH  17  21
TORSDOF 2
ENDMDL
MODEL 2
REMARK VINA RESULT:      -7.0     12.357     13.912
REMARK  2 active torsions:
REMARK  status: ('A' for Active; 'I' for Inactive)
REMARK    1  A    between atoms: O_1  and  C_17 
REMARK    2  A    between atoms: O_2  and  C_19 
ROOT
HETATM    1  N   UNK N   1      32.446  14.765   4.527  0.00  0.00     0.093 N 
HETATM    2  C   UNK N   1      31.641  15.433   5.585  0.00  0.00     0.261 C 
HETATM    3  C   UNK N   1      32.457  16.365   6.478  0.00  0.00    -0.007 A 
HETATM    4  C   UNK N   1      30.416  16.212   5.092  0.00  0.00     0.080 C 
HETATM    5  C   UNK N   1      33.857  16.435   6.365  0.00  0.00    -0.047 A 
HETATM    6  C   UNK N   1      33.638  15.504   4.117  0.00  0.00     0.277 C 
HETATM    7  C   UNK N   1      34.562  15.638   5.321  0.00  0.00     0.069 C 
HETATM    8  C   UNK N   1      31.786  17.174   7.423  0.00  0.00    -0.014 A 
HETATM    9  C   UNK N   1      29.621  16.664   6.295  0.00  0.00    -0.042 A 
HETATM   10  C   UNK N   1      30.292  17.174   7.435  0.00  0.00     0.017 A 
HETATM   11  C   UNK N   1      31.674  14.412   3.341  0.00  0.00     0.310 C 
HETATM   12  C   UNK N   1      34.587  17.265   7.217  0.00  0.00     0.008 A 
HETATM   13  C   UNK N   1      32.537  17.990   8.283  0.00  0.00     0.013 A 
HETATM   14  C   UNK N   1      28.228  16.603   6.267  0.00  0.00     0.011 A 
HETATM   15  C   UNK N   1      29.527  17.658   8.521  0.00  0.00     0.110 A 
HETATM   16  C   UNK N   1      33.930  18.028   8.186  0.00  0.00     0.001 A 
HETATM   17  C   UNK N   1      28.127  17.592   8.476  0.00  0.00     0.099 A 
HETATM   18  C   UNK N   1      27.483  17.058   7.356  0.00  0.00     0.040 A 
ENDROOT
BRANCH  15  19
HETATM   19  O   UNK N   1      30.125  18.167   9.616  0.00  0.00    -0.357 OA
HETATM   20  H   UNK N   1      29.694  18.821  10.129  0.00  0.00     0.217 HD
ENDBRANCH  15  19
BRANCH  17  21
HETATM   21  O   UNK N   1      27.395  18.032   9.512  0.00  0.00    -0.358 OA
HETATM   22  H   UNK N   1      27.354  17.543  10.311  0.00  0.00     0.217 HD
ENDBRANCH  17  21
TORSDOF 2
ENDMDL
MODEL 3
REMARK VINA RESULT:      -6.8     22.751     25.460
REMARK  2 active torsions:
REMARK  status: ('A' for Active; 'I' for Inactive)
REMARK    1  A    between atoms: O_1  and  C_17 
REMARK    2  A    between atoms: O_2  and  C_19 
ROOT
HETATM    1  N   UNK N   1      34.902   8.839  18.947  0.00  0.00     0.093 N 
HETATM    2  C   UNK N   1      34.797   9.589  17.666  0.00  0.00     0.261 C 
HETATM    3  C   UNK N   1      35.016  11.092  17.817  0.00  0.00    -0.007 A 
HETATM    4  C   UNK N   1      35.706   9.096  16.533  0.00  0.00     0.080 C 
HETATM    5  C   UNK N   1      35.151  11.680  19.087  0.00  0.00    -0.047 A 
HETATM    6  C   UNK N   1      35.749   9.475  19.952  0.00  0.00     0.277 C 
HETATM    7  C   UNK N   1      35.144  10.827  20.309  0.00  0.00     0.069 C 
HETATM    8  C   UNK N   1      35.092  11.897  16.657  0.00  0.00    -0.014 A 
HETATM    9  C   UNK N   1      35.341   9.840  15.270  0.00  0.00    -0.042 A 
HETATM   10  C   UNK N   1      35.073  11.231  15.320  0.00  0.00     0.017 A 
HETATM   11  C   UNK N   1      35.322   7.452  18.778  0.00  0.00     0.310 C 
HETATM   12  C   UNK N   1      35.312  13.062  19.205  0.00  0.00     0.008 A 
HETATM   13  C   UNK N   1      35.238  13.286  16.795  0.00  0.00     0.013 A 
HETATM   14  C   UNK N   1      35.298   9.158  14.053  0.00  0.00     0.011 A 
HETATM   15  C   UNK N   1      34.804  11.921  14.116  0.00  0.00     0.110 A 
HETATM   16  C   UNK N   1      35.339  13.865  18.063  0.00  0.00     0.001 A 
HETATM   17  C   UNK N   1      34.767  11.222  12.901  0.00  0.00     0.099 A 
HETATM   18  C   UNK N   1      35.004   9.845  12.875  0.00  0.00     0.040 A 
ENDROOT
BRANCH  15  19
HETATM   19  O   UNK N   1      34.563  13.247  14.118  0.00  0.00    -0.357 OA
HETATM   20  H   UNK N   1      35.247  13.852  14.322  0.00  0.00     0.217 HD
ENDBRANCH  15  19
BRANCH  17  21
HETATM   21  O   UNK N   1      34.494  11.868  11.756  0.00  0.00    -0.358 OA
HETATM   22  H   UNK N   1      34.452  11.403  10.943  0.00  0.00     0.217 HD
ENDBRANCH  17  21
TORSDOF 2
ENDMDL
MODEL 4
REMARK VINA RESULT:      -6.8      1.520      3.655
REMARK  2 active torsions:
REMARK  status: ('A' for Active; 'I' for Inactive)
REMARK    1  A    between atoms: O_1  and  C_17 
REMARK    2  A    between atoms: O_2  and  C_19 
ROOT
HETATM    1  N   UNK N   1      26.845  23.114  -7.339  0.00  0.00     0.093 N 
HETATM    2  C   UNK N   1      27.903  22.589  -6.435  0.00  0.00     0.261 C 
HETATM    3  C   UNK N   1      28.693  21.424  -7.030  0.00  0.00    -0.007 A 
HETATM    4  C   UNK N   1      28.912  23.624  -5.923  0.00  0.00     0.080 C 
HETATM    5  C   UNK N   1      28.318  20.846  -8.255  0.00  0.00    -0.047 A 
HETATM    6  C   UNK N   1      27.105  22.905  -8.761  0.00  0.00     0.277 C 
HETATM    7  C   UNK N   1      27.171  21.406  -9.025  0.00  0.00     0.069 C 
HETATM    8  C   UNK N   1      29.823  20.934  -6.336  0.00  0.00    -0.014 A 
HETATM    9  C   UNK N   1      29.791  22.963  -4.888  0.00  0.00    -0.042 A 
HETATM   10  C   UNK N   1      30.274  21.648  -5.104  0.00  0.00     0.017 A 
HETATM   11  C   UNK N   1      26.532  24.521  -7.114  0.00  0.00     0.310 C 
HETATM   12  C   UNK N   1      29.030  19.757  -8.762  0.00  0.00     0.008 A 
HETATM   13  C   UNK N   1      30.518  19.829  -6.852  0.00  0.00     0.013 A 
HETATM   14  C   UNK N   1      30.148  23.663  -3.734  0.00  0.00     0.011 A 
HETATM   15  C   UNK N   1      31.153  21.076  -4.156  0.00  0.00     0.110 A 
HETATM   16  C   UNK N   1      30.117  19.239  -8.054  0.00  0.00     0.001 A 
HETATM   17  C   UNK N   1      31.503  21.793  -3.004  0.00  0.00     0.099 A 
HETATM   18  C   UNK N   1      30.994  23.078  -2.792  0.00  0.00     0.040 A 
ENDROOT
BRANCH  15  19
HETATM   19  O   UNK N   1      31.648  19.835  -4.333  0.00  0.00    -0.357 OA
HETATM   20  H   UNK N   1      31.972  19.346  -3.603  0.00  0.00     0.217 HD
ENDBRANCH  15  19
BRANCH  17  21
HETATM   21  O   UNK N   1      32.323  21.248  -2.090  0.00  0.00    -0.358 OA
HETATM   22  H   UNK N   1      32.591  21.737  -1.336  0.00  0.00     0.217 HD
ENDBRANCH  17  21
TORSDOF 2
ENDMDL
MODEL 5
REMARK VINA RESULT:      -6.7     21.912     24.694
REMARK  2 active torsions:
REMARK  status: ('A' for Active; 'I' for Inactive)
REMARK    1  A    between atoms: O_1  and  C_17 
REMARK    2  A    between atoms: O_2  and  C_19 
ROOT
HETATM    1  N   UNK N   1      35.749   8.882  17.286  0.00  0.00     0.093 N 
HETATM    2  C   UNK N   1      35.914   9.971  16.286  0.00  0.00     0.261 C 
HETATM    3  C   UNK N   1      35.737  11.371  16.870  0.00  0.00    -0.007 A 
HETATM    4  C   UNK N   1      37.231   9.956  15.500  0.00  0.00     0.080 C 
HETATM    5  C   UNK N   1      35.313  11.552  18.199  0.00  0.00    -0.047 A 
HETATM    6  C   UNK N   1      36.055   9.271  18.660  0.00  0.00     0.277 C 
HETATM    7  C   UNK N   1      35.087  10.370  19.079  0.00  0.00     0.069 C 
HETATM    8  C   UNK N   1      36.016  12.495  16.061  0.00  0.00    -0.014 A 
HETATM    9  C   UNK N   1      37.152  11.004  14.416  0.00  0.00    -0.042 A 
HETATM   10  C   UNK N   1      36.586  12.273  14.698  0.00  0.00     0.017 A 
HETATM   11  C   UNK N   1      36.493   7.670  16.957  0.00  0.00     0.310 C 
HETATM   12  C   UNK N   1      35.120  12.841  18.702  0.00  0.00     0.008 A 
HETATM   13  C   UNK N   1      35.802  13.782  16.577  0.00  0.00     0.013 A 
HETATM   14  C   UNK N   1      37.664  10.728  13.147  0.00  0.00     0.011 A 
HETATM   15  C   UNK N   1      36.588  13.264  13.689  0.00  0.00     0.110 A 
HETATM   16  C   UNK N   1      35.348  13.952  17.888  0.00  0.00     0.001 A 
HETATM   17  C   UNK N   1      37.108  12.971  12.420  0.00  0.00     0.099 A 
HETATM   18  C   UNK N   1      37.635  11.705  12.151  0.00  0.00     0.040 A 
ENDROOT
BRANCH  15  19
HETATM   19  O   UNK N   1      36.076  14.488  13.922  0.00  0.00    -0.357 OA
HETATM   20  H   UNK N   1      35.242  14.582  14.338  0.00  0.00     0.217 HD
ENDBRANCH  15  19
BRANCH  17  21
HETATM   21  O   UNK N   1      37.095  13.901  11.452  0.00  0.00    -0.358 OA
HETATM   22  H   UNK N   1      37.423  14.765  11.614  0.00  0.00     0.217 HD
ENDBRANCH  17  21
TORSDOF 2
ENDMDL
MODEL 6
REMARK VINA RESULT:      -6.7     22.048     24.720
REMARK  2 active torsions:
REMARK  status: ('A' for Active; 'I' for Inactive)
REMARK    1  A    between atoms: O_1  and  C_17 
REMARK    2  A    between atoms: O_2  and  C_19 
ROOT
HETATM    1  N   UNK N   1      34.740  11.730  12.822  0.00  0.00     0.093 N 
HETATM    2  C   UNK N   1      34.792  11.734  14.309  0.00  0.00     0.261 C 
HETATM    3  C   UNK N   1      35.194  10.390  14.911  0.00  0.00    -0.007 A 
HETATM    4  C   UNK N   1      35.684  12.812  14.938  0.00  0.00     0.080 C 
HETATM    5  C   UNK N   1      35.344   9.249  14.101  0.00  0.00    -0.047 A 
HETATM    6  C   UNK N   1      35.613  10.745  12.189  0.00  0.00     0.277 C 
HETATM    7  C   UNK N   1      35.170   9.354  12.625  0.00  0.00     0.069 C 
HETATM    8  C   UNK N   1      35.427  10.301  16.302  0.00  0.00    -0.014 A 
HETATM    9  C   UNK N   1      35.476  12.790  16.434  0.00  0.00    -0.042 A 
HETATM   10  C   UNK N   1      35.386  11.551  17.118  0.00  0.00     0.017 A 
HETATM   11  C   UNK N   1      34.988  13.038  12.226  0.00  0.00     0.310 C 
HETATM   12  C   UNK N   1      35.674   8.021  14.677  0.00  0.00     0.008 A 
HETATM   13  C   UNK N   1      35.742   9.054  16.867  0.00  0.00     0.013 A 
HETATM   14  C   UNK N   1      35.404  13.991  17.141  0.00  0.00     0.011 A 
HETATM   15  C   UNK N   1      35.264  11.553  18.526  0.00  0.00     0.110 A 
HETATM   16  C   UNK N   1      35.856   7.920  16.058  0.00  0.00     0.001 A 
HETATM   17  C   UNK N   1      35.195  12.769  19.221  0.00  0.00     0.099 A 
HETATM   18  C   UNK N   1      35.256  13.981  18.528  0.00  0.00     0.040 A 
ENDROOT
BRANCH  15  19
HETATM   19  O   UNK N   1      35.193  10.398  19.216  0.00  0.00    -0.357 OA
HETATM   20  H   UNK N   1      34.428   9.860  19.161  0.00  0.00     0.217 HD
ENDBRANCH  15  19
BRANCH  17  21
HETATM   21  O   UNK N   1      35.060  12.778  20.558  0.00  0.00    -0.358 OA
HETATM   22  H   UNK N   1      34.333  12.352  20.968  0.00  0.00     0.217 HD
ENDBRANCH  17  21
TORSDOF 2
ENDMDL
MODEL 7
REMARK VINA RESULT:      -6.7     22.621     25.281
REMARK  2 active torsions:
REMARK  status: ('A' for Active; 'I' for Inactive)
REMARK    1  A    between atoms: O_1  and  C_17 
REMARK    2  A    between atoms: O_2  and  C_19 
ROOT
HETATM    1  N   UNK N   1      37.354   8.978  14.924  0.00  0.00     0.093 N 
HETATM    2  C   UNK N   1      36.892   9.988  15.914  0.00  0.00     0.261 C 
HETATM    3  C   UNK N   1      36.602  11.357  15.303  0.00  0.00    -0.007 A 
HETATM    4  C   UNK N   1      35.673   9.584  16.754  0.00  0.00     0.080 C 
HETATM    5  C   UNK N   1      36.902  11.626  13.955  0.00  0.00    -0.047 A 
HETATM    6  C   UNK N   1      36.894   9.216  13.558  0.00  0.00     0.277 C 
HETATM    7  C   UNK N   1      37.455  10.550  13.084  0.00  0.00     0.069 C 
HETATM    8  C   UNK N   1      36.014  12.359  16.107  0.00  0.00    -0.014 A 
HETATM    9  C   UNK N   1      35.458  10.633  17.819  0.00  0.00    -0.042 A 
HETATM   10  C   UNK N   1      35.589  12.008  17.495  0.00  0.00     0.017 A 
HETATM   11  C   UNK N   1      37.038   7.605  15.301  0.00  0.00     0.310 C 
HETATM   12  C   UNK N   1      36.664  12.896  13.426  0.00  0.00     0.008 A 
HETATM   13  C   UNK N   1      35.797  13.635  15.563  0.00  0.00     0.013 A 
HETATM   14  C   UNK N   1      35.103  10.246  19.111  0.00  0.00     0.011 A 
HETATM   15  C   UNK N   1      35.313  12.975  18.488  0.00  0.00     0.110 A 
HETATM   16  C   UNK N   1      36.129  13.903  14.233  0.00  0.00     0.001 A 
HETATM   17  C   UNK N   1      34.955  12.569  19.781  0.00  0.00     0.099 A 
HETATM   18  C   UNK N   1      34.860  11.209  20.091  0.00  0.00     0.040 A 
ENDROOT
BRANCH  15  19
HETATM   19  O   UNK N   1      35.408  14.291  18.217  0.00  0.00    -0.357 OA
HETATM   20  H   UNK N   1      35.546  14.908  18.908  0.00  0.00     0.217 HD
ENDBRANCH  15  19
BRANCH  17  21
HETATM   21  O   UNK N   1      34.709  13.482  20.735  0.00  0.00    -0.358 OA
HETATM   22  H   UNK N   1      35.415  13.908  21.182  0.00  0.00     0.217 HD
ENDBRANCH  17  21
TORSDOF 2
ENDMDL
MODEL 8
REMARK VINA RESULT:      -6.7     10.867     12.887
REMARK  2 active torsions:
REMARK  status: ('A' for Active; 'I' for Inactive)
REMARK    1  A    between atoms: O_1  and  C_17 
REMARK    2  A    between atoms: O_2  and  C_19 
ROOT
HETATM    1  N   UNK N   1      23.532  15.645   6.147  0.00  0.00     0.093 N 
HETATM    2  C   UNK N   1      23.209  16.883   5.387  0.00  0.00     0.261 C 
HETATM    3  C   UNK N   1      24.439  17.603   4.839  0.00  0.00    -0.007 A 
HETATM    4  C   UNK N   1      22.215  16.712   4.232  0.00  0.00     0.080 C 
HETATM    5  C   UNK N   1      25.737  17.178   5.175  0.00  0.00    -0.047 A 
HETATM    6  C   UNK N   1      24.784  15.004   5.755  0.00  0.00     0.277 C 
HETATM    7  C   UNK N   1      25.929  15.971   6.029  0.00  0.00     0.069 C 
HETATM    8  C   UNK N   1      24.262  18.706   3.973  0.00  0.00    -0.014 A 
HETATM    9  C   UNK N   1      21.865  18.080   3.697  0.00  0.00    -0.042 A 
HETATM   10  C   UNK N   1      22.879  19.057   3.532  0.00  0.00     0.017 A 
HETATM   11  C   UNK N   1      22.463  14.653   6.128  0.00  0.00     0.310 C 
HETATM   12  C   UNK N   1      26.848  17.873   4.693  0.00  0.00     0.008 A 
HETATM   13  C   UNK N   1      25.390  19.404   3.512  0.00  0.00     0.013 A 
HETATM   14  C   UNK N   1      20.547  18.366   3.339  0.00  0.00     0.011 A 
HETATM   15  C   UNK N   1      22.542  20.306   2.962  0.00  0.00     0.110 A 
HETATM   16  C   UNK N   1      26.674  18.994   3.878  0.00  0.00     0.001 A 
HETATM   17  C   UNK N   1      21.213  20.577   2.606  0.00  0.00     0.099 A 
HETATM   18  C   UNK N   1      20.221  19.613   2.802  0.00  0.00     0.040 A 
ENDROOT
BRANCH  15  19
HETATM   19  O   UNK N   1      23.479  21.255   2.772  0.00  0.00    -0.357 OA
HETATM   20  H   UNK N   1      24.389  21.037   2.816  0.00  0.00     0.217 HD
ENDBRANCH  15  19
BRANCH  17  21
HETATM   21  O   UNK N   1      20.882  21.768   2.081  0.00  0.00    -0.358 OA
HETATM   22  H   UNK N   1      20.615  21.838   1.185  0.00  0.00     0.217 HD
ENDBRANCH  17  21
TORSDOF 2
ENDMDL
MODEL 9
REMARK VINA RESULT:      -6.6     10.997     13.174
REMARK  2 active torsions:
REMARK  status: ('A' for Active; 'I' for Inactive)
REMARK    1  A    between atoms: O_1  and  C_17 
REMARK    2  A    between atoms: O_2  and  C_19 
ROOT
HETATM    1  N   UNK N   1      32.816  16.639   6.365  0.00  0.00     0.093 N 
HETATM    2  C   UNK N   1      31.360  16.596   6.061  0.00  0.00     0.261 C 
HETATM    3  C   UNK N   1      30.497  17.307   7.101  0.00  0.00    -0.007 A 
HETATM    4  C   UNK N   1      30.955  17.124   4.680  0.00  0.00     0.080 C 
HETATM    5  C   UNK N   1      31.059  17.807   8.289  0.00  0.00    -0.047 A 
HETATM    6  C   UNK N   1      33.232  17.783   7.173  0.00  0.00     0.277 C 
HETATM    7  C   UNK N   1      32.528  17.703   8.522  0.00  0.00     0.069 C 
HETATM    8  C   UNK N   1      29.115  17.469   6.854  0.00  0.00    -0.014 A 
HETATM    9  C   UNK N   1      29.487  16.838   4.471  0.00  0.00    -0.042 A 
HETATM   10  C   UNK N   1      28.568  17.042   5.531  0.00  0.00     0.017 A 
HETATM   11  C   UNK N   1      33.662  16.562   5.179  0.00  0.00     0.310 C 
HETATM   12  C   UNK N   1      30.245  18.420   9.245  0.00  0.00     0.008 A 
HETATM   13  C   UNK N   1      28.309  18.072   7.832  0.00  0.00     0.013 A 
HETATM   14  C   UNK N   1      29.037  16.402   3.224  0.00  0.00     0.011 A 
HETATM   15  C   UNK N   1      27.190  16.838   5.293  0.00  0.00     0.110 A 
HETATM   16  C   UNK N   1      28.871  18.536   9.025  0.00  0.00     0.001 A 
HETATM   17  C   UNK N   1      26.754  16.401   4.033  0.00  0.00     0.099 A 
HETATM   18  C   UNK N   1      27.677  16.176   3.008  0.00  0.00     0.040 A 
ENDROOT
BRANCH  15  19
HETATM   19  O   UNK N   1      26.282  17.038   6.268  0.00  0.00    -0.357 OA
HETATM   20  H   UNK N   1      26.561  17.215   7.145  0.00  0.00     0.217 HD
ENDBRANCH  15  19
BRANCH  17  21
HETATM   21  O   UNK N   1      25.448  16.187   3.806  0.00  0.00    -0.358 OA
HETATM   22  H   UNK N   1      25.091  15.321   3.849  0.00  0.00     0.217 HD
ENDBRANCH  17  21
TORSDOF 2
ENDMDL
