MODEL 1
REMARK VINA RESULT:      -7.5      0.000      0.000
REMARK  4 active torsions:
REMARK  status: ('A' for Active; 'I' for Inactive)
REMARK    1  A    between atoms: O_2  and  C_11 
REMARK    2  A    between atoms: O_2  and  C_17 
REMARK    3  A    between atoms: C_6  and  C_12 
REMARK    4  A    between atoms: C_7  and  C_11 
ROOT
HETATM    1  N   UNK N   1      25.706  27.692  -3.271  0.00  0.00    -0.421 N 
HETATM    2  C   UNK N   1      26.239  26.069  -5.641  0.00  0.00     0.028 C 
HETATM    3  C   UNK N   1      26.916  25.786  -4.262  0.00  0.00     0.036 C 
HETATM    4  C   UNK N   1      24.946  26.878  -5.428  0.00  0.00     0.029 C 
HETATM    5  C   UNK N   1      27.020  27.089  -3.462  0.00  0.00     0.121 C 
HETATM    6  C   UNK N   1      25.213  28.109  -4.576  0.00  0.00     0.114 C 
HETATM    7  H   UNK N   1      25.220  27.804  -2.381  0.00  0.00     0.153 HD
ENDROOT
BRANCH   3   8
HETATM    8  C   UNK N   1      28.339  25.224  -4.310  0.00  0.00     0.182 C 
BRANCH   8   9
HETATM    9  O   UNK N   1      28.423  24.002  -3.689  0.00  0.00    -0.351 OA
BRANCH   9  10
HETATM   10  C   UNK N   1      29.478  23.166  -3.803  0.00  0.00     0.071 A 
HETATM   11  C   UNK N   1      30.400  22.973  -2.745  0.00  0.00     0.076 A 
HETATM   12  C   UNK N   1      31.445  22.076  -2.955  0.00  0.00     0.107 A 
HETATM   13  O   UNK N   1      32.416  21.720  -2.114  0.00  0.00    -0.323 OA
HETATM   14  C   UNK N   1      31.604  21.417  -4.110  0.00  0.00     0.105 A 
HETATM   15  C   UNK N   1      33.238  20.787  -2.756  0.00  0.00     0.352 A 
HETATM   16  O   UNK N   1      32.676  20.635  -4.029  0.00  0.00    -0.323 OA
HETATM   17  C   UNK N   1      30.732  21.575  -5.181  0.00  0.00     0.042 A 
HETATM   18  C   UNK N   1      29.651  22.458  -5.016  0.00  0.00     0.039 A 
ENDBRANCH   9  10
ENDBRANCH   8   9
ENDBRANCH   3   8
BRANCH   2  19
HETATM   19  C   UNK N   1      25.951  24.831  -6.482  0.00  0.00    -0.053 A 
HETATM   20  C   UNK N   1      25.779  24.943  -7.868  0.00  0.00     0.010 A 
HETATM   21  C   UNK N   1      25.502  23.816  -8.649  0.00  0.00     0.043 A 
HETATM   22  C   UNK N   1      25.371  22.564  -8.047  0.00  0.00     0.116 A 
HETATM   23  F   UNK N   1      25.106  21.472  -8.803  0.00  0.00    -0.206 F 
HETATM   24  C   UNK N   1      25.507  22.439  -6.664  0.00  0.00     0.043 A 
HETATM   25  C   UNK N   1      25.792  23.564  -5.885  0.00  0.00     0.010 A 
ENDBRANCH   2  19
TORSDOF 4
ENDMDL
MODEL 2
REMARK VINA RESULT:      -7.4     11.154     12.796
REMARK  4 active torsions:
REMARK  status: ('A' for Active; 'I' for Inactive)
REMARK    1  A    between atoms: O_2  and  C_11 
REMARK    2  A    between atoms: O_2  and  C_17 
REMARK    3  A    between atoms: C_6  and  C_12 
REMARK    4  A    between atoms: C_7  and  C_11 
ROOT
HETATM    1  N   UNK N   1      26.146  14.757   2.683  0.00  0.00    -0.421 N 
HETATM    2  C   UNK N   1      27.084  16.771   4.581  0.00  0.00     0.028 C 
HETATM    3  C   UNK N   1      27.873  16.412   3.281  0.00  0.00     0.036 C 
HETATM    4  C   UNK N   1      25.607  16.366   4.418  0.00  0.00     0.029 C 
HETATM    5  C   UNK N   1      27.576  14.963   2.882  0.00  0.00     0.121 C 
HETATM    6  C   UNK N   1      25.489  14.918   3.972  0.00  0.00     0.114 C 
HETATM    7  H   UNK N   1      25.688  14.539   1.798  0.00  0.00     0.153 HD
ENDROOT
BRANCH   3   8
HETATM    8  C   UNK N   1      29.398  16.505   3.370  0.00  0.00     0.182 C 
BRANCH   8   9
HETATM    9  O   UNK N   1      29.851  16.213   4.633  0.00  0.00    -0.351 OA
BRANCH   9  10
HETATM   10  C   UNK N   1      31.004  16.689   5.153  0.00  0.00     0.071 A 
HETATM   11  C   UNK N   1      31.181  16.866   6.548  0.00  0.00     0.076 A 
HETATM   12  C   UNK N   1      32.413  17.348   6.985  0.00  0.00     0.107 A 
HETATM   13  O   UNK N   1      32.819  17.577   8.234  0.00  0.00    -0.323 OA
HETATM   14  C   UNK N   1      33.406  17.653   6.140  0.00  0.00     0.105 A 
HETATM   15  C   UNK N   1      34.134  18.052   8.192  0.00  0.00     0.352 A 
HETATM   16  O   UNK N   1      34.457  18.085   6.831  0.00  0.00    -0.323 OA
HETATM   17  C   UNK N   1      33.281  17.505   4.763  0.00  0.00     0.042 A 
HETATM   18  C   UNK N   1      32.062  17.009   4.270  0.00  0.00     0.039 A 
ENDBRANCH   9  10
ENDBRANCH   8   9
ENDBRANCH   3   8
BRANCH   2  19
HETATM   19  C   UNK N   1      27.184  18.230   5.012  0.00  0.00    -0.053 A 
HETATM   20  C   UNK N   1      27.666  18.558   6.286  0.00  0.00     0.010 A 
HETATM   21  C   UNK N   1      27.751  19.892   6.697  0.00  0.00     0.043 A 
HETATM   22  C   UNK N   1      27.331  20.914   5.845  0.00  0.00     0.116 A 
HETATM   23  F   UNK N   1      27.417  22.207   6.242  0.00  0.00    -0.206 F 
HETATM   24  C   UNK N   1      26.818  20.604   4.585  0.00  0.00     0.043 A 
HETATM   25  C   UNK N   1      26.741  19.271   4.171  0.00  0.00     0.010 A 
ENDBRANCH   2  19
TORSDOF 4
ENDMDL
MODEL 3
REMARK VINA RESULT:      -7.4     11.697     14.146
REMARK  4 active torsions:
REMARK  status: ('A' for Active; 'I' for Inactive)
REMARK    1  A    between atoms: O_2  and  C_11 
REMARK    2  A    between atoms: O_2  and  C_17 
REMARK    3  A    between atoms: C_6  and  C_12 
REMARK    4  A    between atoms: C_7  and  C_11 
ROOT
HETATM    1  N   UNK N   1      29.780  14.947   2.816  0.00  0.00    -0.421 N 
HETATM    2  C   UNK N   1      29.097  16.748   5.013  0.00  0.00     0.028 C 
HETATM    3  C   UNK N   1      30.451  16.845   4.240  0.00  0.00     0.036 C 
HETATM    4  C   UNK N   1      28.054  16.020   4.144  0.00  0.00     0.029 C 
HETATM    5  C   UNK N   1      30.828  15.467   3.687  0.00  0.00     0.121 C 
HETATM    6  C   UNK N   1      28.603  14.697   3.636  0.00  0.00     0.114 C 
HETATM    7  H   UNK N   1      29.858  14.786   1.812  0.00  0.00     0.153 HD
ENDROOT
BRANCH   3   8
HETATM    8  C   UNK N   1      31.663  17.301   5.055  0.00  0.00     0.182 C 
BRANCH   8   9
HETATM    9  O   UNK N   1      31.918  16.452   6.104  0.00  0.00    -0.351 OA
BRANCH   9  10
HETATM   10  C   UNK N   1      32.787  16.721   7.103  0.00  0.00     0.071 A 
HETATM   11  C   UNK N   1      32.985  15.830   8.186  0.00  0.00     0.076 A 
HETATM   12  C   UNK N   1      33.915  16.192   9.158  0.00  0.00     0.107 A 
HETATM   13  O   UNK N   1      34.283  15.517  10.247  0.00  0.00    -0.323 OA
HETATM   14  C   UNK N   1      34.602  17.340   9.102  0.00  0.00     0.105 A 
HETATM   15  C   UNK N   1      35.252  16.266  10.925  0.00  0.00     0.352 A 
HETATM   16  O   UNK N   1      35.413  17.421  10.152  0.00  0.00    -0.323 OA
HETATM   17  C   UNK N   1      34.441  18.252   8.065  0.00  0.00     0.042 A 
HETATM   18  C   UNK N   1      33.523  17.928   7.051  0.00  0.00     0.039 A 
ENDBRANCH   9  10
ENDBRANCH   8   9
ENDBRANCH   3   8
BRANCH   2  19
HETATM   19  C   UNK N   1      28.537  18.080   5.500  0.00  0.00    -0.053 A 
HETATM   20  C   UNK N   1      28.187  19.077   4.580  0.00  0.00     0.010 A 
HETATM   21  C   UNK N   1      27.683  20.307   5.015  0.00  0.00     0.043 A 
HETATM   22  C   UNK N   1      27.546  20.563   6.380  0.00  0.00     0.116 A 
HETATM   23  F   UNK N   1      27.056  21.753   6.801  0.00  0.00    -0.206 F 
HETATM   24  C   UNK N   1      27.921  19.593   7.311  0.00  0.00     0.043 A 
HETATM   25  C   UNK N   1      28.415  18.360   6.876  0.00  0.00     0.010 A 
ENDBRANCH   2  19
TORSDOF 4
ENDMDL
MODEL 4
REMARK VINA RESULT:      -7.4      2.857      4.407
REMARK  4 active torsions:
REMARK  status: ('A' for Active; 'I' for Inactive)
REMARK    1  A    between atoms: O_2  and  C_11 
REMARK    2  A    between atoms: O_2  and  C_17 
REMARK    3  A    between atoms: C_6  and  C_12 
REMARK    4  A    between atoms: C_7  and  C_11 
ROOT
HETATM    1  N   UNK N   1      26.616  23.945  -9.322  0.00  0.00    -0.421 N 
HETATM    2  C   UNK N   1      25.811  25.714  -7.141  0.00  0.00     0.028 C 
HETATM    3  C   UNK N   1      26.812  24.532  -6.936  0.00  0.00     0.036 C 
HETATM    4  C   UNK N   1      25.781  26.116  -8.627  0.00  0.00     0.029 C 
HETATM    5  C   UNK N   1      26.524  23.431  -7.961  0.00  0.00     0.121 C 
HETATM    6  C   UNK N   1      25.536  24.904  -9.510  0.00  0.00     0.114 C 
HETATM    7  H   UNK N   1      27.312  23.681 -10.020  0.00  0.00     0.153 HD
ENDROOT
BRANCH   3   8
HETATM    8  C   UNK N   1      26.768  23.839  -5.572  0.00  0.00     0.182 C 
BRANCH   8   9
HETATM    9  O   UNK N   1      27.626  24.428  -4.676  0.00  0.00    -0.351 OA
BRANCH   9  10
HETATM   10  C   UNK N   1      28.635  23.779  -4.054  0.00  0.00     0.071 A 
HETATM   11  C   UNK N   1      29.775  23.316  -4.756  0.00  0.00     0.076 A 
HETATM   12  C   UNK N   1      30.768  22.673  -4.020  0.00  0.00     0.107 A 
HETATM   13  O   UNK N   1      31.927  22.172  -4.449  0.00  0.00    -0.323 OA
HETATM   14  C   UNK N   1      30.669  22.475  -2.700  0.00  0.00     0.105 A 
HETATM   15  C   UNK N   1      32.605  21.625  -3.354  0.00  0.00     0.352 A 
HETATM   16  O   UNK N   1      31.755  21.842  -2.265  0.00  0.00    -0.323 OA
HETATM   17  C   UNK N   1      29.569  22.903  -1.965  0.00  0.00     0.042 A 
HETATM   18  C   UNK N   1      28.544  23.570  -2.657  0.00  0.00     0.039 A 
ENDBRANCH   9  10
ENDBRANCH   8   9
ENDBRANCH   3   8
BRANCH   2  19
HETATM   19  C   UNK N   1      26.075  26.938  -6.271  0.00  0.00    -0.053 A 
HETATM   20  C   UNK N   1      27.136  27.803  -6.572  0.00  0.00     0.010 A 
HETATM   21  C   UNK N   1      27.394  28.922  -5.775  0.00  0.00     0.043 A 
HETATM   22  C   UNK N   1      26.608  29.177  -4.650  0.00  0.00     0.116 A 
HETATM   23  F   UNK N   1      26.857  30.263  -3.880  0.00  0.00    -0.206 F 
HETATM   24  C   UNK N   1      25.567  28.309  -4.317  0.00  0.00     0.043 A 
HETATM   25  C   UNK N   1      25.303  27.195  -5.120  0.00  0.00     0.010 A 
ENDBRANCH   2  19
TORSDOF 4
ENDMDL
MODEL 5
REMARK VINA RESULT:      -7.3     18.210     22.670
REMARK  4 active torsions:
REMARK  status: ('A' for Active; 'I' for Inactive)
REMARK    1  A    between atoms: O_2  and  C_11 
REMARK    2  A    between atoms: O_2  and  C_17 
REMARK    3  A    between atoms: C_6  and  C_12 
REMARK    4  A    between atoms: C_7  and  C_11 
ROOT
HETATM    1  N   UNK N   1      36.426  10.476  12.649  0.00  0.00    -0.421 N 
HETATM    2  C   UNK N   1      36.935  12.826  14.308  0.00  0.00     0.028 C 
HETATM    3  C   UNK N   1      35.813  12.794  13.222  0.00  0.00     0.036 C 
HETATM    4  C   UNK N   1      37.295  11.388  14.724  0.00  0.00     0.029 C 
HETATM    5  C   UNK N   1      36.200  11.812  12.111  0.00  0.00     0.121 C 
HETATM    6  C   UNK N   1      37.603  10.533  13.505  0.00  0.00     0.114 C 
HETATM    7  H   UNK N   1      35.862   9.647  12.459  0.00  0.00     0.153 HD
ENDROOT
BRANCH   3   8
HETATM    8  C   UNK N   1      35.523  14.118  12.511  0.00  0.00     0.182 C 
BRANCH   8   9
HETATM    9  O   UNK N   1      34.505  13.991  11.598  0.00  0.00    -0.351 OA
BRANCH   9  10
HETATM   10  C   UNK N   1      34.195  14.926  10.673  0.00  0.00     0.071 A 
HETATM   11  C   UNK N   1      35.007  16.067  10.459  0.00  0.00     0.076 A 
HETATM   12  C   UNK N   1      34.610  16.965   9.470  0.00  0.00     0.107 A 
HETATM   13  O   UNK N   1      35.212  18.087   9.077  0.00  0.00    -0.323 OA
HETATM   14  C   UNK N   1      33.499  16.787   8.744  0.00  0.00     0.105 A 
HETATM   15  C   UNK N   1      34.453  18.660   8.050  0.00  0.00     0.352 A 
HETATM   16  O   UNK N   1      33.370  17.791   7.882  0.00  0.00    -0.323 OA
HETATM   17  C   UNK N   1      32.664  15.689   8.919  0.00  0.00     0.042 A 
HETATM   18  C   UNK N   1      33.027  14.745   9.895  0.00  0.00     0.039 A 
ENDBRANCH   9  10
ENDBRANCH   8   9
ENDBRANCH   3   8
BRANCH   2  19
HETATM   19  C   UNK N   1      36.613  13.664  15.541  0.00  0.00    -0.053 A 
HETATM   20  C   UNK N   1      35.629  13.242  16.445  0.00  0.00     0.010 A 
HETATM   21  C   UNK N   1      35.317  14.007  17.572  0.00  0.00     0.043 A 
HETATM   22  C   UNK N   1      35.971  15.220  17.797  0.00  0.00     0.116 A 
HETATM   23  F   UNK N   1      35.671  15.960  18.891  0.00  0.00    -0.206 F 
HETATM   24  C   UNK N   1      36.931  15.672  16.890  0.00  0.00     0.043 A 
HETATM   25  C   UNK N   1      37.249  14.901  15.768  0.00  0.00     0.010 A 
ENDBRANCH   2  19
TORSDOF 4
ENDMDL
MODEL 6
REMARK VINA RESULT:      -7.2     19.908     24.343
REMARK  4 active torsions:
REMARK  status: ('A' for Active; 'I' for Inactive)
REMARK    1  A    between atoms: O_2  and  C_11 
REMARK    2  A    between atoms: O_2  and  C_17 
REMARK    3  A    between atoms: C_6  and  C_12 
REMARK    4  A    between atoms: C_7  and  C_11 
ROOT
HETATM    1  N   UNK N   1      36.692   8.452  13.461  0.00  0.00    -0.421 N 
HETATM    2  C   UNK N   1      36.477  10.879  15.073  0.00  0.00     0.028 C 
HETATM    3  C   UNK N   1      35.331  10.397  14.127  0.00  0.00     0.036 C 
HETATM    4  C   UNK N   1      37.390   9.692  15.428  0.00  0.00     0.029 C 
HETATM    5  C   UNK N   1      35.925   9.590  12.968  0.00  0.00     0.121 C 
HETATM    6  C   UNK N   1      37.852   8.970  14.172  0.00  0.00     0.114 C 
HETATM    7  H   UNK N   1      36.458   7.467  13.331  0.00  0.00     0.153 HD
ENDROOT
BRANCH   3   8
HETATM    8  C   UNK N   1      34.491  11.494  13.469  0.00  0.00     0.182 C 
BRANCH   8   9
HETATM    9  O   UNK N   1      35.040  11.909  12.280  0.00  0.00    -0.351 OA
BRANCH   9  10
HETATM   10  C   UNK N   1      35.147  13.203  11.906  0.00  0.00     0.071 A 
HETATM   11  C   UNK N   1      34.616  13.677  10.681  0.00  0.00     0.076 A 
HETATM   12  C   UNK N   1      34.765  15.032  10.395  0.00  0.00     0.107 A 
HETATM   13  O   UNK N   1      34.339  15.707   9.327  0.00  0.00    -0.323 OA
HETATM   14  C   UNK N   1      35.394  15.876  11.222  0.00  0.00     0.105 A 
HETATM   15  C   UNK N   1      34.711  17.047   9.473  0.00  0.00     0.352 A 
HETATM   16  O   UNK N   1      35.385  17.098  10.698  0.00  0.00    -0.323 OA
HETATM   17  C   UNK N   1      35.939  15.461  12.433  0.00  0.00     0.042 A 
HETATM   18  C   UNK N   1      35.803  14.105  12.776  0.00  0.00     0.039 A 
ENDBRANCH   9  10
ENDBRANCH   8   9
ENDBRANCH   3   8
BRANCH   2  19
HETATM   19  C   UNK N   1      36.010  11.581  16.343  0.00  0.00    -0.053 A 
HETATM   20  C   UNK N   1      35.821  10.851  17.525  0.00  0.00     0.010 A 
HETATM   21  C   UNK N   1      35.382  11.481  18.693  0.00  0.00     0.043 A 
HETATM   22  C   UNK N   1      35.102  12.848  18.687  0.00  0.00     0.116 A 
HETATM   23  F   UNK N   1      34.679  13.459  19.820  0.00  0.00    -0.206 F 
HETATM   24  C   UNK N   1      35.252  13.584  17.511  0.00  0.00     0.043 A 
HETATM   25  C   UNK N   1      35.701  12.956  16.345  0.00  0.00     0.010 A 
ENDBRANCH   2  19
TORSDOF 4
ENDMDL
MODEL 7
REMARK VINA RESULT:      -6.9      3.867      6.967
REMARK  4 active torsions:
REMARK  status: ('A' for Active; 'I' for Inactive)
REMARK    1  A    between atoms: O_2  and  C_11 
REMARK    2  A    between atoms: O_2  and  C_17 
REMARK    3  A    between atoms: C_6  and  C_12 
REMARK    4  A    between atoms: C_7  and  C_11 
ROOT
HETATM    1  N   UNK N   1      26.118  21.556  -8.886  0.00  0.00    -0.421 N 
HETATM    2  C   UNK N   1      27.858  22.962  -7.008  0.00  0.00     0.028 C 
HETATM    3  C   UNK N   1      26.355  22.669  -6.700  0.00  0.00     0.036 C 
HETATM    4  C   UNK N   1      28.368  21.982  -8.081  0.00  0.00     0.029 C 
HETATM    5  C   UNK N   1      25.568  22.584  -8.010  0.00  0.00     0.121 C 
HETATM    6  C   UNK N   1      27.449  21.982  -9.293  0.00  0.00     0.114 C 
HETATM    7  H   UNK N   1      25.653  20.691  -9.166  0.00  0.00     0.153 HD
ENDROOT
BRANCH   3   8
HETATM    8  C   UNK N   1      25.623  23.712  -5.853  0.00  0.00     0.182 C 
BRANCH   8   9
HETATM    9  O   UNK N   1      25.434  24.884  -6.544  0.00  0.00    -0.351 OA
BRANCH   9  10
HETATM   10  C   UNK N   1      25.855  26.094  -6.114  0.00  0.00     0.071 A 
HETATM   11  C   UNK N   1      25.477  26.615  -4.851  0.00  0.00     0.076 A 
HETATM   12  C   UNK N   1      25.978  27.865  -4.493  0.00  0.00     0.107 A 
HETATM   13  O   UNK N   1      25.781  28.546  -3.365  0.00  0.00    -0.323 OA
HETATM   14  C   UNK N   1      26.778  28.575  -5.298  0.00  0.00     0.105 A 
HETATM   15  C   UNK N   1      26.486  29.752  -3.446  0.00  0.00     0.352 A 
HETATM   16  O   UNK N   1      27.100  29.720  -4.703  0.00  0.00    -0.323 OA
HETATM   17  C   UNK N   1      27.172  28.114  -6.549  0.00  0.00     0.042 A 
HETATM   18  C   UNK N   1      26.706  26.851  -6.953  0.00  0.00     0.039 A 
ENDBRANCH   9  10
ENDBRANCH   8   9
ENDBRANCH   3   8
BRANCH   2  19
HETATM   19  C   UNK N   1      28.781  22.937  -5.795  0.00  0.00    -0.053 A 
HETATM   20  C   UNK N   1      29.602  21.827  -5.554  0.00  0.00     0.010 A 
HETATM   21  C   UNK N   1      30.444  21.788  -4.439  0.00  0.00     0.043 A 
HETATM   22  C   UNK N   1      30.456  22.851  -3.534  0.00  0.00     0.116 A 
HETATM   23  F   UNK N   1      31.274  22.814  -2.455  0.00  0.00    -0.206 F 
HETATM   24  C   UNK N   1      29.621  23.950  -3.740  0.00  0.00     0.043 A 
HETATM   25  C   UNK N   1      28.787  23.993  -4.861  0.00  0.00     0.010 A 
ENDBRANCH   2  19
TORSDOF 4
ENDMDL
MODEL 8
REMARK VINA RESULT:      -6.9      4.229      6.014
REMARK  4 active torsions:
REMARK  status: ('A' for Active; 'I' for Inactive)
REMARK    1  A    between atoms: O_2  and  C_11 
REMARK    2  A    between atoms: O_2  and  C_17 
REMARK    3  A    between atoms: C_6  and  C_12 
REMARK    4  A    between atoms: C_7  and  C_11 
ROOT
HETATM    1  N   UNK N   1      30.141  30.512  -7.032  0.00  0.00    -0.421 N 
HETATM    2  C   UNK N   1      27.836  28.756  -6.665  0.00  0.00     0.028 C 
HETATM    3  C   UNK N   1      28.961  28.455  -7.706  0.00  0.00     0.036 C 
HETATM    4  C   UNK N   1      28.376  29.701  -5.576  0.00  0.00     0.029 C 
HETATM    5  C   UNK N   1      29.602  29.769  -8.165  0.00  0.00     0.121 C 
HETATM    6  C   UNK N   1      29.022  30.929  -6.198  0.00  0.00     0.114 C 
HETATM    7  H   UNK N   1      31.127  30.707  -6.854  0.00  0.00     0.153 HD
ENDROOT
BRANCH   3   8
HETATM    8  C   UNK N   1      28.522  27.748  -8.990  0.00  0.00     0.182 C 
BRANCH   8   9
HETATM    9  O   UNK N   1      28.648  26.384  -8.886  0.00  0.00    -0.351 OA
BRANCH   9  10
HETATM   10  C   UNK N   1      27.604  25.530  -8.808  0.00  0.00     0.071 A 
HETATM   11  C   UNK N   1      27.682  24.315  -8.084  0.00  0.00     0.076 A 
HETATM   12  C   UNK N   1      26.544  23.511  -8.050  0.00  0.00     0.107 A 
HETATM   13  O   UNK N   1      26.370  22.345  -7.427  0.00  0.00    -0.323 OA
HETATM   14  C   UNK N   1      25.411  23.843  -8.680  0.00  0.00     0.105 A 
HETATM   15  C   UNK N   1      25.063  21.906  -7.668  0.00  0.00     0.352 A 
HETATM   16  O   UNK N   1      24.498  22.898  -8.477  0.00  0.00    -0.323 OA
HETATM   17  C   UNK N   1      25.285  25.020  -9.410  0.00  0.00     0.042 A 
HETATM   18  C   UNK N   1      26.399  25.875  -9.464  0.00  0.00     0.039 A 
ENDBRANCH   9  10
ENDBRANCH   8   9
ENDBRANCH   3   8
BRANCH   2  19
HETATM   19  C   UNK N   1      27.206  27.523  -6.024  0.00  0.00    -0.053 A 
HETATM   20  C   UNK N   1      25.836  27.272  -6.174  0.00  0.00     0.010 A 
HETATM   21  C   UNK N   1      25.246  26.151  -5.582  0.00  0.00     0.043 A 
HETATM   22  C   UNK N   1      26.017  25.280  -4.811  0.00  0.00     0.116 A 
HETATM   23  F   UNK N   1      25.445  24.193  -4.239  0.00  0.00    -0.206 F 
HETATM   24  C   UNK N   1      27.376  25.533  -4.624  0.00  0.00     0.043 A 
HETATM   25  C   UNK N   1      27.968  26.648  -5.224  0.00  0.00     0.010 A 
ENDBRANCH   2  19
TORSDOF 4
ENDMDL
MODEL 9
REMARK VINA RESULT:      -6.8      3.257      5.170
REMARK  4 active torsions:
REMARK  status: ('A' for Active; 'I' for Inactive)
REMARK    1  A    between atoms: O_2  and  C_11 
REMARK    2  A    between atoms: O_2  and  C_17 
REMARK    3  A    between atoms: C_6  and  C_12 
REMARK    4  A    between atoms: C_7  and  C_11 
ROOT
HETATM    1  N   UNK N   1      28.448  26.173  -9.659  0.00  0.00    -0.421 N 
HETATM    2  C   UNK N   1      27.242  27.411  -7.304  0.00  0.00     0.028 C 
HETATM    3  C   UNK N   1      27.080  25.891  -7.628  0.00  0.00     0.036 C 
HETATM    4  C   UNK N   1      28.487  27.964  -8.021  0.00  0.00     0.029 C 
HETATM    5  C   UNK N   1      27.179  25.674  -9.141  0.00  0.00     0.121 C 
HETATM    6  C   UNK N   1      28.455  27.620  -9.502  0.00  0.00     0.114 C 
HETATM    7  H   UNK N   1      29.197  25.608 -10.061  0.00  0.00     0.153 HD
ENDROOT
BRANCH   3   8
HETATM    8  C   UNK N   1      25.754  25.250  -7.212  0.00  0.00     0.182 C 
BRANCH   8   9
HETATM    9  O   UNK N   1      25.951  24.136  -6.433  0.00  0.00    -0.351 OA
BRANCH   9  10
HETATM   10  C   UNK N   1      26.853  24.063  -5.429  0.00  0.00     0.071 A 
HETATM   11  C   UNK N   1      28.159  23.552  -5.629  0.00  0.00     0.076 A 
HETATM   12  C   UNK N   1      29.019  23.534  -4.533  0.00  0.00     0.107 A 
HETATM   13  O   UNK N   1      30.286  23.123  -4.478  0.00  0.00    -0.323 OA
HETATM   14  C   UNK N   1      28.647  23.967  -3.321  0.00  0.00     0.105 A 
HETATM   15  C   UNK N   1      30.752  23.297  -3.170  0.00  0.00     0.352 A 
HETATM   16  O   UNK N   1      29.663  23.834  -2.474  0.00  0.00    -0.323 OA
HETATM   17  C   UNK N   1      27.376  24.471  -3.070  0.00  0.00     0.042 A 
HETATM   18  C   UNK N   1      26.473  24.523  -4.146  0.00  0.00     0.039 A 
ENDBRANCH   9  10
ENDBRANCH   8   9
ENDBRANCH   3   8
BRANCH   2  19
HETATM   19  C   UNK N   1      27.298  27.749  -5.818  0.00  0.00    -0.053 A 
HETATM   20  C   UNK N   1      26.157  28.225  -5.158  0.00  0.00     0.010 A 
HETATM   21  C   UNK N   1      26.200  28.550  -3.799  0.00  0.00     0.043 A 
HETATM   22  C   UNK N   1      27.394  28.425  -3.087  0.00  0.00     0.116 A 
HETATM   23  F   UNK N   1      27.434  28.738  -1.770  0.00  0.00    -0.206 F 
HETATM   24  C   UNK N   1      28.548  27.984  -3.736  0.00  0.00     0.043 A 
HETATM   25  C   UNK N   1      28.503  27.651  -5.093  0.00  0.00     0.010 A 
ENDBRANCH   2  19
TORSDOF 4
ENDMDL
