MODEL 1
REMARK VINA RESULT:      -6.7      0.000      0.000
REMARK  16 active torsions:
REMARK  status: ('A' for Active; 'I' for Inactive)
REMARK    1  A    between atoms: P_1  and  O_5 
REMARK    2  A    between atoms: P_1  and  O_6 
REMARK    3  A    between atoms: P_1  and  C_30 
REMARK    4  A    between atoms: O_2  and  C_29 
REMARK    5  A    between atoms: O_2  and  C_30 
REMARK    6  A    between atoms: O_3  and  C_26 
REMARK    7  A    between atoms: O_3  and  C_32 
REMARK    8  A    between atoms: O_4  and  C_27 
REMARK    9  A    between atoms: O_4  and  C_33 
REMARK   10  A    between atoms: O_5  and  C_32 
REMARK   11  A    between atoms: O_6  and  C_33 
REMARK   12  A    between atoms: N_10  and  C_28 
REMARK   13  A    between atoms: N_17  and  C_36 
REMARK   14  A    between atoms: C_18  and  C_26 
REMARK   15  A    between atoms: C_19  and  C_27 
REMARK   16  A    between atoms: C_28  and  C_29 
ROOT
HETATM    1  P   UNK N   1      34.243  17.452   8.354  0.00  0.00     0.355 P 
HETATM    2  O   UNK N   1      34.832  18.662   7.586  0.00  0.00    -0.256 OA
ENDROOT
BRANCH   1   3
HETATM    3  O   UNK N   1      35.296  17.743   9.723  0.00  0.00    -0.286 OA
BRANCH   3   4
HETATM    4  C   UNK N   1      35.185  16.647  10.587  0.00  0.00     0.358 C 
BRANCH   4   5
HETATM    5  O   UNK N   1      36.406  16.027  10.710  0.00  0.00    -0.294 OA
BRANCH   5   6
HETATM    6  C   UNK N   1      36.728  14.723  10.486  0.00  0.00     0.268 C 
HETATM    7  O   UNK N   1      37.232  14.446   9.407  0.00  0.00    -0.264 OA
BRANCH   6   8
HETATM    8  C   UNK N   1      36.512  13.586  11.480  0.00  0.00     0.037 C 
HETATM    9  C   UNK N   1      36.392  13.995  12.935  0.00  0.00     0.025 C 
HETATM   10  C   UNK N   1      35.238  12.846  11.114  0.00  0.00     0.025 C 
HETATM   11  C   UNK N   1      37.674  12.616  11.369  0.00  0.00     0.025 C 
ENDBRANCH   6   8
ENDBRANCH   5   6
ENDBRANCH   4   5
ENDBRANCH   3   4
ENDBRANCH   1   3
BRANCH   1  12
HETATM   12  O   UNK N   1      34.917  16.336   7.178  0.00  0.00    -0.286 OA
BRANCH  12  13
HETATM   13  C   UNK N   1      34.133  15.176   7.173  0.00  0.00     0.358 C 
BRANCH  13  14
HETATM   14  O   UNK N   1      33.744  14.869   5.886  0.00  0.00    -0.294 OA
BRANCH  14  15
HETATM   15  C   UNK N   1      32.587  15.233   5.277  0.00  0.00     0.268 C 
HETATM   16  O   UNK N   1      31.538  14.847   5.771  0.00  0.00    -0.264 OA
BRANCH  15  17
HETATM   17  C   UNK N   1      32.548  16.085   4.018  0.00  0.00     0.037 C 
HETATM   18  C   UNK N   1      31.210  15.960   3.315  0.00  0.00     0.025 C 
HETATM   19  C   UNK N   1      33.624  15.657   3.029  0.00  0.00     0.025 C 
HETATM   20  C   UNK N   1      32.796  17.536   4.377  0.00  0.00     0.025 C 
ENDBRANCH  15  17
ENDBRANCH  14  15
ENDBRANCH  13  14
ENDBRANCH  12  13
ENDBRANCH   1  12
BRANCH   1  21
HETATM   21  C   UNK N   1      32.525  18.204   8.205  0.00  0.00     0.299 C 
BRANCH  21  22
HETATM   22  O   UNK N   1      31.484  17.433   8.761  0.00  0.00    -0.378 OA
BRANCH  22  23
HETATM   23  C   UNK N   1      30.364  18.244   9.040  0.00  0.00     0.188 C 
BRANCH  23  24
HETATM   24  C   UNK N   1      29.022  17.680   8.577  0.00  0.00     0.157 C 
BRANCH  24  25
HETATM   25  N   UNK N   1      28.771  18.059   7.204  0.00  0.00    -0.325 N 
HETATM   26  C   UNK N   1      27.991  19.053   6.795  0.00  0.00     0.140 A 
HETATM   27  N   UNK N   1      27.281  19.913   7.565  0.00  0.00    -0.336 N 
HETATM   28  C   UNK N   1      28.009  19.115   5.453  0.00  0.00     0.122 A 
HETATM   29  C   UNK N   1      26.552  20.881   6.932  0.00  0.00     0.183 A 
ATOM     30  HN  UNK N   1      27.289  19.839   8.582  1.00  0.00     0.168 HD
HETATM   31  N   UNK N   1      26.552  20.966   5.561  0.00  0.00    -0.337 N 
HETATM   32  C   UNK N   1      27.276  20.091   4.799  0.00  0.00     0.131 A 
ATOM     33  HN  UNK N   1      26.004  21.695   5.103  1.00  0.00     0.168 HD
HETATM   34  N   UNK N   1      28.806  18.145   4.961  0.00  0.00    -0.346 N 
HETATM   35  C   UNK N   1      29.271  17.501   6.071  0.00  0.00     0.185 A 
ATOM     36  HN  UNK N   1      29.013  17.939   3.984  1.00  0.00     0.167 HD
BRANCH  32  37
HETATM   37  N   UNK N   1      27.275  20.188   3.394  0.00  0.00    -0.383 N 
HETATM   38  H   UNK N   1      26.489  20.539   2.916  0.00  0.00     0.157 HD
HETATM   39  H   UNK N   1      28.069  19.903   2.885  0.00  0.00     0.157 HD
ENDBRANCH  32  37
ENDBRANCH  24  25
ENDBRANCH  23  24
ENDBRANCH  22  23
ENDBRANCH  21  22
ENDBRANCH   1  21
TORSDOF 16
ENDMDL
MODEL 2
REMARK VINA RESULT:      -6.2      4.735      8.607
REMARK  16 active torsions:
REMARK  status: ('A' for Active; 'I' for Inactive)
REMARK    1  A    between atoms: P_1  and  O_5 
REMARK    2  A    between atoms: P_1  and  O_6 
REMARK    3  A    between atoms: P_1  and  C_30 
REMARK    4  A    between atoms: O_2  and  C_29 
REMARK    5  A    between atoms: O_2  and  C_30 
REMARK    6  A    between atoms: O_3  and  C_26 
REMARK    7  A    between atoms: O_3  and  C_32 
REMARK    8  A    between atoms: O_4  and  C_27 
REMARK    9  A    between atoms: O_4  and  C_33 
REMARK   10  A    between atoms: O_5  and  C_32 
REMARK   11  A    between atoms: O_6  and  C_33 
REMARK   12  A    between atoms: N_10  and  C_28 
REMARK   13  A    between atoms: N_17  and  C_36 
REMARK   14  A    between atoms: C_18  and  C_26 
REMARK   15  A    between atoms: C_19  and  C_27 
REMARK   16  A    between atoms: C_28  and  C_29 
ROOT
HETATM    1  P   UNK N   1      33.999  17.722   8.161  0.00  0.00     0.355 P 
HETATM    2  O   UNK N   1      34.721  19.083   8.320  0.00  0.00    -0.256 OA
ENDROOT
BRANCH   1   3
HETATM    3  O   UNK N   1      34.598  17.537   6.526  0.00  0.00    -0.286 OA
BRANCH   3   4
HETATM    4  C   UNK N   1      33.491  17.491   5.669  0.00  0.00     0.358 C 
BRANCH   4   5
HETATM    5  O   UNK N   1      33.454  16.278   5.023  0.00  0.00    -0.294 OA
BRANCH   5   6
HETATM    6  C   UNK N   1      32.707  15.178   5.314  0.00  0.00     0.268 C 
HETATM    7  O   UNK N   1      32.855  14.675   6.419  0.00  0.00    -0.264 OA
BRANCH   6   8
HETATM    8  C   UNK N   1      31.698  14.531   4.370  0.00  0.00     0.037 C 
HETATM    9  C   UNK N   1      32.149  13.247   3.702  0.00  0.00     0.025 C 
HETATM   10  C   UNK N   1      30.431  14.213   5.146  0.00  0.00     0.025 C 
HETATM   11  C   UNK N   1      31.349  15.523   3.276  0.00  0.00     0.025 C 
ENDBRANCH   6   8
ENDBRANCH   5   6
ENDBRANCH   4   5
ENDBRANCH   3   4
ENDBRANCH   1   3
BRANCH   1  12
HETATM   12  O   UNK N   1      32.431  18.507   8.247  0.00  0.00    -0.286 OA
BRANCH  12  13
HETATM   13  C   UNK N   1      31.530  17.625   8.857  0.00  0.00     0.358 C 
BRANCH  13  14
HETATM   14  O   UNK N   1      30.830  16.921   7.901  0.00  0.00    -0.294 OA
BRANCH  14  15
HETATM   15  C   UNK N   1      29.854  17.401   7.089  0.00  0.00     0.268 C 
HETATM   16  O   UNK N   1      30.137  17.609   5.919  0.00  0.00    -0.264 OA
BRANCH  15  17
HETATM   17  C   UNK N   1      28.443  17.692   7.577  0.00  0.00     0.037 C 
HETATM   18  C   UNK N   1      28.124  19.171   7.473  0.00  0.00     0.025 C 
HETATM   19  C   UNK N   1      28.269  17.288   9.034  0.00  0.00     0.025 C 
HETATM   20  C   UNK N   1      27.446  16.902   6.752  0.00  0.00     0.025 C 
ENDBRANCH  15  17
ENDBRANCH  14  15
ENDBRANCH  13  14
ENDBRANCH  12  13
ENDBRANCH   1  12
BRANCH   1  21
HETATM   21  C   UNK N   1      34.916  17.068   9.668  0.00  0.00     0.299 C 
BRANCH  21  22
HETATM   22  O   UNK N   1      34.701  15.704   9.954  0.00  0.00    -0.378 OA
BRANCH  22  23
HETATM   23  C   UNK N   1      35.697  14.910   9.346  0.00  0.00     0.188 C 
BRANCH  23  24
HETATM   24  C   UNK N   1      36.644  14.202  10.313  0.00  0.00     0.157 C 
BRANCH  24  25
HETATM   25  N   UNK N   1      35.888  13.393  11.244  0.00  0.00    -0.325 N 
HETATM   26  C   UNK N   1      35.943  13.466  12.569  0.00  0.00     0.140 A 
HETATM   27  N   UNK N   1      36.701  14.304  13.317  0.00  0.00    -0.336 N 
HETATM   28  C   UNK N   1      35.096  12.571  13.103  0.00  0.00     0.122 A 
HETATM   29  C   UNK N   1      36.589  14.221  14.677  0.00  0.00     0.183 A 
ATOM     30  HN  UNK N   1      37.335  14.973  12.880  1.00  0.00     0.168 HD
HETATM   31  N   UNK N   1      35.729  13.314  15.250  0.00  0.00    -0.337 N 
HETATM   32  C   UNK N   1      34.971  12.476  14.479  0.00  0.00     0.131 A 
ATOM     33  HN  UNK N   1      35.656  13.264  16.266  1.00  0.00     0.168 HD
HETATM   34  N   UNK N   1      34.474  11.888  12.121  0.00  0.00    -0.346 N 
HETATM   35  C   UNK N   1      34.982  12.419  10.972  0.00  0.00     0.185 A 
ATOM     36  HN  UNK N   1      33.782  11.144  12.216  1.00  0.00     0.167 HD
BRANCH  32  37
HETATM   37  N   UNK N   1      34.089  11.553  15.073  0.00  0.00    -0.383 N 
HETATM   38  H   UNK N   1      34.347  11.068  15.890  0.00  0.00     0.157 HD
HETATM   39  H   UNK N   1      33.206  11.391  14.668  0.00  0.00     0.157 HD
ENDBRANCH  32  37
ENDBRANCH  24  25
ENDBRANCH  23  24
ENDBRANCH  22  23
ENDBRANCH  21  22
ENDBRANCH   1  21
TORSDOF 16
ENDMDL
MODEL 3
REMARK VINA RESULT:      -6.2     12.726     16.659
REMARK  16 active torsions:
REMARK  status: ('A' for Active; 'I' for Inactive)
REMARK    1  A    between atoms: P_1  and  O_5 
REMARK    2  A    between atoms: P_1  and  O_6 
REMARK    3  A    between atoms: P_1  and  C_30 
REMARK    4  A    between atoms: O_2  and  C_29 
REMARK    5  A    between atoms: O_2  and  C_30 
REMARK    6  A    between atoms: O_3  and  C_26 
REMARK    7  A    between atoms: O_3  and  C_32 
REMARK    8  A    between atoms: O_4  and  C_27 
REMARK    9  A    between atoms: O_4  and  C_33 
REMARK   10  A    between atoms: O_5  and  C_32 
REMARK   11  A    between atoms: O_6  and  C_33 
REMARK   12  A    between atoms: N_10  and  C_28 
REMARK   13  A    between atoms: N_17  and  C_36 
REMARK   14  A    between atoms: C_18  and  C_26 
REMARK   15  A    between atoms: C_19  and  C_27 
REMARK   16  A    between atoms: C_28  and  C_29 
ROOT
HETATM    1  P   UNK N   1      26.676  25.730  -4.232  0.00  0.00     0.355 P 
HETATM    2  O   UNK N   1      26.371  24.548  -3.278  0.00  0.00    -0.256 OA
ENDROOT
BRANCH   1   3
HETATM    3  O   UNK N   1      25.560  25.114  -5.434  0.00  0.00    -0.286 OA
BRANCH   3   4
HETATM    4  C   UNK N   1      25.868  23.765  -5.649  0.00  0.00     0.358 C 
BRANCH   4   5
HETATM    5  O   UNK N   1      25.181  23.302  -6.746  0.00  0.00    -0.294 OA
BRANCH   5   6
HETATM    6  C   UNK N   1      25.366  22.148  -7.445  0.00  0.00     0.268 C 
HETATM    7  O   UNK N   1      24.632  21.207  -7.180  0.00  0.00    -0.264 OA
BRANCH   6   8
HETATM    8  C   UNK N   1      26.414  21.944  -8.535  0.00  0.00     0.037 C 
HETATM    9  C   UNK N   1      26.982  23.209  -9.150  0.00  0.00     0.025 C 
HETATM   10  C   UNK N   1      27.581  21.163  -7.957  0.00  0.00     0.025 C 
HETATM   11  C   UNK N   1      25.800  21.124  -9.653  0.00  0.00     0.025 C 
ENDBRANCH   6   8
ENDBRANCH   5   6
ENDBRANCH   4   5
ENDBRANCH   3   4
ENDBRANCH   1   3
BRANCH   1  12
HETATM   12  O   UNK N   1      28.324  25.168  -4.454  0.00  0.00    -0.286 OA
BRANCH  12  13
HETATM   13  C   UNK N   1      28.610  24.235  -3.450  0.00  0.00     0.358 C 
BRANCH  13  14
HETATM   14  O   UNK N   1      29.972  24.142  -3.260  0.00  0.00    -0.294 OA
BRANCH  14  15
HETATM   15  C   UNK N   1      30.649  23.095  -2.723  0.00  0.00     0.268 C 
HETATM   16  O   UNK N   1      30.591  22.941  -1.512  0.00  0.00    -0.264 OA
BRANCH  15  17
HETATM   17  C   UNK N   1      31.470  22.126  -3.558  0.00  0.00     0.037 C 
HETATM   18  C   UNK N   1      32.566  21.483  -2.729  0.00  0.00     0.025 C 
HETATM   19  C   UNK N   1      32.138  22.834  -4.728  0.00  0.00     0.025 C 
HETATM   20  C   UNK N   1      30.567  21.047  -4.122  0.00  0.00     0.025 C 
ENDBRANCH  15  17
ENDBRANCH  14  15
ENDBRANCH  13  14
ENDBRANCH  12  13
ENDBRANCH   1  12
BRANCH   1  21
HETATM   21  C   UNK N   1      26.165  26.939  -2.884  0.00  0.00     0.299 C 
BRANCH  21  22
HETATM   22  O   UNK N   1      25.735  28.201  -3.344  0.00  0.00    -0.378 OA
BRANCH  22  23
HETATM   23  C   UNK N   1      26.149  28.407  -4.678  0.00  0.00     0.188 C 
BRANCH  23  24
HETATM   24  C   UNK N   1      27.025  29.637  -4.904  0.00  0.00     0.157 C 
BRANCH  24  25
HETATM   25  N   UNK N   1      28.337  29.424  -4.333  0.00  0.00    -0.325 N 
HETATM   26  C   UNK N   1      28.685  29.637  -3.068  0.00  0.00     0.140 A 
HETATM   27  N   UNK N   1      27.898  30.086  -2.062  0.00  0.00    -0.336 N 
HETATM   28  C   UNK N   1      29.979  29.317  -2.899  0.00  0.00     0.122 A 
HETATM   29  C   UNK N   1      28.461  30.218  -0.823  0.00  0.00     0.183 A 
ATOM     30  HN  UNK N   1      26.918  30.320  -2.223  1.00  0.00     0.168 HD
HETATM   31  N   UNK N   1      29.782  29.898  -0.622  0.00  0.00    -0.337 N 
HETATM   32  C   UNK N   1      30.563  29.445  -1.650  0.00  0.00     0.131 A 
ATOM     33  HN  UNK N   1      30.188  30.000   0.308  1.00  0.00     0.168 HD
HETATM   34  N   UNK N   1      30.502  28.892  -4.068  0.00  0.00    -0.346 N 
HETATM   35  C   UNK N   1      29.459  28.966  -4.945  0.00  0.00     0.185 A 
ATOM     36  HN  UNK N   1      31.457  28.587  -4.253  1.00  0.00     0.167 HD
BRANCH  32  37
HETATM   37  N   UNK N   1      31.915  29.114  -1.435  0.00  0.00    -0.383 N 
HETATM   38  H   UNK N   1      32.160  28.364  -0.847  0.00  0.00     0.157 HD
HETATM   39  H   UNK N   1      32.622  29.638  -1.878  0.00  0.00     0.157 HD
ENDBRANCH  32  37
ENDBRANCH  24  25
ENDBRANCH  23  24
ENDBRANCH  22  23
ENDBRANCH  21  22
ENDBRANCH   1  21
TORSDOF 16
ENDMDL
MODEL 4
REMARK VINA RESULT:      -6.1      4.785      9.624
REMARK  16 active torsions:
REMARK  status: ('A' for Active; 'I' for Inactive)
REMARK    1  A    between atoms: P_1  and  O_5 
REMARK    2  A    between atoms: P_1  and  O_6 
REMARK    3  A    between atoms: P_1  and  C_30 
REMARK    4  A    between atoms: O_2  and  C_29 
REMARK    5  A    between atoms: O_2  and  C_30 
REMARK    6  A    between atoms: O_3  and  C_26 
REMARK    7  A    between atoms: O_3  and  C_32 
REMARK    8  A    between atoms: O_4  and  C_27 
REMARK    9  A    between atoms: O_4  and  C_33 
REMARK   10  A    between atoms: O_5  and  C_32 
REMARK   11  A    between atoms: O_6  and  C_33 
REMARK   12  A    between atoms: N_10  and  C_28 
REMARK   13  A    between atoms: N_17  and  C_36 
REMARK   14  A    between atoms: C_18  and  C_26 
REMARK   15  A    between atoms: C_19  and  C_27 
REMARK   16  A    between atoms: C_28  and  C_29 
ROOT
HETATM    1  P   UNK N   1      35.982  15.141  10.201  0.00  0.00     0.355 P 
HETATM    2  O   UNK N   1      36.615  16.499  10.598  0.00  0.00    -0.256 OA
ENDROOT
BRANCH   1   3
HETATM    3  O   UNK N   1      34.983  15.906   8.982  0.00  0.00    -0.286 OA
BRANCH   3   4
HETATM    4  C   UNK N   1      34.712  17.211   9.410  0.00  0.00     0.358 C 
BRANCH   4   5
HETATM    5  O   UNK N   1      34.047  17.897   8.421  0.00  0.00    -0.294 OA
BRANCH   5   6
HETATM    6  C   UNK N   1      33.687  17.469   7.180  0.00  0.00     0.268 C 
HETATM    7  O   UNK N   1      34.527  17.543   6.295  0.00  0.00    -0.264 OA
BRANCH   6   8
HETATM    8  C   UNK N   1      32.319  16.902   6.814  0.00  0.00     0.037 C 
HETATM    9  C   UNK N   1      31.788  17.289   5.447  0.00  0.00     0.025 C 
HETATM   10  C   UNK N   1      32.387  15.385   6.856  0.00  0.00     0.025 C 
HETATM   11  C   UNK N   1      31.308  17.362   7.848  0.00  0.00     0.025 C 
ENDBRANCH   6   8
ENDBRANCH   5   6
ENDBRANCH   4   5
ENDBRANCH   3   4
ENDBRANCH   1   3
BRANCH   1  12
HETATM   12  O   UNK N   1      35.199  15.012  11.766  0.00  0.00    -0.286 OA
BRANCH  12  13
HETATM   13  C   UNK N   1      34.752  13.694  11.927  0.00  0.00     0.358 C 
BRANCH  13  14
HETATM   14  O   UNK N   1      34.758  13.348  13.261  0.00  0.00    -0.294 OA
BRANCH  14  15
HETATM   15  C   UNK N   1      35.813  12.878  13.974  0.00  0.00     0.268 C 
HETATM   16  O   UNK N   1      36.771  12.441  13.354  0.00  0.00    -0.264 OA
BRANCH  15  17
HETATM   17  C   UNK N   1      35.844  12.868  15.494  0.00  0.00     0.037 C 
HETATM   18  C   UNK N   1      34.450  13.024  16.071  0.00  0.00     0.025 C 
HETATM   19  C   UNK N   1      36.692  14.010  16.036  0.00  0.00     0.025 C 
HETATM   20  C   UNK N   1      36.449  11.567  15.983  0.00  0.00     0.025 C 
ENDBRANCH  15  17
ENDBRANCH  14  15
ENDBRANCH  13  14
ENDBRANCH  12  13
ENDBRANCH   1  12
BRANCH   1  21
HETATM   21  C   UNK N   1      37.697  14.457   9.838  0.00  0.00     0.299 C 
BRANCH  21  22
HETATM   22  O   UNK N   1      38.085  13.363  10.638  0.00  0.00    -0.378 OA
BRANCH  22  23
HETATM   23  C   UNK N   1      38.789  12.414   9.866  0.00  0.00     0.188 C 
BRANCH  23  24
HETATM   24  C   UNK N   1      38.194  11.008   9.864  0.00  0.00     0.157 C 
BRANCH  24  25
HETATM   25  N   UNK N   1      36.802  11.059   9.473  0.00  0.00    -0.325 N 
HETATM   26  C   UNK N   1      35.764  10.703  10.222  0.00  0.00     0.140 A 
HETATM   27  N   UNK N   1      35.788  10.230  11.491  0.00  0.00    -0.336 N 
HETATM   28  C   UNK N   1      34.626  10.898   9.534  0.00  0.00     0.122 A 
HETATM   29  C   UNK N   1      34.591   9.939  12.085  0.00  0.00     0.183 A 
ATOM     30  HN  UNK N   1      36.669  10.094  11.987  1.00  0.00     0.168 HD
HETATM   31  N   UNK N   1      33.413  10.130  11.404  0.00  0.00    -0.337 N 
HETATM   32  C   UNK N   1      33.407  10.609  10.123  0.00  0.00     0.131 A 
ATOM     33  HN  UNK N   1      32.528   9.909  11.861  1.00  0.00     0.168 HD
HETATM   34  N   UNK N   1      34.911  11.383   8.308  0.00  0.00    -0.346 N 
HETATM   35  C   UNK N   1      36.272  11.477   8.295  0.00  0.00     0.185 A 
ATOM     36  HN  UNK N   1      34.258  11.625   7.563  1.00  0.00     0.167 HD
BRANCH  32  37
HETATM   37  N   UNK N   1      32.195  10.806   9.433  0.00  0.00    -0.383 N 
HETATM   38  H   UNK N   1      31.521  11.437   9.775  0.00  0.00     0.157 HD
HETATM   39  H   UNK N   1      32.020  10.307   8.602  0.00  0.00     0.157 HD
ENDBRANCH  32  37
ENDBRANCH  24  25
ENDBRANCH  23  24
ENDBRANCH  22  23
ENDBRANCH  21  22
ENDBRANCH   1  21
TORSDOF 16
ENDMDL
MODEL 5
REMARK VINA RESULT:      -6.1      4.573      8.262
REMARK  16 active torsions:
REMARK  status: ('A' for Active; 'I' for Inactive)
REMARK    1  A    between atoms: P_1  and  O_5 
REMARK    2  A    between atoms: P_1  and  O_6 
REMARK    3  A    between atoms: P_1  and  C_30 
REMARK    4  A    between atoms: O_2  and  C_29 
REMARK    5  A    between atoms: O_2  and  C_30 
REMARK    6  A    between atoms: O_3  and  C_26 
REMARK    7  A    between atoms: O_3  and  C_32 
REMARK    8  A    between atoms: O_4  and  C_27 
REMARK    9  A    between atoms: O_4  and  C_33 
REMARK   10  A    between atoms: O_5  and  C_32 
REMARK   11  A    between atoms: O_6  and  C_33 
REMARK   12  A    between atoms: N_10  and  C_28 
REMARK   13  A    between atoms: N_17  and  C_36 
REMARK   14  A    between atoms: C_18  and  C_26 
REMARK   15  A    between atoms: C_19  and  C_27 
REMARK   16  A    between atoms: C_28  and  C_29 
ROOT
HETATM    1  P   UNK N   1      33.905  17.761   7.904  0.00  0.00     0.355 P 
HETATM    2  O   UNK N   1      34.742  18.996   8.321  0.00  0.00    -0.256 OA
ENDROOT
BRANCH   1   3
HETATM    3  O   UNK N   1      34.288  18.010   6.213  0.00  0.00    -0.286 OA
BRANCH   3   4
HETATM    4  C   UNK N   1      33.397  17.238   5.455  0.00  0.00     0.358 C 
BRANCH   4   5
HETATM    5  O   UNK N   1      33.648  15.903   5.661  0.00  0.00    -0.294 OA
BRANCH   5   6
HETATM    6  C   UNK N   1      34.656  15.136   5.162  0.00  0.00     0.268 C 
HETATM    7  O   UNK N   1      35.766  15.277   5.655  0.00  0.00    -0.264 OA
BRANCH   6   8
HETATM    8  C   UNK N   1      34.504  14.112   4.042  0.00  0.00     0.037 C 
HETATM    9  C   UNK N   1      35.775  13.400   3.621  0.00  0.00     0.025 C 
HETATM   10  C   UNK N   1      33.515  13.045   4.479  0.00  0.00     0.025 C 
HETATM   11  C   UNK N   1      33.940  14.810   2.818  0.00  0.00     0.025 C 
ENDBRANCH   6   8
ENDBRANCH   5   6
ENDBRANCH   4   5
ENDBRANCH   3   4
ENDBRANCH   1   3
BRANCH   1  12
HETATM   12  O   UNK N   1      32.424  18.554   8.409  0.00  0.00    -0.286 OA
BRANCH  12  13
HETATM   13  C   UNK N   1      31.475  17.567   8.705  0.00  0.00     0.358 C 
BRANCH  13  14
HETATM   14  O   UNK N   1      30.547  17.477   7.689  0.00  0.00    -0.294 OA
BRANCH  14  15
HETATM   15  C   UNK N   1      29.343  18.099   7.629  0.00  0.00     0.268 C 
HETATM   16  O   UNK N   1      28.973  18.720   8.615  0.00  0.00    -0.264 OA
BRANCH  15  17
HETATM   17  C   UNK N   1      28.446  18.047   6.403  0.00  0.00     0.037 C 
HETATM   18  C   UNK N   1      29.263  17.891   5.134  0.00  0.00     0.025 C 
HETATM   19  C   UNK N   1      27.628  19.324   6.264  0.00  0.00     0.025 C 
HETATM   20  C   UNK N   1      27.479  16.886   6.526  0.00  0.00     0.025 C 
ENDBRANCH  15  17
ENDBRANCH  14  15
ENDBRANCH  13  14
ENDBRANCH  12  13
ENDBRANCH   1  12
BRANCH   1  21
HETATM   21  C   UNK N   1      34.945  16.682   9.041  0.00  0.00     0.299 C 
BRANCH  21  22
HETATM   22  O   UNK N   1      35.451  17.333  10.184  0.00  0.00    -0.378 OA
BRANCH  22  23
HETATM   23  C   UNK N   1      35.789  16.390  11.179  0.00  0.00     0.188 C 
BRANCH  23  24
HETATM   24  C   UNK N   1      35.826  14.937  10.712  0.00  0.00     0.157 C 
BRANCH  24  25
HETATM   25  N   UNK N   1      35.548  14.052  11.822  0.00  0.00    -0.325 N 
HETATM   26  C   UNK N   1      34.952  12.867  11.749  0.00  0.00     0.140 A 
HETATM   27  N   UNK N   1      34.491  12.244  10.637  0.00  0.00    -0.336 N 
HETATM   28  C   UNK N   1      34.875  12.326  12.977  0.00  0.00     0.122 A 
HETATM   29  C   UNK N   1      33.922  11.010  10.789  0.00  0.00     0.183 A 
ATOM     30  HN  UNK N   1      34.565  12.681   9.719  1.00  0.00     0.168 HD
HETATM   31  N   UNK N   1      33.831  10.434  12.033  0.00  0.00    -0.337 N 
HETATM   32  C   UNK N   1      34.302  11.077  13.145  0.00  0.00     0.131 A 
ATOM     33  HN  UNK N   1      33.404   9.513  12.130  1.00  0.00     0.168 HD
HETATM   34  N   UNK N   1      35.420  13.165  13.880  0.00  0.00    -0.346 N 
HETATM   35  C   UNK N   1      35.834  14.233  13.137  0.00  0.00     0.185 A 
ATOM     36  HN  UNK N   1      35.504  13.033  14.888  1.00  0.00     0.167 HD
BRANCH  32  37
HETATM   37  N   UNK N   1      34.209  10.478  14.416  0.00  0.00    -0.383 N 
HETATM   38  H   UNK N   1      33.611  10.850  15.103  0.00  0.00     0.157 HD
HETATM   39  H   UNK N   1      34.749   9.680  14.619  0.00  0.00     0.157 HD
ENDBRANCH  32  37
ENDBRANCH  24  25
ENDBRANCH  23  24
ENDBRANCH  22  23
ENDBRANCH  21  22
ENDBRANCH   1  21
TORSDOF 16
ENDMDL
MODEL 6
REMARK VINA RESULT:      -6.1      7.362     10.833
REMARK  16 active torsions:
REMARK  status: ('A' for Active; 'I' for Inactive)
REMARK    1  A    between atoms: P_1  and  O_5 
REMARK    2  A    between atoms: P_1  and  O_6 
REMARK    3  A    between atoms: P_1  and  C_30 
REMARK    4  A    between atoms: O_2  and  C_29 
REMARK    5  A    between atoms: O_2  and  C_30 
REMARK    6  A    between atoms: O_3  and  C_26 
REMARK    7  A    between atoms: O_3  and  C_32 
REMARK    8  A    between atoms: O_4  and  C_27 
REMARK    9  A    between atoms: O_4  and  C_33 
REMARK   10  A    between atoms: O_5  and  C_32 
REMARK   11  A    between atoms: O_6  and  C_33 
REMARK   12  A    between atoms: N_10  and  C_28 
REMARK   13  A    between atoms: N_17  and  C_36 
REMARK   14  A    between atoms: C_18  and  C_26 
REMARK   15  A    between atoms: C_19  and  C_27 
REMARK   16  A    between atoms: C_28  and  C_29 
ROOT
HETATM    1  P   UNK N   1      23.305  15.793   5.269  0.00  0.00     0.355 P 
HETATM    2  O   UNK N   1      24.708  15.468   5.840  0.00  0.00    -0.256 OA
ENDROOT
BRANCH   1   3
HETATM    3  O   UNK N   1      23.887  17.280   4.550  0.00  0.00    -0.286 OA
BRANCH   3   4
HETATM    4  C   UNK N   1      24.788  16.939   3.534  0.00  0.00     0.358 C 
BRANCH   4   5
HETATM    5  O   UNK N   1      25.860  17.799   3.554  0.00  0.00    -0.294 OA
BRANCH   5   6
HETATM    6  C   UNK N   1      27.159  17.538   3.864  0.00  0.00     0.268 C 
HETATM    7  O   UNK N   1      27.689  16.587   3.308  0.00  0.00    -0.264 OA
BRANCH   6   8
HETATM    8  C   UNK N   1      28.003  18.345   4.847  0.00  0.00     0.037 C 
HETATM    9  C   UNK N   1      28.001  19.847   4.641  0.00  0.00     0.025 C 
HETATM   10  C   UNK N   1      27.502  18.084   6.257  0.00  0.00     0.025 C 
HETATM   11  C   UNK N   1      29.441  17.869   4.758  0.00  0.00     0.025 C 
ENDBRANCH   6   8
ENDBRANCH   5   6
ENDBRANCH   4   5
ENDBRANCH   3   4
ENDBRANCH   1   3
BRANCH   1  12
HETATM   12  O   UNK N   1      22.660  16.005   6.887  0.00  0.00    -0.286 OA
BRANCH  12  13
HETATM   13  C   UNK N   1      21.998  14.826   7.255  0.00  0.00     0.358 C 
BRANCH  13  14
HETATM   14  O   UNK N   1      22.818  14.043   8.039  0.00  0.00    -0.294 OA
BRANCH  14  15
HETATM   15  C   UNK N   1      22.534  13.543   9.268  0.00  0.00     0.268 C 
HETATM   16  O   UNK N   1      21.590  14.028   9.876  0.00  0.00    -0.264 OA
BRANCH  15  17
HETATM   17  C   UNK N   1      23.337  12.424   9.911  0.00  0.00     0.037 C 
HETATM   18  C   UNK N   1      22.772  12.058  11.271  0.00  0.00     0.025 C 
HETATM   19  C   UNK N   1      24.789  12.835  10.116  0.00  0.00     0.025 C 
HETATM   20  C   UNK N   1      23.321  11.204   9.013  0.00  0.00     0.025 C 
ENDBRANCH  15  17
ENDBRANCH  14  15
ENDBRANCH  13  14
ENDBRANCH  12  13
ENDBRANCH   1  12
BRANCH   1  21
HETATM   21  C   UNK N   1      23.303  14.147   4.358  0.00  0.00     0.299 C 
BRANCH  21  22
HETATM   22  O   UNK N   1      22.059  13.766   3.814  0.00  0.00    -0.378 OA
BRANCH  22  23
HETATM   23  C   UNK N   1      21.702  14.624   2.753  0.00  0.00     0.188 C 
BRANCH  23  24
HETATM   24  C   UNK N   1      20.350  15.318   2.905  0.00  0.00     0.157 C 
BRANCH  24  25
HETATM   25  N   UNK N   1      20.299  16.496   2.068  0.00  0.00    -0.325 N 
HETATM   26  C   UNK N   1      20.556  17.742   2.452  0.00  0.00     0.140 A 
HETATM   27  N   UNK N   1      20.918  18.165   3.687  0.00  0.00    -0.336 N 
HETATM   28  C   UNK N   1      20.422  18.571   1.404  0.00  0.00     0.122 A 
HETATM   29  C   UNK N   1      21.151  19.500   3.860  0.00  0.00     0.183 A 
ATOM     30  HN  UNK N   1      21.011  17.509   4.463  1.00  0.00     0.168 HD
HETATM   31  N   UNK N   1      21.021  20.371   2.805  0.00  0.00    -0.337 N 
HETATM   32  C   UNK N   1      20.656  19.927   1.564  0.00  0.00     0.131 A 
ATOM     33  HN  UNK N   1      21.200  21.365   2.948  1.00  0.00     0.168 HD
HETATM   34  N   UNK N   1      20.064  17.871   0.309  0.00  0.00    -0.346 N 
HETATM   35  C   UNK N   1      19.996  16.580   0.747  0.00  0.00     0.185 A 
ATOM     36  HN  UNK N   1      19.886  18.224  -0.631  1.00  0.00     0.167 HD
BRANCH  32  37
HETATM   37  N   UNK N   1      20.530  20.825   0.486  0.00  0.00    -0.383 N 
HETATM   38  H   UNK N   1      20.754  20.543  -0.430  0.00  0.00     0.157 HD
HETATM   39  H   UNK N   1      20.214  21.743   0.651  0.00  0.00     0.157 HD
ENDBRANCH  32  37
ENDBRANCH  24  25
ENDBRANCH  23  24
ENDBRANCH  22  23
ENDBRANCH  21  22
ENDBRANCH   1  21
TORSDOF 16
ENDMDL
MODEL 7
REMARK VINA RESULT:      -6.1      7.964     11.070
REMARK  16 active torsions:
REMARK  status: ('A' for Active; 'I' for Inactive)
REMARK    1  A    between atoms: P_1  and  O_5 
REMARK    2  A    between atoms: P_1  and  O_6 
REMARK    3  A    between atoms: P_1  and  C_30 
REMARK    4  A    between atoms: O_2  and  C_29 
REMARK    5  A    between atoms: O_2  and  C_30 
REMARK    6  A    between atoms: O_3  and  C_26 
REMARK    7  A    between atoms: O_3  and  C_32 
REMARK    8  A    between atoms: O_4  and  C_27 
REMARK    9  A    between atoms: O_4  and  C_33 
REMARK   10  A    between atoms: O_5  and  C_32 
REMARK   11  A    between atoms: O_6  and  C_33 
REMARK   12  A    between atoms: N_10  and  C_28 
REMARK   13  A    between atoms: N_17  and  C_36 
REMARK   14  A    between atoms: C_18  and  C_26 
REMARK   15  A    between atoms: C_19  and  C_27 
REMARK   16  A    between atoms: C_28  and  C_29 
ROOT
HETATM    1  P   UNK N   1      21.304  16.300   6.672  0.00  0.00     0.355 P 
HETATM    2  O   UNK N   1      20.899  17.728   7.118  0.00  0.00    -0.256 OA
ENDROOT
BRANCH   1   3
HETATM    3  O   UNK N   1      21.394  15.752   8.333  0.00  0.00    -0.286 OA
BRANCH   3   4
HETATM    4  C   UNK N   1      20.253  14.981   8.591  0.00  0.00     0.358 C 
BRANCH   4   5
HETATM    5  O   UNK N   1      20.625  13.741   9.051  0.00  0.00    -0.294 OA
BRANCH   5   6
HETATM    6  C   UNK N   1      21.484  12.845   8.494  0.00  0.00     0.268 C 
HETATM    7  O   UNK N   1      21.111  12.261   7.486  0.00  0.00    -0.264 OA
BRANCH   6   8
HETATM    8  C   UNK N   1      22.876  12.519   9.027  0.00  0.00     0.037 C 
HETATM    9  C   UNK N   1      23.047  12.618  10.531  0.00  0.00     0.025 C 
HETATM   10  C   UNK N   1      23.237  11.099   8.627  0.00  0.00     0.025 C 
HETATM   11  C   UNK N   1      23.876  13.463   8.386  0.00  0.00     0.025 C 
ENDBRANCH   6   8
ENDBRANCH   5   6
ENDBRANCH   4   5
ENDBRANCH   3   4
ENDBRANCH   1   3
BRANCH   1  12
HETATM   12  O   UNK N   1      22.833  16.894   6.048  0.00  0.00    -0.286 OA
BRANCH  12  13
HETATM   13  C   UNK N   1      23.546  15.808   5.523  0.00  0.00     0.358 C 
BRANCH  13  14
HETATM   14  O   UNK N   1      24.690  16.249   4.893  0.00  0.00    -0.294 OA
BRANCH  14  15
HETATM   15  C   UNK N   1      25.840  16.657   5.486  0.00  0.00     0.268 C 
HETATM   16  O   UNK N   1      26.273  15.986   6.411  0.00  0.00    -0.264 OA
BRANCH  15  17
HETATM   17  C   UNK N   1      26.595  17.904   5.055  0.00  0.00     0.037 C 
HETATM   18  C   UNK N   1      27.541  18.375   6.143  0.00  0.00     0.025 C 
HETATM   19  C   UNK N   1      25.640  19.051   4.753  0.00  0.00     0.025 C 
HETATM   20  C   UNK N   1      27.384  17.612   3.794  0.00  0.00     0.025 C 
ENDBRANCH  15  17
ENDBRANCH  14  15
ENDBRANCH  13  14
ENDBRANCH  12  13
ENDBRANCH   1  12
BRANCH   1  21
HETATM   21  C   UNK N   1      19.736  16.186   5.639  0.00  0.00     0.299 C 
BRANCH  21  22
HETATM   22  O   UNK N   1      19.462  14.910   5.106  0.00  0.00    -0.378 OA
BRANCH  22  23
HETATM   23  C   UNK N   1      19.493  14.947   3.696  0.00  0.00     0.188 C 
BRANCH  23  24
HETATM   24  C   UNK N   1      20.805  15.438   3.088  0.00  0.00     0.157 C 
BRANCH  24  25
HETATM   25  N   UNK N   1      20.560  16.578   2.231  0.00  0.00    -0.325 N 
HETATM   26  C   UNK N   1      20.967  17.824   2.450  0.00  0.00     0.140 A 
HETATM   27  N   UNK N   1      21.690  18.282   3.500  0.00  0.00    -0.336 N 
HETATM   28  C   UNK N   1      20.565  18.611   1.438  0.00  0.00     0.122 A 
HETATM   29  C   UNK N   1      22.017  19.609   3.517  0.00  0.00     0.183 A 
ATOM     30  HN  UNK N   1      21.980  17.658   4.253  1.00  0.00     0.168 HD
HETATM   31  N   UNK N   1      21.619  20.436   2.494  0.00  0.00    -0.337 N 
HETATM   32  C   UNK N   1      20.890  19.957   1.441  0.00  0.00     0.131 A 
ATOM     33  HN  UNK N   1      21.872  21.424   2.520  1.00  0.00     0.168 HD
HETATM   34  N   UNK N   1      19.876  17.881   0.537  0.00  0.00    -0.346 N 
HETATM   35  C   UNK N   1      19.888  16.618   1.053  0.00  0.00     0.185 A 
ATOM     36  HN  UNK N   1      19.445  18.201  -0.330  1.00  0.00     0.167 HD
BRANCH  32  37
HETATM   37  N   UNK N   1      20.490  20.810   0.394  0.00  0.00    -0.383 N 
HETATM   38  H   UNK N   1      20.983  20.822  -0.458  0.00  0.00     0.157 HD
HETATM   39  H   UNK N   1      19.711  21.400   0.516  0.00  0.00     0.157 HD
ENDBRANCH  32  37
ENDBRANCH  24  25
ENDBRANCH  23  24
ENDBRANCH  22  23
ENDBRANCH  21  22
ENDBRANCH   1  21
TORSDOF 16
ENDMDL
MODEL 8
REMARK VINA RESULT:      -6.1      4.637      9.499
REMARK  16 active torsions:
REMARK  status: ('A' for Active; 'I' for Inactive)
REMARK    1  A    between atoms: P_1  and  O_5 
REMARK    2  A    between atoms: P_1  and  O_6 
REMARK    3  A    between atoms: P_1  and  C_30 
REMARK    4  A    between atoms: O_2  and  C_29 
REMARK    5  A    between atoms: O_2  and  C_30 
REMARK    6  A    between atoms: O_3  and  C_26 
REMARK    7  A    between atoms: O_3  and  C_32 
REMARK    8  A    between atoms: O_4  and  C_27 
REMARK    9  A    between atoms: O_4  and  C_33 
REMARK   10  A    between atoms: O_5  and  C_32 
REMARK   11  A    between atoms: O_6  and  C_33 
REMARK   12  A    between atoms: N_10  and  C_28 
REMARK   13  A    between atoms: N_17  and  C_36 
REMARK   14  A    between atoms: C_18  and  C_26 
REMARK   15  A    between atoms: C_19  and  C_27 
REMARK   16  A    between atoms: C_28  and  C_29 
ROOT
HETATM    1  P   UNK N   1      35.895  15.022  10.460  0.00  0.00     0.355 P 
HETATM    2  O   UNK N   1      36.507  16.428  10.678  0.00  0.00    -0.256 OA
ENDROOT
BRANCH   1   3
HETATM    3  O   UNK N   1      34.852  15.618   9.185  0.00  0.00    -0.286 OA
BRANCH   3   4
HETATM    4  C   UNK N   1      34.618  16.978   9.425  0.00  0.00     0.358 C 
BRANCH   4   5
HETATM    5  O   UNK N   1      33.613  17.429   8.603  0.00  0.00    -0.294 OA
BRANCH   5   6
HETATM    6  C   UNK N   1      33.586  17.494   7.244  0.00  0.00     0.268 C 
HETATM    7  O   UNK N   1      34.489  18.106   6.692  0.00  0.00    -0.264 OA
BRANCH   6   8
HETATM    8  C   UNK N   1      32.519  16.856   6.360  0.00  0.00     0.037 C 
HETATM    9  C   UNK N   1      32.602  15.349   6.207  0.00  0.00     0.025 C 
HETATM   10  C   UNK N   1      31.148  17.174   6.932  0.00  0.00     0.025 C 
HETATM   11  C   UNK N   1      32.608  17.465   4.973  0.00  0.00     0.025 C 
ENDBRANCH   6   8
ENDBRANCH   5   6
ENDBRANCH   4   5
ENDBRANCH   3   4
ENDBRANCH   1   3
BRANCH   1  12
HETATM   12  O   UNK N   1      35.150  15.064  12.049  0.00  0.00    -0.286 OA
BRANCH  12  13
HETATM   13  C   UNK N   1      35.942  14.312  12.926  0.00  0.00     0.358 C 
BRANCH  13  14
HETATM   14  O   UNK N   1      35.152  13.701  13.877  0.00  0.00    -0.294 OA
BRANCH  14  15
HETATM   15  C   UNK N   1      35.007  12.368  14.078  0.00  0.00     0.268 C 
HETATM   16  O   UNK N   1      34.648  11.684  13.131  0.00  0.00    -0.264 OA
BRANCH  15  17
HETATM   17  C   UNK N   1      35.263  11.702  15.421  0.00  0.00     0.037 C 
HETATM   18  C   UNK N   1      36.703  11.240  15.536  0.00  0.00     0.025 C 
HETATM   19  C   UNK N   1      34.375  10.479  15.609  0.00  0.00     0.025 C 
HETATM   20  C   UNK N   1      34.956  12.676  16.540  0.00  0.00     0.025 C 
ENDBRANCH  15  17
ENDBRANCH  14  15
ENDBRANCH  13  14
ENDBRANCH  12  13
ENDBRANCH   1  12
BRANCH   1  21
HETATM   21  C   UNK N   1      37.615  14.332  10.138  0.00  0.00     0.299 C 
BRANCH  21  22
HETATM   22  O   UNK N   1      37.901  14.046   8.787  0.00  0.00    -0.378 OA
BRANCH  22  23
HETATM   23  C   UNK N   1      38.627  12.840   8.682  0.00  0.00     0.188 C 
BRANCH  23  24
HETATM   24  C   UNK N   1      37.878  11.687   8.017  0.00  0.00     0.157 C 
BRANCH  24  25
HETATM   25  N   UNK N   1      36.884  11.154   8.923  0.00  0.00    -0.325 N 
HETATM   26  C   UNK N   1      35.581  11.408   8.892  0.00  0.00     0.140 A 
HETATM   27  N   UNK N   1      34.916  12.203   8.019  0.00  0.00    -0.336 N 
HETATM   28  C   UNK N   1      34.968  10.729   9.877  0.00  0.00     0.122 A 
HETATM   29  C   UNK N   1      33.561  12.311   8.161  0.00  0.00     0.183 A 
ATOM     30  HN  UNK N   1      35.411  12.705   7.282  1.00  0.00     0.168 HD
HETATM   31  N   UNK N   1      32.910  11.627   9.159  0.00  0.00    -0.337 N 
HETATM   32  C   UNK N   1      33.596  10.828  10.032  0.00  0.00     0.131 A 
ATOM     33  HN  UNK N   1      31.898  11.716   9.251  1.00  0.00     0.168 HD
HETATM   34  N   UNK N   1      35.877  10.019  10.576  0.00  0.00    -0.346 N 
HETATM   35  C   UNK N   1      37.063  10.298   9.962  0.00  0.00     0.185 A 
ATOM     36  HN  UNK N   1      35.714   9.412  11.380  1.00  0.00     0.167 HD
BRANCH  32  37
HETATM   37  N   UNK N   1      32.920  10.127  11.049  0.00  0.00    -0.383 N 
HETATM   38  H   UNK N   1      32.385  10.609  11.720  0.00  0.00     0.157 HD
HETATM   39  H   UNK N   1      32.984   9.144  11.089  0.00  0.00     0.157 HD
ENDBRANCH  32  37
ENDBRANCH  24  25
ENDBRANCH  23  24
ENDBRANCH  22  23
ENDBRANCH  21  22
ENDBRANCH   1  21
TORSDOF 16
ENDMDL
MODEL 9
REMARK VINA RESULT:      -6.1     13.875     17.577
REMARK  16 active torsions:
REMARK  status: ('A' for Active; 'I' for Inactive)
REMARK    1  A    between atoms: P_1  and  O_5 
REMARK    2  A    between atoms: P_1  and  O_6 
REMARK    3  A    between atoms: P_1  and  C_30 
REMARK    4  A    between atoms: O_2  and  C_29 
REMARK    5  A    between atoms: O_2  and  C_30 
REMARK    6  A    between atoms: O_3  and  C_26 
REMARK    7  A    between atoms: O_3  and  C_32 
REMARK    8  A    between atoms: O_4  and  C_27 
REMARK    9  A    between atoms: O_4  and  C_33 
REMARK   10  A    between atoms: O_5  and  C_32 
REMARK   11  A    between atoms: O_6  and  C_33 
REMARK   12  A    between atoms: N_10  and  C_28 
REMARK   13  A    between atoms: N_17  and  C_36 
REMARK   14  A    between atoms: C_18  and  C_26 
REMARK   15  A    between atoms: C_19  and  C_27 
REMARK   16  A    between atoms: C_28  and  C_29 
ROOT
HETATM    1  P   UNK N   1      26.309  24.445  -5.193  0.00  0.00     0.355 P 
HETATM    2  O   UNK N   1      24.775  24.626  -5.309  0.00  0.00    -0.256 OA
ENDROOT
BRANCH   1   3
HETATM    3  O   UNK N   1      26.179  24.001  -3.503  0.00  0.00    -0.286 OA
BRANCH   3   4
HETATM    4  C   UNK N   1      27.405  24.290  -2.891  0.00  0.00     0.358 C 
BRANCH   4   5
HETATM    5  O   UNK N   1      28.436  23.842  -3.682  0.00  0.00    -0.294 OA
BRANCH   5   6
HETATM    6  C   UNK N   1      29.618  23.280  -3.307  0.00  0.00     0.268 C 
HETATM    7  O   UNK N   1      30.012  23.503  -2.172  0.00  0.00    -0.264 OA
BRANCH   6   8
HETATM    8  C   UNK N   1      30.482  22.389  -4.194  0.00  0.00     0.037 C 
HETATM    9  C   UNK N   1      30.706  20.976  -3.692  0.00  0.00     0.025 C 
HETATM   10  C   UNK N   1      29.835  22.281  -5.565  0.00  0.00     0.025 C 
HETATM   11  C   UNK N   1      31.842  23.040  -4.361  0.00  0.00     0.025 C 
ENDBRANCH   6   8
ENDBRANCH   5   6
ENDBRANCH   4   5
ENDBRANCH   3   4
ENDBRANCH   1   3
BRANCH   1  12
HETATM   12  O   UNK N   1      26.564  26.163  -5.447  0.00  0.00    -0.286 OA
BRANCH  12  13
HETATM   13  C   UNK N   1      25.323  26.758  -5.709  0.00  0.00     0.358 C 
BRANCH  13  14
HETATM   14  O   UNK N   1      25.252  27.996  -5.107  0.00  0.00    -0.294 OA
BRANCH  14  15
HETATM   15  C   UNK N   1      25.851  28.374  -3.950  0.00  0.00     0.268 C 
HETATM   16  O   UNK N   1      25.489  27.829  -2.917  0.00  0.00    -0.264 OA
BRANCH  15  17
HETATM   17  C   UNK N   1      26.935  29.438  -3.889  0.00  0.00     0.037 C 
HETATM   18  C   UNK N   1      27.933  29.140  -2.786  0.00  0.00     0.025 C 
HETATM   19  C   UNK N   1      26.343  30.813  -3.610  0.00  0.00     0.025 C 
HETATM   20  C   UNK N   1      27.659  29.505  -5.219  0.00  0.00     0.025 C 
ENDBRANCH  15  17
ENDBRANCH  14  15
ENDBRANCH  13  14
ENDBRANCH  12  13
ENDBRANCH   1  12
BRANCH   1  21
HETATM   21  C   UNK N   1      26.258  23.186  -6.589  0.00  0.00     0.299 C 
BRANCH  21  22
HETATM   22  O   UNK N   1      25.169  23.317  -7.474  0.00  0.00    -0.378 OA
BRANCH  22  23
HETATM   23  C   UNK N   1      25.563  24.002  -8.643  0.00  0.00     0.188 C 
BRANCH  23  24
HETATM   24  C   UNK N   1      27.061  23.974  -8.939  0.00  0.00     0.157 C 
BRANCH  24  25
HETATM   25  N   UNK N   1      27.514  25.290  -9.335  0.00  0.00    -0.325 N 
HETATM   26  C   UNK N   1      28.333  26.076  -8.646  0.00  0.00     0.140 A 
HETATM   27  N   UNK N   1      28.913  25.815  -7.450  0.00  0.00    -0.336 N 
HETATM   28  C   UNK N   1      28.540  27.215  -9.328  0.00  0.00     0.122 A 
HETATM   29  C   UNK N   1      29.743  26.766  -6.924  0.00  0.00     0.183 A 
ATOM     30  HN  UNK N   1      28.736  24.940  -6.957  1.00  0.00     0.168 HD
HETATM   31  N   UNK N   1      29.972  27.940  -7.600  0.00  0.00    -0.337 N 
HETATM   32  C   UNK N   1      29.378  28.187  -8.808  0.00  0.00     0.131 A 
ATOM     33  HN  UNK N   1      30.594  28.640  -7.196  1.00  0.00     0.168 HD
HETATM   34  N   UNK N   1      27.844  27.190 -10.482  0.00  0.00    -0.346 N 
HETATM   35  C   UNK N   1      27.214  25.980 -10.465  0.00  0.00     0.185 A 
ATOM     36  HN  UNK N   1      27.798  27.910 -11.203  1.00  0.00     0.167 HD
BRANCH  32  37
HETATM   37  N   UNK N   1      29.622  29.391  -9.497  0.00  0.00    -0.383 N 
HETATM   38  H   UNK N   1      28.928  30.086  -9.551  0.00  0.00     0.157 HD
HETATM   39  H   UNK N   1      30.495  29.537  -9.929  0.00  0.00     0.157 HD
ENDBRANCH  32  37
ENDBRANCH  24  25
ENDBRANCH  23  24
ENDBRANCH  22  23
ENDBRANCH  21  22
ENDBRANCH   1  21
TORSDOF 16
ENDMDL
