MODEL 1
REMARK VINA RESULT:      -4.8      0.000      0.000
REMARK  6 active torsions:
REMARK  status: ('A' for Active; 'I' for Inactive)
REMARK    1  A    between atoms: P_3  and  O_5 
REMARK    2  A    between atoms: P_3  and  O_6 
REMARK    3  A    between atoms: P_3  and  C_11 
REMARK    4  A    between atoms: P_4  and  O_7 
REMARK    5  A    between atoms: P_4  and  O_8 
REMARK    6  A    between atoms: P_4  and  C_11 
ROOT
HETATM    1 Cl   UNK N   1      35.352  15.117   7.357  0.00  0.00    -0.076 Cl
HETATM    2 Cl   UNK N   1      32.577  15.202   8.185  0.00  0.00    -0.076 Cl
HETATM    3  C   UNK N   1      34.176  15.949   8.399  0.00  0.00     0.305 C 
ENDROOT
BRANCH   3   4
HETATM    4  P   UNK N   1      34.086  17.742   7.897  0.00  0.00     0.288 P 
HETATM    5  O   UNK N   1      32.699  18.355   8.233  0.00  0.00    -0.651 OA
BRANCH   4   6
HETATM    6  O   UNK N   1      34.245  17.989   6.186  0.00  0.00    -0.327 OA
HETATM    7  H   UNK N   1      34.286  18.795   5.649  0.00  0.00     0.220 HD
ENDBRANCH   4   6
BRANCH   4   8
HETATM    8  O   UNK N   1      35.227  18.804   8.658  0.00  0.00    -0.327 OA
HETATM    9  H   UNK N   1      35.615  18.894   9.542  0.00  0.00     0.220 HD
ENDBRANCH   4   8
ENDBRANCH   3   4
BRANCH   3  10
HETATM   10  P   UNK N   1      34.702  15.761  10.178  0.00  0.00     0.288 P 
HETATM   11  O   UNK N   1      35.997  14.912  10.295  0.00  0.00    -0.651 OA
BRANCH  10  12
HETATM   12  O   UNK N   1      35.120  17.262  10.942  0.00  0.00    -0.327 OA
HETATM   13  H   UNK N   1      34.818  17.606  11.798  0.00  0.00     0.220 HD
ENDBRANCH  10  12
BRANCH  10  14
HETATM   14  O   UNK N   1      33.569  14.969  11.228  0.00  0.00    -0.327 OA
HETATM   15  H   UNK N   1      33.594  14.312  11.941  0.00  0.00     0.220 HD
ENDBRANCH  10  14
ENDBRANCH   3  10
TORSDOF 6
ENDMDL
MODEL 2
REMARK VINA RESULT:      -4.8      0.111      3.964
REMARK  6 active torsions:
REMARK  status: ('A' for Active; 'I' for Inactive)
REMARK    1  A    between atoms: P_3  and  O_5 
REMARK    2  A    between atoms: P_3  and  O_6 
REMARK    3  A    between atoms: P_3  and  C_11 
REMARK    4  A    between atoms: P_4  and  O_7 
REMARK    5  A    between atoms: P_4  and  O_8 
REMARK    6  A    between atoms: P_4  and  C_11 
ROOT
HETATM    1 Cl   UNK N   1      32.604  15.217   8.157  0.00  0.00    -0.076 Cl
HETATM    2 Cl   UNK N   1      35.384  15.187   7.341  0.00  0.00    -0.076 Cl
HETATM    3  C   UNK N   1      34.192  15.982   8.393  0.00  0.00     0.305 C 
ENDROOT
BRANCH   3   4
HETATM    4  P   UNK N   1      34.706  15.767  10.172  0.00  0.00     0.288 P 
HETATM    5  O   UNK N   1      35.957  14.854  10.293  0.00  0.00    -0.651 OA
BRANCH   4   6
HETATM    6  O   UNK N   1      33.512  14.968  11.146  0.00  0.00    -0.327 OA
HETATM    7  H   UNK N   1      33.509  14.702  12.078  0.00  0.00     0.220 HD
ENDBRANCH   4   6
BRANCH   4   8
HETATM    8  O   UNK N   1      35.144  17.217  11.018  0.00  0.00    -0.327 OA
HETATM    9  H   UNK N   1      35.971  17.644  11.289  0.00  0.00     0.220 HD
ENDBRANCH   4   8
ENDBRANCH   3   4
BRANCH   3  10
HETATM   10  P   UNK N   1      34.073  17.783   7.926  0.00  0.00     0.288 P 
HETATM   11  O   UNK N   1      34.279  17.984   6.400  0.00  0.00    -0.651 OA
BRANCH  10  12
HETATM   12  O   UNK N   1      32.512  18.478   8.229  0.00  0.00    -0.327 OA
HETATM   13  H   UNK N   1      32.047  19.159   7.716  0.00  0.00     0.220 HD
ENDBRANCH  10  12
BRANCH  10  14
HETATM   14  O   UNK N   1      35.236  18.840   8.662  0.00  0.00    -0.327 OA
HETATM   15  H   UNK N   1      35.229  19.656   9.187  0.00  0.00     0.220 HD
ENDBRANCH  10  14
ENDBRANCH   3  10
TORSDOF 6
ENDMDL
MODEL 3
REMARK VINA RESULT:      -4.7      0.204      3.949
REMARK  6 active torsions:
REMARK  status: ('A' for Active; 'I' for Inactive)
REMARK    1  A    between atoms: P_3  and  O_5 
REMARK    2  A    between atoms: P_3  and  O_6 
REMARK    3  A    between atoms: P_3  and  C_11 
REMARK    4  A    between atoms: P_4  and  O_7 
REMARK    5  A    between atoms: P_4  and  O_8 
REMARK    6  A    between atoms: P_4  and  C_11 
ROOT
HETATM    1 Cl   UNK N   1      32.685  15.230   8.228  0.00  0.00    -0.076 Cl
HETATM    2 Cl   UNK N   1      35.422  15.242   7.277  0.00  0.00    -0.076 Cl
HETATM    3  C   UNK N   1      34.265  16.033   8.372  0.00  0.00     0.305 C 
ENDROOT
BRANCH   3   4
HETATM    4  P   UNK N   1      34.870  15.864  10.127  0.00  0.00     0.288 P 
HETATM    5  O   UNK N   1      35.177  17.251  10.755  0.00  0.00    -0.651 OA
BRANCH   4   6
HETATM    6  O   UNK N   1      36.373  15.006  10.261  0.00  0.00    -0.327 OA
HETATM    7  H   UNK N   1      37.151  14.968   9.683  0.00  0.00     0.220 HD
ENDBRANCH   4   6
BRANCH   4   8
HETATM    8  O   UNK N   1      33.772  15.116  11.242  0.00  0.00    -0.327 OA
HETATM    9  H   UNK N   1      33.608  14.215  11.562  0.00  0.00     0.220 HD
ENDBRANCH   4   8
ENDBRANCH   3   4
BRANCH   3  10
HETATM   10  P   UNK N   1      34.084  17.821   7.877  0.00  0.00     0.288 P 
HETATM   11  O   UNK N   1      34.213  17.996   6.340  0.00  0.00    -0.651 OA
BRANCH  10  12
HETATM   12  O   UNK N   1      32.524  18.488   8.241  0.00  0.00    -0.327 OA
HETATM   13  H   UNK N   1      31.686  18.350   7.770  0.00  0.00     0.220 HD
ENDBRANCH  10  12
BRANCH  10  14
HETATM   14  O   UNK N   1      35.257  18.917   8.537  0.00  0.00    -0.327 OA
HETATM   15  H   UNK N   1      35.523  19.841   8.409  0.00  0.00     0.220 HD
ENDBRANCH  10  14
ENDBRANCH   3  10
TORSDOF 6
ENDMDL
MODEL 4
REMARK VINA RESULT:      -4.7      0.509      2.030
REMARK  6 active torsions:
REMARK  status: ('A' for Active; 'I' for Inactive)
REMARK    1  A    between atoms: P_3  and  O_5 
REMARK    2  A    between atoms: P_3  and  O_6 
REMARK    3  A    between atoms: P_3  and  C_11 
REMARK    4  A    between atoms: P_4  and  O_7 
REMARK    5  A    between atoms: P_4  and  O_8 
REMARK    6  A    between atoms: P_4  and  C_11 
ROOT
HETATM    1 Cl   UNK N   1      35.589  15.278   7.361  0.00  0.00    -0.076 Cl
HETATM    2 Cl   UNK N   1      32.959  15.153   8.570  0.00  0.00    -0.076 Cl
HETATM    3  C   UNK N   1      34.482  16.068   8.505  0.00  0.00     0.305 C 
ENDROOT
BRANCH   3   4
HETATM    4  P   UNK N   1      34.130  17.798   7.907  0.00  0.00     0.288 P 
HETATM    5  O   UNK N   1      34.225  17.892   6.359  0.00  0.00    -0.651 OA
BRANCH   4   6
HETATM    6  O   UNK N   1      35.282  18.971   8.465  0.00  0.00    -0.327 OA
HETATM    7  H   UNK N   1      35.284  19.561   9.234  0.00  0.00     0.220 HD
ENDBRANCH   4   6
BRANCH   4   8
HETATM    8  O   UNK N   1      32.558  18.429   8.284  0.00  0.00    -0.327 OA
HETATM    9  H   UNK N   1      32.139  19.304   8.286  0.00  0.00     0.220 HD
ENDBRANCH   4   8
ENDBRANCH   3   4
BRANCH   3  10
HETATM   10  P   UNK N   1      35.262  16.074  10.199  0.00  0.00     0.288 P 
HETATM   11  O   UNK N   1      35.450  17.522  10.727  0.00  0.00    -0.651 OA
BRANCH  10  12
HETATM   12  O   UNK N   1      34.286  15.313  11.415  0.00  0.00    -0.327 OA
HETATM   13  H   UNK N   1      34.576  14.865  12.226  0.00  0.00     0.220 HD
ENDBRANCH  10  12
BRANCH  10  14
HETATM   14  O   UNK N   1      36.840  15.362  10.313  0.00  0.00    -0.327 OA
HETATM   15  H   UNK N   1      37.358  14.874  10.973  0.00  0.00     0.220 HD
ENDBRANCH  10  14
ENDBRANCH   3  10
TORSDOF 6
ENDMDL
MODEL 5
REMARK VINA RESULT:      -4.4      1.657      2.769
REMARK  6 active torsions:
REMARK  status: ('A' for Active; 'I' for Inactive)
REMARK    1  A    between atoms: P_3  and  O_5 
REMARK    2  A    between atoms: P_3  and  O_6 
REMARK    3  A    between atoms: P_3  and  C_11 
REMARK    4  A    between atoms: P_4  and  O_7 
REMARK    5  A    between atoms: P_4  and  O_8 
REMARK    6  A    between atoms: P_4  and  C_11 
ROOT
HETATM    1 Cl   UNK N   1      35.617  14.959   8.555  0.00  0.00    -0.076 Cl
HETATM    2 Cl   UNK N   1      33.568  14.975   6.506  0.00  0.00    -0.076 Cl
HETATM    3  C   UNK N   1      34.005  15.574   8.122  0.00  0.00     0.305 C 
ENDROOT
BRANCH   3   4
HETATM    4  P   UNK N   1      34.059  17.436   8.090  0.00  0.00     0.288 P 
HETATM    5  O   UNK N   1      34.544  17.966   6.712  0.00  0.00    -0.651 OA
BRANCH   4   6
HETATM    6  O   UNK N   1      35.191  18.115   9.218  0.00  0.00    -0.327 OA
HETATM    7  H   UNK N   1      35.540  17.789  10.061  0.00  0.00     0.220 HD
ENDBRANCH   4   6
BRANCH   4   8
HETATM    8  O   UNK N   1      32.548  18.246   8.358  0.00  0.00    -0.327 OA
HETATM    9  H   UNK N   1      31.688  18.285   7.912  0.00  0.00     0.220 HD
ENDBRANCH   4   8
ENDBRANCH   3   4
BRANCH   3  10
HETATM   10  P   UNK N   1      32.763  14.944   9.361  0.00  0.00     0.288 P 
HETATM   11  O   UNK N   1      31.427  15.730   9.269  0.00  0.00    -0.651 OA
BRANCH  10  12
HETATM   12  O   UNK N   1      32.292  13.295   9.097  0.00  0.00    -0.327 OA
HETATM   13  H   UNK N   1      32.695  12.489   9.458  0.00  0.00     0.220 HD
ENDBRANCH  10  12
BRANCH  10  14
HETATM   14  O   UNK N   1      33.223  15.066  11.030  0.00  0.00    -0.327 OA
HETATM   15  H   UNK N   1      33.261  15.755  11.712  0.00  0.00     0.220 HD
ENDBRANCH  10  14
ENDBRANCH   3  10
TORSDOF 6
ENDMDL
MODEL 6
REMARK VINA RESULT:      -4.3      1.512      2.165
REMARK  6 active torsions:
REMARK  status: ('A' for Active; 'I' for Inactive)
REMARK    1  A    between atoms: P_3  and  O_5 
REMARK    2  A    between atoms: P_3  and  O_6 
REMARK    3  A    between atoms: P_3  and  C_11 
REMARK    4  A    between atoms: P_4  and  O_7 
REMARK    5  A    between atoms: P_4  and  O_8 
REMARK    6  A    between atoms: P_4  and  C_11 
ROOT
HETATM    1 Cl   UNK N   1      35.589  14.878   7.412  0.00  0.00    -0.076 Cl
HETATM    2 Cl   UNK N   1      32.774  15.055   6.747  0.00  0.00    -0.076 Cl
HETATM    3  C   UNK N   1      33.980  15.317   8.028  0.00  0.00     0.305 C 
ENDROOT
BRANCH   3   4
HETATM    4  P   UNK N   1      33.986  17.119   8.503  0.00  0.00     0.288 P 
HETATM    5  O   UNK N   1      34.881  17.374   9.747  0.00  0.00    -0.651 OA
BRANCH   4   6
HETATM    6  O   UNK N   1      32.427  17.713   8.984  0.00  0.00    -0.327 OA
HETATM    7  H   UNK N   1      31.736  17.334   9.549  0.00  0.00     0.220 HD
ENDBRANCH   4   6
BRANCH   4   8
HETATM    8  O   UNK N   1      34.586  18.220   7.304  0.00  0.00    -0.327 OA
HETATM    9  H   UNK N   1      34.236  18.984   6.820  0.00  0.00     0.220 HD
ENDBRANCH   4   8
ENDBRANCH   3   4
BRANCH   3  10
HETATM   10  P   UNK N   1      33.569  14.225   9.483  0.00  0.00     0.288 P 
HETATM   11  O   UNK N   1      34.821  13.451   9.977  0.00  0.00    -0.651 OA
BRANCH  10  12
HETATM   12  O   UNK N   1      33.044  15.104  10.884  0.00  0.00    -0.327 OA
HETATM   13  H   UNK N   1      32.853  14.762  11.772  0.00  0.00     0.220 HD
ENDBRANCH  10  12
BRANCH  10  14
HETATM   14  O   UNK N   1      32.381  12.992   9.199  0.00  0.00    -0.327 OA
HETATM   15  H   UNK N   1      32.368  12.033   9.051  0.00  0.00     0.220 HD
ENDBRANCH  10  14
ENDBRANCH   3  10
TORSDOF 6
ENDMDL
MODEL 7
REMARK VINA RESULT:      -4.2      2.384      2.876
REMARK  6 active torsions:
REMARK  status: ('A' for Active; 'I' for Inactive)
REMARK    1  A    between atoms: P_3  and  O_5 
REMARK    2  A    between atoms: P_3  and  O_6 
REMARK    3  A    between atoms: P_3  and  C_11 
REMARK    4  A    between atoms: P_4  and  O_7 
REMARK    5  A    between atoms: P_4  and  O_8 
REMARK    6  A    between atoms: P_4  and  C_11 
ROOT
HETATM    1 Cl   UNK N   1      31.156  16.039   6.407  0.00  0.00    -0.076 Cl
HETATM    2 Cl   UNK N   1      31.733  17.897   8.555  0.00  0.00    -0.076 Cl
HETATM    3  C   UNK N   1      32.387  16.563   7.578  0.00  0.00     0.305 C 
ENDROOT
BRANCH   3   4
HETATM    4  P   UNK N   1      33.886  17.166   6.648  0.00  0.00     0.288 P 
HETATM    5  O   UNK N   1      34.622  18.290   7.427  0.00  0.00    -0.651 OA
BRANCH   4   6
HETATM    6  O   UNK N   1      33.504  17.900   5.122  0.00  0.00    -0.327 OA
HETATM    7  H   UNK N   1      33.098  18.751   4.896  0.00  0.00     0.220 HD
ENDBRANCH   4   6
BRANCH   4   8
HETATM    8  O   UNK N   1      35.114  15.980   6.333  0.00  0.00    -0.327 OA
HETATM    9  H   UNK N   1      35.146  15.015   6.245  0.00  0.00     0.220 HD
ENDBRANCH   4   8
ENDBRANCH   3   4
BRANCH   3  10
HETATM   10  P   UNK N   1      32.805  15.134   8.700  0.00  0.00     0.288 P 
HETATM   11  O   UNK N   1      34.320  15.107   9.037  0.00  0.00    -0.651 OA
BRANCH  10  12
HETATM   12  O   UNK N   1      32.037  15.224  10.254  0.00  0.00    -0.327 OA
HETATM   13  H   UNK N   1      31.240  15.720  10.503  0.00  0.00     0.220 HD
ENDBRANCH  10  12
BRANCH  10  14
HETATM   14  O   UNK N   1      32.471  13.551   8.073  0.00  0.00    -0.327 OA
HETATM   15  H   UNK N   1      31.981  12.761   8.351  0.00  0.00     0.220 HD
ENDBRANCH  10  14
ENDBRANCH   3  10
TORSDOF 6
ENDMDL
MODEL 8
REMARK VINA RESULT:      -4.2     18.048     18.849
REMARK  6 active torsions:
REMARK  status: ('A' for Active; 'I' for Inactive)
REMARK    1  A    between atoms: P_3  and  O_5 
REMARK    2  A    between atoms: P_3  and  O_6 
REMARK    3  A    between atoms: P_3  and  C_11 
REMARK    4  A    between atoms: P_4  and  O_7 
REMARK    5  A    between atoms: P_4  and  O_8 
REMARK    6  A    between atoms: P_4  and  C_11 
ROOT
HETATM    1 Cl   UNK N   1      27.104  27.526  -6.592  0.00  0.00    -0.076 Cl
HETATM    2 Cl   UNK N   1      24.373  27.305  -5.649  0.00  0.00    -0.076 Cl
HETATM    3  C   UNK N   1      26.078  27.022  -5.230  0.00  0.00     0.305 C 
ENDROOT
BRANCH   3   4
HETATM    4  P   UNK N   1      26.517  28.043  -3.734  0.00  0.00     0.288 P 
HETATM    5  O   UNK N   1      25.891  27.451  -2.441  0.00  0.00    -0.651 OA
BRANCH   4   6
HETATM    6  O   UNK N   1      25.893  29.662  -3.793  0.00  0.00    -0.327 OA
HETATM    7  H   UNK N   1      25.687  30.303  -3.095  0.00  0.00     0.220 HD
ENDBRANCH   4   6
BRANCH   4   8
HETATM    8  O   UNK N   1      28.209  28.178  -3.374  0.00  0.00    -0.327 OA
HETATM    9  H   UNK N   1      28.787  27.936  -2.634  0.00  0.00     0.220 HD
ENDBRANCH   4   8
ENDBRANCH   3   4
BRANCH   3  10
HETATM   10  P   UNK N   1      26.334  25.202  -4.919  0.00  0.00     0.288 P 
HETATM   11  O   UNK N   1      25.186  24.358  -5.536  0.00  0.00    -0.651 OA
BRANCH  10  12
HETATM   12  O   UNK N   1      27.765  24.564  -5.666  0.00  0.00    -0.327 OA
HETATM   13  H   UNK N   1      27.933  23.657  -5.967  0.00  0.00     0.220 HD
ENDBRANCH  10  12
BRANCH  10  14
HETATM   14  O   UNK N   1      26.385  24.714  -3.254  0.00  0.00    -0.327 OA
HETATM   15  H   UNK N   1      27.024  24.729  -2.524  0.00  0.00     0.220 HD
ENDBRANCH  10  14
ENDBRANCH   3  10
TORSDOF 6
ENDMDL
MODEL 9
REMARK VINA RESULT:      -4.2      1.791      4.157
REMARK  6 active torsions:
REMARK  status: ('A' for Active; 'I' for Inactive)
REMARK    1  A    between atoms: P_3  and  O_5 
REMARK    2  A    between atoms: P_3  and  O_6 
REMARK    3  A    between atoms: P_3  and  C_11 
REMARK    4  A    between atoms: P_4  and  O_7 
REMARK    5  A    between atoms: P_4  and  O_8 
REMARK    6  A    between atoms: P_4  and  C_11 
ROOT
HETATM    1 Cl   UNK N   1      31.194  16.939   7.820  0.00  0.00    -0.076 Cl
HETATM    2 Cl   UNK N   1      32.388  14.515   6.772  0.00  0.00    -0.076 Cl
HETATM    3  C   UNK N   1      32.720  16.053   7.601  0.00  0.00     0.305 C 
ENDROOT
BRANCH   3   4
HETATM    4  P   UNK N   1      33.456  15.698   9.277  0.00  0.00     0.288 P 
HETATM    5  O   UNK N   1      34.525  14.573   9.198  0.00  0.00    -0.651 OA
BRANCH   4   6
HETATM    6  O   UNK N   1      32.303  15.094  10.425  0.00  0.00    -0.327 OA
HETATM    7  H   UNK N   1      32.061  15.390  11.317  0.00  0.00     0.220 HD
ENDBRANCH   4   6
BRANCH   4   8
HETATM    8  O   UNK N   1      34.274  17.021  10.045  0.00  0.00    -0.327 OA
HETATM    9  H   UNK N   1      35.165  17.186  10.388  0.00  0.00     0.220 HD
ENDBRANCH   4   8
ENDBRANCH   3   4
BRANCH   3  10
HETATM   10  P   UNK N   1      33.870  17.076   6.549  0.00  0.00     0.288 P 
HETATM   11  O   UNK N   1      35.037  16.216   5.992  0.00  0.00    -0.651 OA
BRANCH  10  12
HETATM   12  O   UNK N   1      33.117  17.725   5.127  0.00  0.00    -0.327 OA
HETATM   13  H   UNK N   1      32.909  17.270   4.296  0.00  0.00     0.220 HD
ENDBRANCH  10  12
BRANCH  10  14
HETATM   14  O   UNK N   1      34.652  18.404   7.346  0.00  0.00    -0.327 OA
HETATM   15  H   UNK N   1      34.599  19.373   7.340  0.00  0.00     0.220 HD
ENDBRANCH  10  14
ENDBRANCH   3  10
TORSDOF 6
ENDMDL
