MODEL 1
REMARK VINA RESULT:      -5.3      0.000      0.000
REMARK  8 active torsions:
REMARK  status: ('A' for Active; 'I' for Inactive)
REMARK    1  A    between atoms: O_1  and  C_8 
REMARK    2  A    between atoms: O_1  and  C_11 
REMARK    3  A    between atoms: N_3  and  C_5 
REMARK    4  A    between atoms: N_3  and  C_6 
REMARK    5  A    between atoms: N_3  and  C_7 
REMARK    6  A    between atoms: N_4  and  C_15 
REMARK    7  A    between atoms: C_5  and  C_8 
REMARK    8  A    between atoms: C_11  and  C_12 
ROOT
HETATM    1  O   UNK N   1      35.258  19.185   8.330  0.00  0.00    -0.259 OA
HETATM    2  C   UNK N   1      34.588  18.198   8.598  0.00  0.00     0.293 C 
ENDROOT
BRANCH   2   3
HETATM    3  O   UNK N   1      34.884  17.529   9.743  0.00  0.00    -0.316 OA
BRANCH   3   4
HETATM    4  C   UNK N   1      35.127  16.181   9.881  0.00  0.00     0.209 C 
BRANCH   4   5
HETATM    5  C   UNK N   1      35.575  15.876  11.312  0.00  0.00     0.299 C 
BRANCH   5   6
HETATM    6  N   UNK N   1      36.407  14.675  11.396  0.00  0.00     0.089 N 
BRANCH   6   7
HETATM    7  C   UNK N   1      35.583  13.663  12.050  0.00  0.00     0.268 C 
HETATM    8  C   UNK N   1      35.675  13.762  13.566  0.00  0.00     0.037 C 
ENDBRANCH   6   7
BRANCH   6   9
HETATM    9  C   UNK N   1      36.662  14.218  10.032  0.00  0.00     0.268 C 
HETATM   10  C   UNK N   1      38.144  13.946   9.842  0.00  0.00     0.037 C 
ENDBRANCH   6   9
ENDBRANCH   5   6
ENDBRANCH   4   5
ENDBRANCH   3   4
ENDBRANCH   2   3
BRANCH   2  11
HETATM   11  C   UNK N   1      33.517  17.793   7.640  0.00  0.00     0.039 A 
HETATM   12  C   UNK N   1      33.773  17.557   6.279  0.00  0.00     0.020 A 
HETATM   13  C   UNK N   1      32.733  17.198   5.414  0.00  0.00     0.030 A 
HETATM   14  C   UNK N   1      31.429  17.071   5.900  0.00  0.00     0.025 A 
HETATM   15  C   UNK N   1      31.163  17.304   7.249  0.00  0.00     0.030 A 
HETATM   16  C   UNK N   1      32.199  17.664   8.111  0.00  0.00     0.020 A 
BRANCH  14  17
HETATM   17  N   UNK N   1      30.382  16.711   5.029  0.00  0.00    -0.399 N 
HETATM   18  H   UNK N   1      30.105  17.324   4.311  0.00  0.00     0.156 HD
HETATM   19  H   UNK N   1      29.928  15.844   5.138  0.00  0.00     0.156 HD
ENDBRANCH  14  17
ENDBRANCH   2  11
TORSDOF 8
ENDMDL
MODEL 2
REMARK VINA RESULT:      -5.2      1.445      2.515
REMARK  8 active torsions:
REMARK  status: ('A' for Active; 'I' for Inactive)
REMARK    1  A    between atoms: O_1  and  C_8 
REMARK    2  A    between atoms: O_1  and  C_11 
REMARK    3  A    between atoms: N_3  and  C_5 
REMARK    4  A    between atoms: N_3  and  C_6 
REMARK    5  A    between atoms: N_3  and  C_7 
REMARK    6  A    between atoms: N_4  and  C_15 
REMARK    7  A    between atoms: C_5  and  C_8 
REMARK    8  A    between atoms: C_11  and  C_12 
ROOT
HETATM    1  O   UNK N   1      35.253  19.054   8.351  0.00  0.00    -0.259 OA
HETATM    2  C   UNK N   1      34.529  18.111   8.634  0.00  0.00     0.293 C 
ENDROOT
BRANCH   2   3
HETATM    3  O   UNK N   1      34.798  17.433   9.782  0.00  0.00    -0.316 OA
BRANCH   3   4
HETATM    4  C   UNK N   1      35.295  16.155   9.896  0.00  0.00     0.209 C 
BRANCH   4   5
HETATM    5  C   UNK N   1      34.248  15.244  10.542  0.00  0.00     0.299 C 
BRANCH   5   6
HETATM    6  N   UNK N   1      34.166  13.935   9.894  0.00  0.00     0.089 N 
BRANCH   6   7
HETATM    7  C   UNK N   1      34.251  14.194   8.460  0.00  0.00     0.268 C 
HETATM    8  C   UNK N   1      32.903  14.004   7.778  0.00  0.00     0.037 C 
ENDBRANCH   6   7
BRANCH   6   9
HETATM    9  C   UNK N   1      35.357  13.179  10.273  0.00  0.00     0.268 C 
HETATM   10  C   UNK N   1      35.120  12.457  11.588  0.00  0.00     0.037 C 
ENDBRANCH   6   9
ENDBRANCH   5   6
ENDBRANCH   4   5
ENDBRANCH   3   4
ENDBRANCH   2   3
BRANCH   2  11
HETATM   11  C   UNK N   1      33.423  17.763   7.693  0.00  0.00     0.039 A 
HETATM   12  C   UNK N   1      32.092  17.612   8.117  0.00  0.00     0.020 A 
HETATM   13  C   UNK N   1      31.091  17.266   7.202  0.00  0.00     0.030 A 
HETATM   14  C   UNK N   1      31.410  17.068   5.856  0.00  0.00     0.025 A 
HETATM   15  C   UNK N   1      32.729  17.214   5.424  0.00  0.00     0.030 A 
HETATM   16  C   UNK N   1      33.727  17.557   6.337  0.00  0.00     0.020 A 
BRANCH  14  17
HETATM   17  N   UNK N   1      30.404  16.719   4.935  0.00  0.00    -0.399 N 
HETATM   18  H   UNK N   1      29.764  16.003   5.152  0.00  0.00     0.156 HD
HETATM   19  H   UNK N   1      30.339  17.191   4.073  0.00  0.00     0.156 HD
ENDBRANCH  14  17
ENDBRANCH   2  11
TORSDOF 8
ENDMDL
MODEL 3
REMARK VINA RESULT:      -5.1     13.574     16.639
REMARK  8 active torsions:
REMARK  status: ('A' for Active; 'I' for Inactive)
REMARK    1  A    between atoms: O_1  and  C_8 
REMARK    2  A    between atoms: O_1  and  C_11 
REMARK    3  A    between atoms: N_3  and  C_5 
REMARK    4  A    between atoms: N_3  and  C_6 
REMARK    5  A    between atoms: N_3  and  C_7 
REMARK    6  A    between atoms: N_4  and  C_15 
REMARK    7  A    between atoms: C_5  and  C_8 
REMARK    8  A    between atoms: C_11  and  C_12 
ROOT
HETATM    1  O   UNK N   1      30.411  23.035  -1.323  0.00  0.00    -0.259 OA
HETATM    2  C   UNK N   1      30.076  22.709  -2.453  0.00  0.00     0.293 C 
ENDROOT
BRANCH   2   3
HETATM    3  O   UNK N   1      28.884  23.171  -2.913  0.00  0.00    -0.316 OA
BRANCH   3   4
HETATM    4  C   UNK N   1      28.665  24.301  -3.669  0.00  0.00     0.209 C 
BRANCH   4   5
HETATM    5  C   UNK N   1      27.188  24.698  -3.597  0.00  0.00     0.299 C 
BRANCH   5   6
HETATM    6  N   UNK N   1      26.699  25.269  -4.851  0.00  0.00     0.089 N 
BRANCH   6   7
HETATM    7  C   UNK N   1      25.553  24.454  -5.241  0.00  0.00     0.268 C 
HETATM    8  C   UNK N   1      25.969  23.307  -6.152  0.00  0.00     0.037 C 
ENDBRANCH   6   7
BRANCH   6   9
HETATM    9  C   UNK N   1      26.202  26.612  -4.562  0.00  0.00     0.268 C 
HETATM   10  C   UNK N   1      25.078  26.970  -5.518  0.00  0.00     0.037 C 
ENDBRANCH   6   9
ENDBRANCH   5   6
ENDBRANCH   4   5
ENDBRANCH   3   4
ENDBRANCH   2   3
BRANCH   2  11
HETATM   11  C   UNK N   1      30.988  21.815  -3.228  0.00  0.00     0.039 A 
HETATM   12  C   UNK N   1      30.546  21.059  -4.326  0.00  0.00     0.020 A 
HETATM   13  C   UNK N   1      31.431  20.219  -5.011  0.00  0.00     0.030 A 
HETATM   14  C   UNK N   1      32.765  20.126  -4.605  0.00  0.00     0.025 A 
HETATM   15  C   UNK N   1      33.215  20.872  -3.515  0.00  0.00     0.030 A 
HETATM   16  C   UNK N   1      32.331  21.708  -2.831  0.00  0.00     0.020 A 
BRANCH  14  17
HETATM   17  N   UNK N   1      33.656  19.280  -5.293  0.00  0.00    -0.399 N 
HETATM   18  H   UNK N   1      34.257  18.684  -4.791  0.00  0.00     0.156 HD
HETATM   19  H   UNK N   1      33.678  19.285  -6.278  0.00  0.00     0.156 HD
ENDBRANCH  14  17
ENDBRANCH   2  11
TORSDOF 8
ENDMDL
MODEL 4
REMARK VINA RESULT:      -5.1      4.382      9.540
REMARK  8 active torsions:
REMARK  status: ('A' for Active; 'I' for Inactive)
REMARK    1  A    between atoms: O_1  and  C_8 
REMARK    2  A    between atoms: O_1  and  C_11 
REMARK    3  A    between atoms: N_3  and  C_5 
REMARK    4  A    between atoms: N_3  and  C_6 
REMARK    5  A    between atoms: N_3  and  C_7 
REMARK    6  A    between atoms: N_4  and  C_15 
REMARK    7  A    between atoms: C_5  and  C_8 
REMARK    8  A    between atoms: C_11  and  C_12 
ROOT
HETATM    1  O   UNK N   1      34.174  12.184  14.410  0.00  0.00    -0.259 OA
HETATM    2  C   UNK N   1      34.975  12.844  15.054  0.00  0.00     0.293 C 
ENDROOT
BRANCH   2   3
HETATM    3  O   UNK N   1      35.688  13.792  14.390  0.00  0.00    -0.316 OA
BRANCH   3   4
HETATM    4  C   UNK N   1      36.246  13.687  13.136  0.00  0.00     0.209 C 
BRANCH   4   5
HETATM    5  C   UNK N   1      35.405  14.469  12.124  0.00  0.00     0.299 C 
BRANCH   5   6
HETATM    6  N   UNK N   1      36.215  15.343  11.277  0.00  0.00     0.089 N 
BRANCH   6   7
HETATM    7  C   UNK N   1      36.379  14.635  10.012  0.00  0.00     0.268 C 
HETATM    8  C   UNK N   1      37.824  14.212   9.792  0.00  0.00     0.037 C 
ENDBRANCH   6   7
BRANCH   6   9
HETATM    9  C   UNK N   1      35.433  16.547  11.007  0.00  0.00     0.268 C 
HETATM   10  C   UNK N   1      34.782  16.450   9.639  0.00  0.00     0.037 C 
ENDBRANCH   6   9
ENDBRANCH   5   6
ENDBRANCH   4   5
ENDBRANCH   3   4
ENDBRANCH   2   3
BRANCH   2  11
HETATM   11  C   UNK N   1      35.125  12.546  16.510  0.00  0.00     0.039 A 
HETATM   12  C   UNK N   1      35.032  13.542  17.496  0.00  0.00     0.020 A 
HETATM   13  C   UNK N   1      35.199  13.220  18.848  0.00  0.00     0.030 A 
HETATM   14  C   UNK N   1      35.461  11.900  19.226  0.00  0.00     0.025 A 
HETATM   15  C   UNK N   1      35.556  10.903  18.256  0.00  0.00     0.030 A 
HETATM   16  C   UNK N   1      35.391  11.225  16.908  0.00  0.00     0.020 A 
BRANCH  14  17
HETATM   17  N   UNK N   1      35.629  11.575  20.586  0.00  0.00    -0.399 N 
HETATM   18  H   UNK N   1      35.181  12.111  21.280  0.00  0.00     0.156 HD
HETATM   19  H   UNK N   1      36.195  10.812  20.843  0.00  0.00     0.156 HD
ENDBRANCH  14  17
ENDBRANCH   2  11
TORSDOF 8
ENDMDL
MODEL 5
REMARK VINA RESULT:      -5.1      8.982     11.895
REMARK  8 active torsions:
REMARK  status: ('A' for Active; 'I' for Inactive)
REMARK    1  A    between atoms: O_1  and  C_8 
REMARK    2  A    between atoms: O_1  and  C_11 
REMARK    3  A    between atoms: N_3  and  C_5 
REMARK    4  A    between atoms: N_3  and  C_6 
REMARK    5  A    between atoms: N_3  and  C_7 
REMARK    6  A    between atoms: N_4  and  C_15 
REMARK    7  A    between atoms: C_5  and  C_8 
REMARK    8  A    between atoms: C_11  and  C_12 
ROOT
HETATM    1  O   UNK N   1      24.565  20.961   2.191  0.00  0.00    -0.259 OA
HETATM    2  C   UNK N   1      24.062  20.344   3.118  0.00  0.00     0.293 C 
ENDROOT
BRANCH   2   3
HETATM    3  O   UNK N   1      24.840  20.099   4.206  0.00  0.00    -0.316 OA
BRANCH   3   4
HETATM    4  C   UNK N   1      25.806  19.127   4.336  0.00  0.00     0.209 C 
BRANCH   4   5
HETATM    5  C   UNK N   1      27.180  19.708   3.993  0.00  0.00     0.299 C 
BRANCH   5   6
HETATM    6  N   UNK N   1      28.152  19.523   5.070  0.00  0.00     0.089 N 
BRANCH   6   7
HETATM    7  C   UNK N   1      27.512  20.035   6.278  0.00  0.00     0.268 C 
HETATM    8  C   UNK N   1      27.486  21.557   6.294  0.00  0.00     0.037 C 
ENDBRANCH   6   7
BRANCH   6   9
HETATM    9  C   UNK N   1      28.344  18.087   5.251  0.00  0.00     0.268 C 
HETATM   10  C   UNK N   1      29.731  17.682   4.786  0.00  0.00     0.037 C 
ENDBRANCH   6   9
ENDBRANCH   5   6
ENDBRANCH   4   5
ENDBRANCH   3   4
ENDBRANCH   2   3
BRANCH   2  11
HETATM   11  C   UNK N   1      22.647  19.889   2.977  0.00  0.00     0.039 A 
HETATM   12  C   UNK N   1      22.159  18.737   3.615  0.00  0.00     0.020 A 
HETATM   13  C   UNK N   1      20.829  18.338   3.439  0.00  0.00     0.030 A 
HETATM   14  C   UNK N   1      19.975  19.085   2.623  0.00  0.00     0.025 A 
HETATM   15  C   UNK N   1      20.449  20.231   1.984  0.00  0.00     0.030 A 
HETATM   16  C   UNK N   1      21.776  20.627   2.159  0.00  0.00     0.020 A 
BRANCH  14  17
HETATM   17  N   UNK N   1      18.637  18.683   2.445  0.00  0.00    -0.399 N 
HETATM   18  H   UNK N   1      18.080  18.464   3.226  0.00  0.00     0.156 HD
HETATM   19  H   UNK N   1      18.259  18.622   1.538  0.00  0.00     0.156 HD
ENDBRANCH  14  17
ENDBRANCH   2  11
TORSDOF 8
ENDMDL
MODEL 6
REMARK VINA RESULT:      -5.1      4.580      9.354
REMARK  8 active torsions:
REMARK  status: ('A' for Active; 'I' for Inactive)
REMARK    1  A    between atoms: O_1  and  C_8 
REMARK    2  A    between atoms: O_1  and  C_11 
REMARK    3  A    between atoms: N_3  and  C_5 
REMARK    4  A    between atoms: N_3  and  C_6 
REMARK    5  A    between atoms: N_3  and  C_7 
REMARK    6  A    between atoms: N_4  and  C_15 
REMARK    7  A    between atoms: C_5  and  C_8 
REMARK    8  A    between atoms: C_11  and  C_12 
ROOT
HETATM    1  O   UNK N   1      33.984  11.212  14.399  0.00  0.00    -0.259 OA
HETATM    2  C   UNK N   1      34.525  12.216  14.839  0.00  0.00     0.293 C 
ENDROOT
BRANCH   2   3
HETATM    3  O   UNK N   1      34.800  13.218  13.963  0.00  0.00    -0.316 OA
BRANCH   3   4
HETATM    4  C   UNK N   1      36.040  13.719  13.635  0.00  0.00     0.209 C 
BRANCH   4   5
HETATM    5  C   UNK N   1      35.906  14.742  12.503  0.00  0.00     0.299 C 
BRANCH   5   6
HETATM    6  N   UNK N   1      35.775  14.112  11.190  0.00  0.00     0.089 N 
BRANCH   6   7
HETATM    7  C   UNK N   1      35.297  15.157  10.291  0.00  0.00     0.268 C 
HETATM    8  C   UNK N   1      35.467  16.540  10.903  0.00  0.00     0.037 C 
ENDBRANCH   6   7
BRANCH   6   9
HETATM    9  C   UNK N   1      37.113  13.731  10.746  0.00  0.00     0.268 C 
HETATM   10  C   UNK N   1      37.153  13.636   9.231  0.00  0.00     0.037 C 
ENDBRANCH   6   9
ENDBRANCH   5   6
ENDBRANCH   4   5
ENDBRANCH   3   4
ENDBRANCH   2   3
BRANCH   2  11
HETATM   11  C   UNK N   1      34.859  12.256  16.294  0.00  0.00     0.039 A 
HETATM   12  C   UNK N   1      35.167  11.098  17.028  0.00  0.00     0.020 A 
HETATM   13  C   UNK N   1      35.455  11.181  18.395  0.00  0.00     0.030 A 
HETATM   14  C   UNK N   1      35.437  12.420  19.041  0.00  0.00     0.025 A 
HETATM   15  C   UNK N   1      35.132  13.576  18.322  0.00  0.00     0.030 A 
HETATM   16  C   UNK N   1      34.843  13.493  16.960  0.00  0.00     0.020 A 
BRANCH  14  17
HETATM   17  N   UNK N   1      35.726  12.504  20.417  0.00  0.00    -0.399 N 
HETATM   18  H   UNK N   1      35.044  12.250  21.080  0.00  0.00     0.156 HD
HETATM   19  H   UNK N   1      36.610  12.817  20.716  0.00  0.00     0.156 HD
ENDBRANCH  14  17
ENDBRANCH   2  11
TORSDOF 8
ENDMDL
MODEL 7
REMARK VINA RESULT:      -5.0      4.545      8.670
REMARK  8 active torsions:
REMARK  status: ('A' for Active; 'I' for Inactive)
REMARK    1  A    between atoms: O_1  and  C_8 
REMARK    2  A    between atoms: O_1  and  C_11 
REMARK    3  A    between atoms: N_3  and  C_5 
REMARK    4  A    between atoms: N_3  and  C_6 
REMARK    5  A    between atoms: N_3  and  C_7 
REMARK    6  A    between atoms: N_4  and  C_15 
REMARK    7  A    between atoms: C_5  and  C_8 
REMARK    8  A    between atoms: C_11  and  C_12 
ROOT
HETATM    1  O   UNK N   1      30.078  15.052   5.708  0.00  0.00    -0.259 OA
HETATM    2  C   UNK N   1      30.065  16.261   5.889  0.00  0.00     0.293 C 
ENDROOT
BRANCH   2   3
HETATM    3  O   UNK N   1      28.949  16.942   5.516  0.00  0.00    -0.316 OA
BRANCH   3   4
HETATM    4  C   UNK N   1      28.885  18.211   4.989  0.00  0.00     0.209 C 
BRANCH   4   5
HETATM    5  C   UNK N   1      27.956  19.083   5.838  0.00  0.00     0.299 C 
BRANCH   5   6
HETATM    6  N   UNK N   1      26.696  19.386   5.159  0.00  0.00     0.089 N 
BRANCH   6   7
HETATM    7  C   UNK N   1      26.164  20.575   5.817  0.00  0.00     0.268 C 
HETATM    8  C   UNK N   1      27.262  21.586   6.115  0.00  0.00     0.037 C 
ENDBRANCH   6   7
BRANCH   6   9
HETATM    9  C   UNK N   1      27.013  19.753   3.781  0.00  0.00     0.268 C 
HETATM   10  C   UNK N   1      25.791  20.349   3.106  0.00  0.00     0.037 C 
ENDBRANCH   6   9
ENDBRANCH   5   6
ENDBRANCH   4   5
ENDBRANCH   3   4
ENDBRANCH   2   3
BRANCH   2  11
HETATM   11  C   UNK N   1      31.279  16.898   6.481  0.00  0.00     0.039 A 
HETATM   12  C   UNK N   1      32.470  17.067   5.757  0.00  0.00     0.020 A 
HETATM   13  C   UNK N   1      33.590  17.652   6.359  0.00  0.00     0.030 A 
HETATM   14  C   UNK N   1      33.530  18.072   7.691  0.00  0.00     0.025 A 
HETATM   15  C   UNK N   1      32.352  17.908   8.420  0.00  0.00     0.030 A 
HETATM   16  C   UNK N   1      31.237  17.323   7.820  0.00  0.00     0.020 A 
BRANCH  14  17
HETATM   17  N   UNK N   1      34.657  18.659   8.298  0.00  0.00    -0.399 N 
HETATM   18  H   UNK N   1      35.535  18.218   8.239  0.00  0.00     0.156 HD
HETATM   19  H   UNK N   1      34.567  19.513   8.781  0.00  0.00     0.156 HD
ENDBRANCH  14  17
ENDBRANCH   2  11
TORSDOF 8
ENDMDL
MODEL 8
REMARK VINA RESULT:      -4.9     12.988     14.219
REMARK  8 active torsions:
REMARK  status: ('A' for Active; 'I' for Inactive)
REMARK    1  A    between atoms: O_1  and  C_8 
REMARK    2  A    between atoms: O_1  and  C_11 
REMARK    3  A    between atoms: N_3  and  C_5 
REMARK    4  A    between atoms: N_3  and  C_6 
REMARK    5  A    between atoms: N_3  and  C_7 
REMARK    6  A    between atoms: N_4  and  C_15 
REMARK    7  A    between atoms: C_5  and  C_8 
REMARK    8  A    between atoms: C_11  and  C_12 
ROOT
HETATM    1  O   UNK N   1      23.799  17.838   5.133  0.00  0.00    -0.259 OA
HETATM    2  C   UNK N   1      22.623  18.170   5.164  0.00  0.00     0.293 C 
ENDROOT
BRANCH   2   3
HETATM    3  O   UNK N   1      21.905  17.837   6.269  0.00  0.00    -0.316 OA
BRANCH   3   4
HETATM    4  C   UNK N   1      21.551  16.572   6.681  0.00  0.00     0.209 C 
BRANCH   4   5
HETATM    5  C   UNK N   1      20.028  16.473   6.809  0.00  0.00     0.299 C 
BRANCH   5   6
HETATM    6  N   UNK N   1      19.600  16.138   8.167  0.00  0.00     0.089 N 
BRANCH   6   7
HETATM    7  C   UNK N   1      20.772  15.570   8.827  0.00  0.00     0.268 C 
HETATM    8  C   UNK N   1      20.429  14.282   9.560  0.00  0.00     0.037 C 
ENDBRANCH   6   7
BRANCH   6   9
HETATM    9  C   UNK N   1      19.276  17.388   8.850  0.00  0.00     0.268 C 
HETATM   10  C   UNK N   1      17.857  17.338   9.385  0.00  0.00     0.037 C 
ENDBRANCH   6   9
ENDBRANCH   5   6
ENDBRANCH   4   5
ENDBRANCH   3   4
ENDBRANCH   2   3
BRANCH   2  11
HETATM   11  C   UNK N   1      22.064  18.894   3.984  0.00  0.00     0.039 A 
HETATM   12  C   UNK N   1      22.786  19.883   3.296  0.00  0.00     0.020 A 
HETATM   13  C   UNK N   1      22.214  20.550   2.206  0.00  0.00     0.030 A 
HETATM   14  C   UNK N   1      20.916  20.235   1.795  0.00  0.00     0.025 A 
HETATM   15  C   UNK N   1      20.189  19.255   2.472  0.00  0.00     0.030 A 
HETATM   16  C   UNK N   1      20.759  18.592   3.559  0.00  0.00     0.020 A 
BRANCH  14  17
HETATM   17  N   UNK N   1      20.339  20.906   0.699  0.00  0.00    -0.399 N 
HETATM   18  H   UNK N   1      20.420  21.884   0.622  0.00  0.00     0.156 HD
HETATM   19  H   UNK N   1      19.855  20.396   0.009  0.00  0.00     0.156 HD
ENDBRANCH  14  17
ENDBRANCH   2  11
TORSDOF 8
ENDMDL
MODEL 9
REMARK VINA RESULT:      -4.9      4.303      7.496
REMARK  8 active torsions:
REMARK  status: ('A' for Active; 'I' for Inactive)
REMARK    1  A    between atoms: O_1  and  C_8 
REMARK    2  A    between atoms: O_1  and  C_11 
REMARK    3  A    between atoms: N_3  and  C_5 
REMARK    4  A    between atoms: N_3  and  C_6 
REMARK    5  A    between atoms: N_3  and  C_7 
REMARK    6  A    between atoms: N_4  and  C_15 
REMARK    7  A    between atoms: C_5  and  C_8 
REMARK    8  A    between atoms: C_11  and  C_12 
ROOT
HETATM    1  O   UNK N   1      30.724  14.374   6.124  0.00  0.00    -0.259 OA
HETATM    2  C   UNK N   1      30.660  15.588   5.992  0.00  0.00     0.293 C 
ENDROOT
BRANCH   2   3
HETATM    3  O   UNK N   1      29.603  16.090   5.299  0.00  0.00    -0.316 OA
BRANCH   3   4
HETATM    4  C   UNK N   1      28.278  16.069   5.672  0.00  0.00     0.209 C 
BRANCH   4   5
HETATM    5  C   UNK N   1      28.071  16.953   6.905  0.00  0.00     0.299 C 
BRANCH   5   6
HETATM    6  N   UNK N   1      28.352  18.363   6.639  0.00  0.00     0.089 N 
BRANCH   6   7
HETATM    7  C   UNK N   1      27.364  18.789   5.654  0.00  0.00     0.268 C 
HETATM    8  C   UNK N   1      27.932  19.842   4.713  0.00  0.00     0.037 C 
ENDBRANCH   6   7
BRANCH   6   9
HETATM    9  C   UNK N   1      28.092  19.106   7.870  0.00  0.00     0.268 C 
HETATM   10  C   UNK N   1      28.423  18.249   9.078  0.00  0.00     0.037 C 
ENDBRANCH   6   9
ENDBRANCH   5   6
ENDBRANCH   4   5
ENDBRANCH   3   4
ENDBRANCH   2   3
BRANCH   2  11
HETATM   11  C   UNK N   1      31.751  16.419   6.580  0.00  0.00     0.039 A 
HETATM   12  C   UNK N   1      32.928  16.725   5.876  0.00  0.00     0.020 A 
HETATM   13  C   UNK N   1      33.933  17.492   6.475  0.00  0.00     0.030 A 
HETATM   14  C   UNK N   1      33.773  17.961   7.782  0.00  0.00     0.025 A 
HETATM   15  C   UNK N   1      32.610  17.662   8.491  0.00  0.00     0.030 A 
HETATM   16  C   UNK N   1      31.608  16.895   7.894  0.00  0.00     0.020 A 
BRANCH  14  17
HETATM   17  N   UNK N   1      34.786  18.732   8.386  0.00  0.00    -0.399 N 
HETATM   18  H   UNK N   1      34.644  19.117   9.280  0.00  0.00     0.156 HD
HETATM   19  H   UNK N   1      35.635  18.885   7.913  0.00  0.00     0.156 HD
ENDBRANCH  14  17
ENDBRANCH   2  11
TORSDOF 8
ENDMDL
