REMARK  15 active torsions:
REMARK  status: ('A' for Active; 'I' for Inactive)
REMARK    1  A    between atoms: O_2  and  C_18 
REMARK    2  A    between atoms: O_4  and  C_22 
REMARK       I    between atoms: N_6  and  C_14 
REMARK    3  A    between atoms: C_13  and  N_7 
REMARK    4  A    between atoms: C_16  and  N_7 
REMARK    5  A    between atoms: N_8  and  C_23 
REMARK    6  A    between atoms: C_9  and  C_18 
REMARK    7  A    between atoms: C_13  and  C_14 
REMARK    8  A    between atoms: C_13  and  C_15 
REMARK    9  A    between atoms: C_15  and  C_17 
REMARK   10  A    between atoms: C_16  and  C_19 
REMARK   11  A    between atoms: C_16  and  C_22 
REMARK   12  A    between atoms: C_17  and  C_20 
REMARK   13  A    between atoms: C_19  and  C_21 
REMARK   14  A    between atoms: C_20  and  C_23 
REMARK   15  A    between atoms: C_21  and  C_24 
ROOT
HETATM    1  C   UNK N   1       3.776   1.123   0.633  0.00  0.00     0.170 C 
ENDROOT
BRANCH   1   2
HETATM    2  N   UNK N   1       3.568  -0.303   0.981  0.00  0.00    -0.396 N 
HETATM    3  H   UNK N   1       4.116  -0.735   1.726  0.00  0.00     0.155 HD
BRANCH   2   4
HETATM    4  C   UNK N   1       2.566  -1.093   0.245  0.00  0.00     0.176 C 
BRANCH   4   5
HETATM    5  C   UNK N   1       2.942  -1.361  -1.210  0.00  0.00     0.040 C 
BRANCH   5   6
HETATM    6  C   UNK N   1       3.820  -2.609  -1.339  0.00  0.00     0.041 C 
BRANCH   6   7
HETATM    7  C   UNK N   1       3.244  -3.798  -0.626  0.00  0.00    -0.058 A 
HETATM    8  C   UNK N   1       3.999  -4.440   0.363  0.00  0.00     0.007 A 
HETATM    9  C   UNK N   1       3.467  -5.534   1.054  0.00  0.00     0.001 A 
HETATM   10  C   UNK N   1       2.176  -5.985   0.764  0.00  0.00     0.000 A 
HETATM   11  C   UNK N   1       1.419  -5.347  -0.224  0.00  0.00     0.001 A 
HETATM   12  C   UNK N   1       1.952  -4.258  -0.920  0.00  0.00     0.007 A 
ENDBRANCH   6   7
ENDBRANCH   5   6
ENDBRANCH   4   5
BRANCH   4  13
HETATM   13  C   UNK N   1       1.134  -0.683   0.449  0.00  0.00     0.163 C 
HETATM   14  O   UNK N   1       0.242  -1.337  -0.069  0.00  0.00    -0.648 OA
BRANCH  13  15
HETATM   15  O   UNK N   1       0.818   0.352   1.248  0.00  0.00    -0.775 OA
HETATM   16  H   UNK N   1       1.332   0.903   1.805  0.00  0.00     0.167 HD
ENDBRANCH  13  15
ENDBRANCH   4  13
ENDBRANCH   2   4
ENDBRANCH   1   2
BRANCH   1  17
HETATM   17  C   UNK N   1       5.262   1.470   0.638  0.00  0.00     0.243 C 
HETATM   18  O   UNK N   1       6.066   0.574   0.841  0.00  0.00    -0.271 OA
HETATM   19  N   UNK N   1       5.707   2.761   0.488  0.00  0.00    -0.336 N 
HETATM   20  C   UNK N   1       7.100   3.141   0.621  0.00  0.00     0.185 C 
HETATM   21  C   UNK N   1       4.818   3.867   0.277  0.00  0.00     0.127 C 
HETATM   22  C   UNK N   1       7.084   4.666   0.610  0.00  0.00     0.038 C 
HETATM   23  C   UNK N   1       5.712   5.077   0.092  0.00  0.00     0.022 C 
BRANCH  20  24
HETATM   24  C   UNK N   1       7.985   2.590  -0.475  0.00  0.00     0.163 C 
HETATM   25  O   UNK N   1       8.170   1.388  -0.566  0.00  0.00    -0.648 OA
BRANCH  24  26
HETATM   26  O   UNK N   1       8.633   3.421  -1.316  0.00  0.00    -0.775 OA
HETATM   27  H   UNK N   1       9.358   3.319  -1.901  0.00  0.00     0.167 HD
ENDBRANCH  24  26
ENDBRANCH  20  24
ENDBRANCH   1  17
BRANCH   1  28
HETATM   28  C   UNK N   1       2.999   1.647  -0.577  0.00  0.00     0.034 C 
BRANCH  28  29
HETATM   29  C   UNK N   1       1.997   2.666  -0.050  0.00  0.00     0.004 C 
BRANCH  29  30
HETATM   30  C   UNK N   1       1.435   3.530  -1.160  0.00  0.00     0.019 C 
BRANCH  30  31
HETATM   31  C   UNK N   1       1.450   4.992  -0.736  0.00  0.00     0.111 C 
BRANCH  31  32
HETATM   32  N   UNK N   1       0.516   5.220   0.355  0.00  0.00    -0.430 N 
HETATM   33  H   UNK N   1       0.328   5.868   1.121  0.00  0.00     0.149 HD
HETATM   34  H   UNK N   1      -0.189   4.484   0.355  0.00  0.00     0.149 HD
ENDBRANCH  31  32
ENDBRANCH  30  31
ENDBRANCH  29  30
ENDBRANCH  28  29
ENDBRANCH   1  28
TORSDOF 15
