MODEL 1
REMARK VINA RESULT:      -6.8      0.000      0.000
REMARK  15 active torsions:
REMARK  status: ('A' for Active; 'I' for Inactive)
REMARK    1  A    between atoms: O_2  and  C_18 
REMARK    2  A    between atoms: O_4  and  C_22 
REMARK       I    between atoms: N_6  and  C_14 
REMARK    3  A    between atoms: C_13  and  N_7 
REMARK    4  A    between atoms: C_16  and  N_7 
REMARK    5  A    between atoms: N_8  and  C_23 
REMARK    6  A    between atoms: C_9  and  C_18 
REMARK    7  A    between atoms: C_13  and  C_14 
REMARK    8  A    between atoms: C_13  and  C_15 
REMARK    9  A    between atoms: C_15  and  C_17 
REMARK   10  A    between atoms: C_16  and  C_19 
REMARK   11  A    between atoms: C_16  and  C_22 
REMARK   12  A    between atoms: C_17  and  C_20 
REMARK   13  A    between atoms: C_19  and  C_21 
REMARK   14  A    between atoms: C_20  and  C_23 
REMARK   15  A    between atoms: C_21  and  C_24 
ROOT
HETATM    1  C   UNK N   1      36.423  14.768  10.641  0.00  0.00     0.170 C 
ENDROOT
BRANCH   1   2
HETATM    2  N   UNK N   1      36.455  14.695  12.121  0.00  0.00    -0.396 N 
HETATM    3  H   UNK N   1      37.098  15.284  12.651  0.00  0.00     0.155 HD
BRANCH   2   4
HETATM    4  C   UNK N   1      35.552  13.767  12.824  0.00  0.00     0.176 C 
BRANCH   4   5
HETATM    5  C   UNK N   1      35.830  13.652  14.320  0.00  0.00     0.040 C 
BRANCH   5   6
HETATM    6  C   UNK N   1      34.641  13.039  15.064  0.00  0.00     0.041 C 
BRANCH   6   7
HETATM    7  C   UNK N   1      34.992  12.600  16.456  0.00  0.00    -0.058 A 
HETATM    8  C   UNK N   1      34.907  13.517  17.510  0.00  0.00     0.007 A 
HETATM    9  C   UNK N   1      35.208  13.117  18.816  0.00  0.00     0.001 A 
HETATM   10  C   UNK N   1      35.587  11.797  19.074  0.00  0.00     0.000 A 
HETATM   11  C   UNK N   1      35.674  10.877  18.024  0.00  0.00     0.001 A 
HETATM   12  C   UNK N   1      35.381  11.278  16.717  0.00  0.00     0.007 A 
ENDBRANCH   6   7
ENDBRANCH   5   6
ENDBRANCH   4   5
BRANCH   4  13
HETATM   13  C   UNK N   1      35.305  12.452  12.137  0.00  0.00     0.163 C 
HETATM   14  O   UNK N   1      35.991  11.485  12.427  0.00  0.00    -0.648 OA
BRANCH  13  15
HETATM   15  O   UNK N   1      34.296  12.310  11.259  0.00  0.00    -0.775 OA
HETATM   16  H   UNK N   1      34.210  12.526  10.351  0.00  0.00     0.167 HD
ENDBRANCH  13  15
ENDBRANCH   4  13
ENDBRANCH   2   4
ENDBRANCH   1   2
BRANCH   1  17
HETATM   17  C   UNK N   1      35.703  16.031  10.177  0.00  0.00     0.243 C 
HETATM   18  O   UNK N   1      36.093  17.109  10.597  0.00  0.00    -0.271 OA
HETATM   19  N   UNK N   1      34.599  15.979   9.361  0.00  0.00    -0.336 N 
HETATM   20  C   UNK N   1      33.814  17.147   9.012  0.00  0.00     0.185 C 
HETATM   21  C   UNK N   1      34.067  14.746   8.855  0.00  0.00     0.127 C 
HETATM   22  C   UNK N   1      32.585  16.586   8.304  0.00  0.00     0.038 C 
HETATM   23  C   UNK N   1      32.914  15.141   7.953  0.00  0.00     0.022 C 
BRANCH  20  24
HETATM   24  C   UNK N   1      34.554  18.133   8.135  0.00  0.00     0.163 C 
HETATM   25  O   UNK N   1      34.564  17.987   6.924  0.00  0.00    -0.648 OA
BRANCH  24  26
HETATM   26  O   UNK N   1      35.267  19.138   8.682  0.00  0.00    -0.775 OA
HETATM   27  H   UNK N   1      35.803  19.214   9.447  0.00  0.00     0.167 HD
ENDBRANCH  24  26
ENDBRANCH  20  24
ENDBRANCH   1  17
BRANCH   1  28
HETATM   28  C   UNK N   1      37.741  14.479   9.919  0.00  0.00     0.034 C 
BRANCH  28  29
HETATM   29  C   UNK N   1      38.185  13.088  10.351  0.00  0.00     0.004 C 
BRANCH  29  30
HETATM   30  C   UNK N   1      38.322  12.148   9.171  0.00  0.00     0.019 C 
BRANCH  30  31
HETATM   31  C   UNK N   1      37.257  11.063   9.247  0.00  0.00     0.111 C 
BRANCH  31  32
HETATM   32  N   UNK N   1      35.999  11.538   8.693  0.00  0.00    -0.430 N 
HETATM   33  H   UNK N   1      34.990  11.441   8.810  0.00  0.00     0.149 HD
HETATM   34  H   UNK N   1      36.190  12.187   7.930  0.00  0.00     0.149 HD
ENDBRANCH  31  32
ENDBRANCH  30  31
ENDBRANCH  29  30
ENDBRANCH  28  29
ENDBRANCH   1  28
TORSDOF 15
ENDMDL
MODEL 2
REMARK VINA RESULT:      -6.7      1.275      1.761
REMARK  15 active torsions:
REMARK  status: ('A' for Active; 'I' for Inactive)
REMARK    1  A    between atoms: O_2  and  C_18 
REMARK    2  A    between atoms: O_4  and  C_22 
REMARK       I    between atoms: N_6  and  C_14 
REMARK    3  A    between atoms: C_13  and  N_7 
REMARK    4  A    between atoms: C_16  and  N_7 
REMARK    5  A    between atoms: N_8  and  C_23 
REMARK    6  A    between atoms: C_9  and  C_18 
REMARK    7  A    between atoms: C_13  and  C_14 
REMARK    8  A    between atoms: C_13  and  C_15 
REMARK    9  A    between atoms: C_15  and  C_17 
REMARK   10  A    between atoms: C_16  and  C_19 
REMARK   11  A    between atoms: C_16  and  C_22 
REMARK   12  A    between atoms: C_17  and  C_20 
REMARK   13  A    between atoms: C_19  and  C_21 
REMARK   14  A    between atoms: C_20  and  C_23 
REMARK   15  A    between atoms: C_21  and  C_24 
ROOT
HETATM    1  C   UNK N   1      36.317  14.614  10.439  0.00  0.00     0.170 C 
ENDROOT
BRANCH   1   2
HETATM    2  N   UNK N   1      36.299  14.435  11.911  0.00  0.00    -0.396 N 
HETATM    3  H   UNK N   1      36.608  15.190  12.524  0.00  0.00     0.155 HD
BRANCH   2   4
HETATM    4  C   UNK N   1      35.832  13.160  12.483  0.00  0.00     0.176 C 
BRANCH   4   5
HETATM    5  C   UNK N   1      36.705  12.642  13.623  0.00  0.00     0.040 C 
BRANCH   5   6
HETATM    6  C   UNK N   1      35.892  12.452  14.906  0.00  0.00     0.041 C 
BRANCH   6   7
HETATM    7  C   UNK N   1      36.101  13.563  15.894  0.00  0.00    -0.058 A 
HETATM    8  C   UNK N   1      35.384  13.559  17.097  0.00  0.00     0.007 A 
HETATM    9  C   UNK N   1      35.586  14.573  18.039  0.00  0.00     0.001 A 
HETATM   10  C   UNK N   1      36.511  15.591  17.785  0.00  0.00     0.000 A 
HETATM   11  C   UNK N   1      37.228  15.599  16.584  0.00  0.00     0.001 A 
HETATM   12  C   UNK N   1      37.022  14.589  15.639  0.00  0.00     0.007 A 
ENDBRANCH   6   7
ENDBRANCH   5   6
ENDBRANCH   4   5
BRANCH   4  13
HETATM   13  C   UNK N   1      35.425  12.109  11.488  0.00  0.00     0.163 C 
HETATM   14  O   UNK N   1      36.208  11.215  11.203  0.00  0.00    -0.648 OA
BRANCH  13  15
HETATM   15  O   UNK N   1      34.188  12.100  10.959  0.00  0.00    -0.775 OA
HETATM   16  H   UNK N   1      33.725  12.710  10.420  0.00  0.00     0.167 HD
ENDBRANCH  13  15
ENDBRANCH   4  13
ENDBRANCH   2   4
ENDBRANCH   1   2
BRANCH   1  17
HETATM   17  C   UNK N   1      35.673  15.941  10.048  0.00  0.00     0.243 C 
HETATM   18  O   UNK N   1      36.182  16.974  10.452  0.00  0.00    -0.271 OA
HETATM   19  N   UNK N   1      34.511  15.997   9.317  0.00  0.00    -0.336 N 
HETATM   20  C   UNK N   1      33.804  17.233   9.043  0.00  0.00     0.185 C 
HETATM   21  C   UNK N   1      33.842  14.823   8.836  0.00  0.00     0.127 C 
HETATM   22  C   UNK N   1      32.483  16.789   8.423  0.00  0.00     0.038 C 
HETATM   23  C   UNK N   1      32.663  15.329   8.028  0.00  0.00     0.022 C 
BRANCH  20  24
HETATM   24  C   UNK N   1      34.557  18.171   8.127  0.00  0.00     0.163 C 
HETATM   25  O   UNK N   1      34.550  17.986   6.921  0.00  0.00    -0.648 OA
BRANCH  24  26
HETATM   26  O   UNK N   1      35.300  19.175   8.634  0.00  0.00    -0.775 OA
HETATM   27  H   UNK N   1      35.114  19.904   9.193  0.00  0.00     0.167 HD
ENDBRANCH  24  26
ENDBRANCH  20  24
ENDBRANCH   1  17
BRANCH   1  28
HETATM   28  C   UNK N   1      37.642  14.312   9.735  0.00  0.00     0.034 C 
BRANCH  28  29
HETATM   29  C   UNK N   1      37.297  13.878   8.316  0.00  0.00     0.004 C 
BRANCH  29  30
HETATM   30  C   UNK N   1      37.275  12.369   8.177  0.00  0.00     0.019 C 
BRANCH  30  31
HETATM   31  C   UNK N   1      38.630  11.794   8.564  0.00  0.00     0.111 C 
BRANCH  31  32
HETATM   32  N   UNK N   1      38.469  10.551   9.302  0.00  0.00    -0.430 N 
HETATM   33  H   UNK N   1      37.760   9.865   9.562  0.00  0.00     0.149 HD
HETATM   34  H   UNK N   1      39.368  10.271   9.692  0.00  0.00     0.149 HD
ENDBRANCH  31  32
ENDBRANCH  30  31
ENDBRANCH  29  30
ENDBRANCH  28  29
ENDBRANCH   1  28
TORSDOF 15
ENDMDL
MODEL 3
REMARK VINA RESULT:      -6.6      2.131      4.060
REMARK  15 active torsions:
REMARK  status: ('A' for Active; 'I' for Inactive)
REMARK    1  A    between atoms: O_2  and  C_18 
REMARK    2  A    between atoms: O_4  and  C_22 
REMARK       I    between atoms: N_6  and  C_14 
REMARK    3  A    between atoms: C_13  and  N_7 
REMARK    4  A    between atoms: C_16  and  N_7 
REMARK    5  A    between atoms: N_8  and  C_23 
REMARK    6  A    between atoms: C_9  and  C_18 
REMARK    7  A    between atoms: C_13  and  C_14 
REMARK    8  A    between atoms: C_13  and  C_15 
REMARK    9  A    between atoms: C_15  and  C_17 
REMARK   10  A    between atoms: C_16  and  C_19 
REMARK   11  A    between atoms: C_16  and  C_22 
REMARK   12  A    between atoms: C_17  and  C_20 
REMARK   13  A    between atoms: C_19  and  C_21 
REMARK   14  A    between atoms: C_20  and  C_23 
REMARK   15  A    between atoms: C_21  and  C_24 
ROOT
HETATM    1  C   UNK N   1      35.675  14.803  10.678  0.00  0.00     0.170 C 
ENDROOT
BRANCH   1   2
HETATM    2  N   UNK N   1      35.710  13.778   9.608  0.00  0.00    -0.396 N 
HETATM    3  H   UNK N   1      34.885  13.609   9.031  0.00  0.00     0.155 HD
BRANCH   2   4
HETATM    4  C   UNK N   1      36.943  13.003   9.382  0.00  0.00     0.176 C 
BRANCH   4   5
HETATM    5  C   UNK N   1      36.771  11.500   9.585  0.00  0.00     0.040 C 
BRANCH   5   6
HETATM    6  C   UNK N   1      35.355  11.159  10.057  0.00  0.00     0.041 C 
BRANCH   6   7
HETATM    7  C   UNK N   1      35.317  10.697  11.485  0.00  0.00    -0.058 A 
HETATM    8  C   UNK N   1      34.120  10.788  12.206  0.00  0.00     0.007 A 
HETATM    9  C   UNK N   1      34.062  10.339  13.530  0.00  0.00     0.001 A 
HETATM   10  C   UNK N   1      35.197   9.791  14.134  0.00  0.00     0.000 A 
HETATM   11  C   UNK N   1      36.394   9.699  13.417  0.00  0.00     0.001 A 
HETATM   12  C   UNK N   1      36.456  10.153  12.097  0.00  0.00     0.007 A 
ENDBRANCH   6   7
ENDBRANCH   5   6
ENDBRANCH   4   5
BRANCH   4  13
HETATM   13  C   UNK N   1      38.192  13.572   9.995  0.00  0.00     0.163 C 
HETATM   14  O   UNK N   1      38.786  14.473   9.423  0.00  0.00    -0.648 OA
BRANCH  13  15
HETATM   15  O   UNK N   1      38.627  13.151  11.197  0.00  0.00    -0.775 OA
HETATM   16  H   UNK N   1      39.466  12.869  11.505  0.00  0.00     0.167 HD
ENDBRANCH  13  15
ENDBRANCH   4  13
ENDBRANCH   2   4
ENDBRANCH   1   2
BRANCH   1  17
HETATM   17  C   UNK N   1      35.186  16.140  10.131  0.00  0.00     0.243 C 
HETATM   18  O   UNK N   1      35.761  17.157  10.485  0.00  0.00    -0.271 OA
HETATM   19  N   UNK N   1      34.087  16.232   9.312  0.00  0.00    -0.336 N 
HETATM   20  C   UNK N   1      33.519  17.496   8.884  0.00  0.00     0.185 C 
HETATM   21  C   UNK N   1      33.345  15.082   8.880  0.00  0.00     0.127 C 
HETATM   22  C   UNK N   1      32.207  17.116   8.204  0.00  0.00     0.038 C 
HETATM   23  C   UNK N   1      32.276  15.616   7.947  0.00  0.00     0.022 C 
BRANCH  20  24
HETATM   24  C   UNK N   1      34.417  18.279   7.953  0.00  0.00     0.163 C 
HETATM   25  O   UNK N   1      34.430  18.027   6.759  0.00  0.00    -0.648 OA
BRANCH  24  26
HETATM   26  O   UNK N   1      35.262  19.211   8.437  0.00  0.00    -0.775 OA
HETATM   27  H   UNK N   1      35.904  19.215   9.120  0.00  0.00     0.167 HD
ENDBRANCH  24  26
ENDBRANCH  20  24
ENDBRANCH   1  17
BRANCH   1  28
HETATM   28  C   UNK N   1      35.036  14.379  12.003  0.00  0.00     0.034 C 
BRANCH  28  29
HETATM   29  C   UNK N   1      36.069  14.635  13.093  0.00  0.00     0.004 C 
BRANCH  29  30
HETATM   30  C   UNK N   1      36.342  13.391  13.913  0.00  0.00     0.019 C 
BRANCH  30  31
HETATM   31  C   UNK N   1      36.551  13.769  15.373  0.00  0.00     0.111 C 
BRANCH  31  32
HETATM   32  N   UNK N   1      37.347  14.982  15.480  0.00  0.00    -0.430 N 
HETATM   33  H   UNK N   1      38.226  15.390  15.158  0.00  0.00     0.149 HD
HETATM   34  H   UNK N   1      36.865  15.650  16.080  0.00  0.00     0.149 HD
ENDBRANCH  31  32
ENDBRANCH  30  31
ENDBRANCH  29  30
ENDBRANCH  28  29
ENDBRANCH   1  28
TORSDOF 15
ENDMDL
MODEL 4
REMARK VINA RESULT:      -6.5     12.079     15.658
REMARK  15 active torsions:
REMARK  status: ('A' for Active; 'I' for Inactive)
REMARK    1  A    between atoms: O_2  and  C_18 
REMARK    2  A    between atoms: O_4  and  C_22 
REMARK       I    between atoms: N_6  and  C_14 
REMARK    3  A    between atoms: C_13  and  N_7 
REMARK    4  A    between atoms: C_16  and  N_7 
REMARK    5  A    between atoms: N_8  and  C_23 
REMARK    6  A    between atoms: C_9  and  C_18 
REMARK    7  A    between atoms: C_13  and  C_14 
REMARK    8  A    between atoms: C_13  and  C_15 
REMARK    9  A    between atoms: C_15  and  C_17 
REMARK   10  A    between atoms: C_16  and  C_19 
REMARK   11  A    between atoms: C_16  and  C_22 
REMARK   12  A    between atoms: C_17  and  C_20 
REMARK   13  A    between atoms: C_19  and  C_21 
REMARK   14  A    between atoms: C_20  and  C_23 
REMARK   15  A    between atoms: C_21  and  C_24 
ROOT
HETATM    1  C   UNK N   1      22.257  17.197   5.328  0.00  0.00     0.170 C 
ENDROOT
BRANCH   1   2
HETATM    2  N   UNK N   1      23.606  17.794   5.471  0.00  0.00    -0.396 N 
HETATM    3  H   UNK N   1      23.710  18.759   5.786  0.00  0.00     0.155 HD
BRANCH   2   4
HETATM    4  C   UNK N   1      24.797  16.986   5.153  0.00  0.00     0.176 C 
BRANCH   4   5
HETATM    5  C   UNK N   1      25.370  17.255   3.764  0.00  0.00     0.040 C 
BRANCH   5   6
HETATM    6  C   UNK N   1      26.846  17.656   3.837  0.00  0.00     0.041 C 
BRANCH   6   7
HETATM    7  C   UNK N   1      27.087  18.810   4.767  0.00  0.00    -0.058 A 
HETATM    8  C   UNK N   1      26.662  20.092   4.398  0.00  0.00     0.007 A 
HETATM    9  C   UNK N   1      26.857  21.173   5.264  0.00  0.00     0.001 A 
HETATM   10  C   UNK N   1      27.470  20.975   6.504  0.00  0.00     0.000 A 
HETATM   11  C   UNK N   1      27.897  19.696   6.876  0.00  0.00     0.001 A 
HETATM   12  C   UNK N   1      27.709  18.616   6.009  0.00  0.00     0.007 A 
ENDBRANCH   6   7
ENDBRANCH   5   6
ENDBRANCH   4   5
BRANCH   4  13
HETATM   13  C   UNK N   1      24.713  15.530   5.517  0.00  0.00     0.163 C 
HETATM   14  O   UNK N   1      24.578  14.697   4.635  0.00  0.00    -0.648 OA
BRANCH  13  15
HETATM   15  O   UNK N   1      24.853  15.127   6.793  0.00  0.00    -0.775 OA
HETATM   16  H   UNK N   1      24.338  14.568   7.342  0.00  0.00     0.167 HD
ENDBRANCH  13  15
ENDBRANCH   4  13
ENDBRANCH   2   4
ENDBRANCH   1   2
BRANCH   1  17
HETATM   17  C   UNK N   1      21.456  17.356   6.617  0.00  0.00     0.243 C 
HETATM   18  O   UNK N   1      21.202  18.486   7.006  0.00  0.00    -0.271 OA
HETATM   19  N   UNK N   1      21.076  16.276   7.375  0.00  0.00    -0.336 N 
HETATM   20  C   UNK N   1      20.432  16.400   8.669  0.00  0.00     0.185 C 
HETATM   21  C   UNK N   1      21.366  14.923   6.995  0.00  0.00     0.127 C 
HETATM   22  C   UNK N   1      20.416  14.980   9.226  0.00  0.00     0.038 C 
HETATM   23  C   UNK N   1      20.715  14.055   8.054  0.00  0.00     0.022 C 
BRANCH  20  24
HETATM   24  C   UNK N   1      19.038  16.982   8.598  0.00  0.00     0.163 C 
HETATM   25  O   UNK N   1      18.160  16.394   7.989  0.00  0.00    -0.648 OA
BRANCH  24  26
HETATM   26  O   UNK N   1      18.768  18.185   9.142  0.00  0.00    -0.775 OA
HETATM   27  H   UNK N   1      18.759  18.515  10.020  0.00  0.00     0.167 HD
ENDBRANCH  24  26
ENDBRANCH  20  24
ENDBRANCH   1  17
BRANCH   1  28
HETATM   28  C   UNK N   1      21.491  17.545   4.050  0.00  0.00     0.034 C 
BRANCH  28  29
HETATM   29  C   UNK N   1      21.971  18.922   3.610  0.00  0.00     0.004 C 
BRANCH  29  30
HETATM   30  C   UNK N   1      20.839  19.928   3.569  0.00  0.00     0.019 C 
BRANCH  30  31
HETATM   31  C   UNK N   1      19.835  19.532   2.495  0.00  0.00     0.111 C 
BRANCH  31  32
HETATM   32  N   UNK N   1      20.435  19.617   1.174  0.00  0.00    -0.430 N 
HETATM   33  H   UNK N   1      20.855  19.032   0.450  0.00  0.00     0.149 HD
HETATM   34  H   UNK N   1      20.439  20.589   0.866  0.00  0.00     0.149 HD
ENDBRANCH  31  32
ENDBRANCH  30  31
ENDBRANCH  29  30
ENDBRANCH  28  29
ENDBRANCH   1  28
TORSDOF 15
ENDMDL
MODEL 5
REMARK VINA RESULT:      -6.4      2.134      2.688
REMARK  15 active torsions:
REMARK  status: ('A' for Active; 'I' for Inactive)
REMARK    1  A    between atoms: O_2  and  C_18 
REMARK    2  A    between atoms: O_4  and  C_22 
REMARK       I    between atoms: N_6  and  C_14 
REMARK    3  A    between atoms: C_13  and  N_7 
REMARK    4  A    between atoms: C_16  and  N_7 
REMARK    5  A    between atoms: N_8  and  C_23 
REMARK    6  A    between atoms: C_9  and  C_18 
REMARK    7  A    between atoms: C_13  and  C_14 
REMARK    8  A    between atoms: C_13  and  C_15 
REMARK    9  A    between atoms: C_15  and  C_17 
REMARK   10  A    between atoms: C_16  and  C_19 
REMARK   11  A    between atoms: C_16  and  C_22 
REMARK   12  A    between atoms: C_17  and  C_20 
REMARK   13  A    between atoms: C_19  and  C_21 
REMARK   14  A    between atoms: C_20  and  C_23 
REMARK   15  A    between atoms: C_21  and  C_24 
ROOT
HETATM    1  C   UNK N   1      36.221  14.896  10.655  0.00  0.00     0.170 C 
ENDROOT
BRANCH   1   2
HETATM    2  N   UNK N   1      36.399  14.957  12.126  0.00  0.00    -0.396 N 
HETATM    3  H   UNK N   1      36.650  15.837  12.577  0.00  0.00     0.155 HD
BRANCH   2   4
HETATM    4  C   UNK N   1      36.212  13.738  12.932  0.00  0.00     0.176 C 
BRANCH   4   5
HETATM    5  C   UNK N   1      35.143  12.796  12.385  0.00  0.00     0.040 C 
BRANCH   5   6
HETATM    6  C   UNK N   1      35.703  11.388  12.159  0.00  0.00     0.041 C 
BRANCH   6   7
HETATM    7  C   UNK N   1      35.972  10.659  13.443  0.00  0.00    -0.058 A 
HETATM    8  C   UNK N   1      34.897  10.202  14.214  0.00  0.00     0.007 A 
HETATM    9  C   UNK N   1      35.131   9.499  15.401  0.00  0.00     0.001 A 
HETATM   10  C   UNK N   1      36.441   9.245  15.817  0.00  0.00     0.000 A 
HETATM   11  C   UNK N   1      37.518   9.701  15.050  0.00  0.00     0.001 A 
HETATM   12  C   UNK N   1      37.285  10.409  13.868  0.00  0.00     0.007 A 
ENDBRANCH   6   7
ENDBRANCH   5   6
ENDBRANCH   4   5
BRANCH   4  13
HETATM   13  C   UNK N   1      36.153  13.944  14.420  0.00  0.00     0.163 C 
HETATM   14  O   UNK N   1      35.148  13.618  15.033  0.00  0.00    -0.648 OA
BRANCH  13  15
HETATM   15  O   UNK N   1      37.216  14.417  15.096  0.00  0.00    -0.775 OA
HETATM   16  H   UNK N   1      37.555  14.237  15.951  0.00  0.00     0.167 HD
ENDBRANCH  13  15
ENDBRANCH   4  13
ENDBRANCH   2   4
ENDBRANCH   1   2
BRANCH   1  17
HETATM   17  C   UNK N   1      35.550  16.166  10.139  0.00  0.00     0.243 C 
HETATM   18  O   UNK N   1      35.990  17.244  10.506  0.00  0.00    -0.271 OA
HETATM   19  N   UNK N   1      34.438  16.124   9.334  0.00  0.00    -0.336 N 
HETATM   20  C   UNK N   1      33.701  17.308   8.937  0.00  0.00     0.185 C 
HETATM   21  C   UNK N   1      33.850  14.893   8.889  0.00  0.00     0.127 C 
HETATM   22  C   UNK N   1      32.442  16.768   8.265  0.00  0.00     0.038 C 
HETATM   23  C   UNK N   1      32.707  15.296   7.978  0.00  0.00     0.022 C 
BRANCH  20  24
HETATM   24  C   UNK N   1      34.474  18.220   8.010  0.00  0.00     0.163 C 
HETATM   25  O   UNK N   1      34.449  18.032   6.806  0.00  0.00    -0.648 OA
BRANCH  24  26
HETATM   26  O   UNK N   1      35.252  19.202   8.507  0.00  0.00    -0.775 OA
HETATM   27  H   UNK N   1      35.790  19.283   9.270  0.00  0.00     0.167 HD
ENDBRANCH  24  26
ENDBRANCH  20  24
ENDBRANCH   1  17
BRANCH   1  28
HETATM   28  C   UNK N   1      37.433  14.434   9.843  0.00  0.00     0.034 C 
BRANCH  28  29
HETATM   29  C   UNK N   1      37.080  13.073   9.259  0.00  0.00     0.004 C 
BRANCH  29  30
HETATM   30  C   UNK N   1      36.815  13.150   7.769  0.00  0.00     0.019 C 
BRANCH  30  31
HETATM   31  C   UNK N   1      38.050  13.677   7.051  0.00  0.00     0.111 C 
BRANCH  31  32
HETATM   32  N   UNK N   1      37.680  14.327   5.804  0.00  0.00    -0.430 N 
HETATM   33  H   UNK N   1      37.399  15.235   5.432  0.00  0.00     0.149 HD
HETATM   34  H   UNK N   1      37.713  13.647   5.046  0.00  0.00     0.149 HD
ENDBRANCH  31  32
ENDBRANCH  30  31
ENDBRANCH  29  30
ENDBRANCH  28  29
ENDBRANCH   1  28
TORSDOF 15
ENDMDL
MODEL 6
REMARK VINA RESULT:      -6.4     10.903     14.492
REMARK  15 active torsions:
REMARK  status: ('A' for Active; 'I' for Inactive)
REMARK    1  A    between atoms: O_2  and  C_18 
REMARK    2  A    between atoms: O_4  and  C_22 
REMARK       I    between atoms: N_6  and  C_14 
REMARK    3  A    between atoms: C_13  and  N_7 
REMARK    4  A    between atoms: C_16  and  N_7 
REMARK    5  A    between atoms: N_8  and  C_23 
REMARK    6  A    between atoms: C_9  and  C_18 
REMARK    7  A    between atoms: C_13  and  C_14 
REMARK    8  A    between atoms: C_13  and  C_15 
REMARK    9  A    between atoms: C_15  and  C_17 
REMARK   10  A    between atoms: C_16  and  C_19 
REMARK   11  A    between atoms: C_16  and  C_22 
REMARK   12  A    between atoms: C_17  and  C_20 
REMARK   13  A    between atoms: C_19  and  C_21 
REMARK   14  A    between atoms: C_20  and  C_23 
REMARK   15  A    between atoms: C_21  and  C_24 
ROOT
HETATM    1  C   UNK N   1      23.872  17.584   4.914  0.00  0.00     0.170 C 
ENDROOT
BRANCH   1   2
HETATM    2  N   UNK N   1      24.296  18.995   5.078  0.00  0.00    -0.396 N 
HETATM    3  H   UNK N   1      24.079  19.500   5.938  0.00  0.00     0.155 HD
BRANCH   2   4
HETATM    4  C   UNK N   1      25.032  19.665   3.992  0.00  0.00     0.176 C 
BRANCH   4   5
HETATM    5  C   UNK N   1      26.291  20.390   4.459  0.00  0.00     0.040 C 
BRANCH   5   6
HETATM    6  C   UNK N   1      27.551  19.574   4.157  0.00  0.00     0.041 C 
BRANCH   6   7
HETATM    7  C   UNK N   1      28.147  18.953   5.387  0.00  0.00    -0.058 A 
HETATM    8  C   UNK N   1      27.776  19.432   6.649  0.00  0.00     0.007 A 
HETATM    9  C   UNK N   1      28.303  18.848   7.806  0.00  0.00     0.001 A 
HETATM   10  C   UNK N   1      29.197  17.778   7.705  0.00  0.00     0.000 A 
HETATM   11  C   UNK N   1      29.571  17.296   6.446  0.00  0.00     0.001 A 
HETATM   12  C   UNK N   1      29.050  17.884   5.289  0.00  0.00     0.007 A 
ENDBRANCH   6   7
ENDBRANCH   5   6
ENDBRANCH   4   5
BRANCH   4  13
HETATM   13  C   UNK N   1      24.193  20.445   3.019  0.00  0.00     0.163 C 
HETATM   14  O   UNK N   1      24.708  20.899   2.010  0.00  0.00    -0.648 OA
BRANCH  13  15
HETATM   15  O   UNK N   1      22.869  20.593   3.211  0.00  0.00    -0.775 OA
HETATM   16  H   UNK N   1      22.293  20.317   3.896  0.00  0.00     0.167 HD
ENDBRANCH  13  15
ENDBRANCH   4  13
ENDBRANCH   2   4
ENDBRANCH   1   2
BRANCH   1  17
HETATM   17  C   UNK N   1      22.351  17.467   4.964  0.00  0.00     0.243 C 
HETATM   18  O   UNK N   1      21.689  18.213   4.261  0.00  0.00    -0.271 OA
HETATM   19  N   UNK N   1      21.717  16.599   5.820  0.00  0.00    -0.336 N 
HETATM   20  C   UNK N   1      20.277  16.559   5.986  0.00  0.00     0.185 C 
HETATM   21  C   UNK N   1      22.431  15.716   6.696  0.00  0.00     0.127 C 
HETATM   22  C   UNK N   1      20.055  15.635   7.179  0.00  0.00     0.038 C 
HETATM   23  C   UNK N   1      21.368  14.895   7.399  0.00  0.00     0.022 C 
BRANCH  20  24
HETATM   24  C   UNK N   1      19.540  16.066   4.761  0.00  0.00     0.163 C 
HETATM   25  O   UNK N   1      19.495  14.873   4.512  0.00  0.00    -0.648 OA
BRANCH  24  26
HETATM   26  O   UNK N   1      18.987  16.940   3.896  0.00  0.00    -0.775 OA
HETATM   27  H   UNK N   1      19.293  17.717   3.471  0.00  0.00     0.167 HD
ENDBRANCH  24  26
ENDBRANCH  20  24
ENDBRANCH   1  17
BRANCH   1  28
HETATM   28  C   UNK N   1      24.539  16.802   3.780  0.00  0.00     0.034 C 
BRANCH  28  29
HETATM   29  C   UNK N   1      25.824  16.214   4.347  0.00  0.00     0.004 C 
BRANCH  29  30
HETATM   30  C   UNK N   1      25.600  14.839   4.942  0.00  0.00     0.019 C 
BRANCH  30  31
HETATM   31  C   UNK N   1      26.354  14.716   6.259  0.00  0.00     0.111 C 
BRANCH  31  32
HETATM   32  N   UNK N   1      26.190  15.919   7.059  0.00  0.00    -0.430 N 
HETATM   33  H   UNK N   1      26.043  16.925   6.964  0.00  0.00     0.149 HD
HETATM   34  H   UNK N   1      26.241  15.677   8.047  0.00  0.00     0.149 HD
ENDBRANCH  31  32
ENDBRANCH  30  31
ENDBRANCH  29  30
ENDBRANCH  28  29
ENDBRANCH   1  28
TORSDOF 15
ENDMDL
MODEL 7
REMARK VINA RESULT:      -6.3     17.492     21.197
REMARK  15 active torsions:
REMARK  status: ('A' for Active; 'I' for Inactive)
REMARK    1  A    between atoms: O_2  and  C_18 
REMARK    2  A    between atoms: O_4  and  C_22 
REMARK       I    between atoms: N_6  and  C_14 
REMARK    3  A    between atoms: C_13  and  N_7 
REMARK    4  A    between atoms: C_16  and  N_7 
REMARK    5  A    between atoms: N_8  and  C_23 
REMARK    6  A    between atoms: C_9  and  C_18 
REMARK    7  A    between atoms: C_13  and  C_14 
REMARK    8  A    between atoms: C_13  and  C_15 
REMARK    9  A    between atoms: C_15  and  C_17 
REMARK   10  A    between atoms: C_16  and  C_19 
REMARK   11  A    between atoms: C_16  and  C_22 
REMARK   12  A    between atoms: C_17  and  C_20 
REMARK   13  A    between atoms: C_19  and  C_21 
REMARK   14  A    between atoms: C_20  and  C_23 
REMARK   15  A    between atoms: C_21  and  C_24 
ROOT
HETATM    1  C   UNK N   1      27.735  24.513  -5.416  0.00  0.00     0.170 C 
ENDROOT
BRANCH   1   2
HETATM    2  N   UNK N   1      27.810  24.287  -3.952  0.00  0.00    -0.396 N 
HETATM    3  H   UNK N   1      26.970  24.364  -3.377  0.00  0.00     0.155 HD
BRANCH   2   4
HETATM    4  C   UNK N   1      29.103  23.949  -3.334  0.00  0.00     0.176 C 
BRANCH   4   5
HETATM    5  C   UNK N   1      30.088  23.284  -4.291  0.00  0.00     0.040 C 
BRANCH   5   6
HETATM    6  C   UNK N   1      30.016  21.757  -4.195  0.00  0.00     0.041 C 
BRANCH   6   7
HETATM    7  C   UNK N   1      31.370  21.121  -4.063  0.00  0.00    -0.058 A 
HETATM    8  C   UNK N   1      31.733  20.088  -4.935  0.00  0.00     0.007 A 
HETATM    9  C   UNK N   1      33.000  19.502  -4.841  0.00  0.00     0.001 A 
HETATM   10  C   UNK N   1      33.910  19.951  -3.880  0.00  0.00     0.000 A 
HETATM   11  C   UNK N   1      33.551  20.982  -3.006  0.00  0.00     0.001 A 
HETATM   12  C   UNK N   1      32.283  21.564  -3.095  0.00  0.00     0.007 A 
ENDBRANCH   6   7
ENDBRANCH   5   6
ENDBRANCH   4   5
BRANCH   4  13
HETATM   13  C   UNK N   1      29.029  23.306  -1.977  0.00  0.00     0.163 C 
HETATM   14  O   UNK N   1      27.955  22.898  -1.563  0.00  0.00    -0.648 OA
BRANCH  13  15
HETATM   15  O   UNK N   1      30.139  23.113  -1.241  0.00  0.00    -0.775 OA
HETATM   16  H   UNK N   1      30.976  22.741  -1.442  0.00  0.00     0.167 HD
ENDBRANCH  13  15
ENDBRANCH   4  13
ENDBRANCH   2   4
ENDBRANCH   1   2
BRANCH   1  17
HETATM   17  C   UNK N   1      26.668  23.624  -6.047  0.00  0.00     0.243 C 
HETATM   18  O   UNK N   1      25.519  23.724  -5.647  0.00  0.00    -0.271 OA
HETATM   19  N   UNK N   1      26.977  22.680  -6.996  0.00  0.00    -0.336 N 
HETATM   20  C   UNK N   1      26.012  21.732  -7.516  0.00  0.00     0.185 C 
HETATM   21  C   UNK N   1      28.310  22.487  -7.490  0.00  0.00     0.127 C 
HETATM   22  C   UNK N   1      26.842  20.755  -8.343  0.00  0.00     0.038 C 
HETATM   23  C   UNK N   1      28.196  21.417  -8.558  0.00  0.00     0.022 C 
BRANCH  20  24
HETATM   24  C   UNK N   1      24.922  22.372  -8.348  0.00  0.00     0.163 C 
HETATM   25  O   UNK N   1      25.201  23.238  -9.160  0.00  0.00    -0.648 OA
BRANCH  24  26
HETATM   26  O   UNK N   1      23.629  22.045  -8.152  0.00  0.00    -0.775 OA
HETATM   27  H   UNK N   1      22.814  22.443  -8.390  0.00  0.00     0.167 HD
ENDBRANCH  24  26
ENDBRANCH  20  24
ENDBRANCH   1  17
BRANCH   1  28
HETATM   28  C   UNK N   1      27.709  25.973  -5.876  0.00  0.00     0.034 C 
BRANCH  28  29
HETATM   29  C   UNK N   1      26.703  26.697  -4.990  0.00  0.00     0.004 C 
BRANCH  29  30
HETATM   30  C   UNK N   1      27.009  28.176  -4.882  0.00  0.00     0.019 C 
BRANCH  30  31
HETATM   31  C   UNK N   1      26.298  28.765  -3.671  0.00  0.00     0.111 C 
BRANCH  31  32
HETATM   32  N   UNK N   1      25.717  27.711  -2.855  0.00  0.00    -0.430 N 
HETATM   33  H   UNK N   1      25.743  26.699  -2.722  0.00  0.00     0.149 HD
HETATM   34  H   UNK N   1      25.062  28.122  -2.190  0.00  0.00     0.149 HD
ENDBRANCH  31  32
ENDBRANCH  30  31
ENDBRANCH  29  30
ENDBRANCH  28  29
ENDBRANCH   1  28
TORSDOF 15
ENDMDL
MODEL 8
REMARK VINA RESULT:      -6.3      2.376      4.089
REMARK  15 active torsions:
REMARK  status: ('A' for Active; 'I' for Inactive)
REMARK    1  A    between atoms: O_2  and  C_18 
REMARK    2  A    between atoms: O_4  and  C_22 
REMARK       I    between atoms: N_6  and  C_14 
REMARK    3  A    between atoms: C_13  and  N_7 
REMARK    4  A    between atoms: C_16  and  N_7 
REMARK    5  A    between atoms: N_8  and  C_23 
REMARK    6  A    between atoms: C_9  and  C_18 
REMARK    7  A    between atoms: C_13  and  C_14 
REMARK    8  A    between atoms: C_13  and  C_15 
REMARK    9  A    between atoms: C_15  and  C_17 
REMARK   10  A    between atoms: C_16  and  C_19 
REMARK   11  A    between atoms: C_16  and  C_22 
REMARK   12  A    between atoms: C_17  and  C_20 
REMARK   13  A    between atoms: C_19  and  C_21 
REMARK   14  A    between atoms: C_20  and  C_23 
REMARK   15  A    between atoms: C_21  and  C_24 
ROOT
HETATM    1  C   UNK N   1      36.159  14.720  10.499  0.00  0.00     0.170 C 
ENDROOT
BRANCH   1   2
HETATM    2  N   UNK N   1      36.675  14.825  11.885  0.00  0.00    -0.396 N 
HETATM    3  H   UNK N   1      37.265  15.613  12.154  0.00  0.00     0.155 HD
BRANCH   2   4
HETATM    4  C   UNK N   1      36.331  13.786  12.870  0.00  0.00     0.176 C 
BRANCH   4   5
HETATM    5  C   UNK N   1      35.053  13.021  12.537  0.00  0.00     0.040 C 
BRANCH   5   6
HETATM    6  C   UNK N   1      35.335  11.534  12.305  0.00  0.00     0.041 C 
BRANCH   6   7
HETATM    7  C   UNK N   1      34.448  10.934  11.253  0.00  0.00    -0.058 A 
HETATM    8  C   UNK N   1      33.716   9.777  11.548  0.00  0.00     0.007 A 
HETATM    9  C   UNK N   1      32.866   9.220  10.588  0.00  0.00     0.001 A 
HETATM   10  C   UNK N   1      32.738   9.820   9.332  0.00  0.00     0.000 A 
HETATM   11  C   UNK N   1      33.468  10.976   9.033  0.00  0.00     0.001 A 
HETATM   12  C   UNK N   1      34.323  11.530   9.990  0.00  0.00     0.007 A 
ENDBRANCH   6   7
ENDBRANCH   5   6
ENDBRANCH   4   5
BRANCH   4  13
HETATM   13  C   UNK N   1      36.454  14.189  14.313  0.00  0.00     0.163 C 
HETATM   14  O   UNK N   1      35.935  13.498  15.177  0.00  0.00    -0.648 OA
BRANCH  13  15
HETATM   15  O   UNK N   1      37.183  15.261  14.672  0.00  0.00    -0.775 OA
HETATM   16  H   UNK N   1      37.010  15.984  15.242  0.00  0.00     0.167 HD
ENDBRANCH  13  15
ENDBRANCH   4  13
ENDBRANCH   2   4
ENDBRANCH   1   2
BRANCH   1  17
HETATM   17  C   UNK N   1      35.542  16.041  10.049  0.00  0.00     0.243 C 
HETATM   18  O   UNK N   1      36.055  17.080  10.431  0.00  0.00    -0.271 OA
HETATM   19  N   UNK N   1      34.398  16.087   9.290  0.00  0.00    -0.336 N 
HETATM   20  C   UNK N   1      33.714  17.322   8.959  0.00  0.00     0.185 C 
HETATM   21  C   UNK N   1      33.724  14.906   8.832  0.00  0.00     0.127 C 
HETATM   22  C   UNK N   1      32.402  16.875   8.323  0.00  0.00     0.038 C 
HETATM   23  C   UNK N   1      32.571  15.401   7.981  0.00  0.00     0.022 C 
BRANCH  20  24
HETATM   24  C   UNK N   1      34.501  18.220   8.030  0.00  0.00     0.163 C 
HETATM   25  O   UNK N   1      34.507  18.003   6.830  0.00  0.00    -0.648 OA
BRANCH  24  26
HETATM   26  O   UNK N   1      35.257  19.222   8.523  0.00  0.00    -0.775 OA
HETATM   27  H   UNK N   1      35.296  19.662   9.349  0.00  0.00     0.167 HD
ENDBRANCH  24  26
ENDBRANCH  20  24
ENDBRANCH   1  17
BRANCH   1  28
HETATM   28  C   UNK N   1      37.090  14.065   9.476  0.00  0.00     0.034 C 
BRANCH  28  29
HETATM   29  C   UNK N   1      38.248  13.458  10.258  0.00  0.00     0.004 C 
BRANCH  29  30
HETATM   30  C   UNK N   1      38.415  11.982   9.962  0.00  0.00     0.019 C 
BRANCH  30  31
HETATM   31  C   UNK N   1      38.968  11.795   8.556  0.00  0.00     0.111 C 
BRANCH  31  32
HETATM   32  N   UNK N   1      38.037  11.037   7.735  0.00  0.00    -0.430 N 
HETATM   33  H   UNK N   1      37.056  10.759   7.692  0.00  0.00     0.149 HD
HETATM   34  H   UNK N   1      38.532  10.653   6.931  0.00  0.00     0.149 HD
ENDBRANCH  31  32
ENDBRANCH  30  31
ENDBRANCH  29  30
ENDBRANCH  28  29
ENDBRANCH   1  28
TORSDOF 15
ENDMDL
MODEL 9
REMARK VINA RESULT:      -6.2      1.696      2.226
REMARK  15 active torsions:
REMARK  status: ('A' for Active; 'I' for Inactive)
REMARK    1  A    between atoms: O_2  and  C_18 
REMARK    2  A    between atoms: O_4  and  C_22 
REMARK       I    between atoms: N_6  and  C_14 
REMARK    3  A    between atoms: C_13  and  N_7 
REMARK    4  A    between atoms: C_16  and  N_7 
REMARK    5  A    between atoms: N_8  and  C_23 
REMARK    6  A    between atoms: C_9  and  C_18 
REMARK    7  A    between atoms: C_13  and  C_14 
REMARK    8  A    between atoms: C_13  and  C_15 
REMARK    9  A    between atoms: C_15  and  C_17 
REMARK   10  A    between atoms: C_16  and  C_19 
REMARK   11  A    between atoms: C_16  and  C_22 
REMARK   12  A    between atoms: C_17  and  C_20 
REMARK   13  A    between atoms: C_19  and  C_21 
REMARK   14  A    between atoms: C_20  and  C_23 
REMARK   15  A    between atoms: C_21  and  C_24 
ROOT
HETATM    1  C   UNK N   1      34.662  14.784  10.840  0.00  0.00     0.170 C 
ENDROOT
BRANCH   1   2
HETATM    2  N   UNK N   1      35.707  14.792  11.891  0.00  0.00    -0.396 N 
HETATM    3  H   UNK N   1      36.254  15.637  12.065  0.00  0.00     0.155 HD
BRANCH   2   4
HETATM    4  C   UNK N   1      35.953  13.575  12.684  0.00  0.00     0.176 C 
BRANCH   4   5
HETATM    5  C   UNK N   1      35.638  13.734  14.169  0.00  0.00     0.040 C 
BRANCH   5   6
HETATM    6  C   UNK N   1      34.760  12.588  14.679  0.00  0.00     0.041 C 
BRANCH   6   7
HETATM    7  C   UNK N   1      34.937  12.334  16.148  0.00  0.00    -0.058 A 
HETATM    8  C   UNK N   1      35.085  11.019  16.607  0.00  0.00     0.007 A 
HETATM    9  C   UNK N   1      35.276  10.767  17.969  0.00  0.00     0.001 A 
HETATM   10  C   UNK N   1      35.326  11.829  18.878  0.00  0.00     0.000 A 
HETATM   11  C   UNK N   1      35.177  13.143  18.424  0.00  0.00     0.001 A 
HETATM   12  C   UNK N   1      34.980  13.396  17.063  0.00  0.00     0.007 A 
ENDBRANCH   6   7
ENDBRANCH   5   6
ENDBRANCH   4   5
BRANCH   4  13
HETATM   13  C   UNK N   1      37.244  12.860  12.398  0.00  0.00     0.163 C 
HETATM   14  O   UNK N   1      37.783  13.004  11.312  0.00  0.00    -0.648 OA
BRANCH  13  15
HETATM   15  O   UNK N   1      37.848  12.118  13.344  0.00  0.00    -0.775 OA
HETATM   16  H   UNK N   1      38.675  12.194  13.776  0.00  0.00     0.167 HD
ENDBRANCH  13  15
ENDBRANCH   4  13
ENDBRANCH   2   4
ENDBRANCH   1   2
BRANCH   1  17
HETATM   17  C   UNK N   1      34.566  16.147  10.161  0.00  0.00     0.243 C 
HETATM   18  O   UNK N   1      35.398  16.995  10.442  0.00  0.00    -0.271 OA
HETATM   19  N   UNK N   1      33.541  16.460   9.302  0.00  0.00    -0.336 N 
HETATM   20  C   UNK N   1      33.348  17.785   8.746  0.00  0.00     0.185 C 
HETATM   21  C   UNK N   1      32.512  15.524   8.950  0.00  0.00     0.127 C 
HETATM   22  C   UNK N   1      31.987  17.719   8.060  0.00  0.00     0.038 C 
HETATM   23  C   UNK N   1      31.639  16.241   7.939  0.00  0.00     0.022 C 
BRANCH  20  24
HETATM   24  C   UNK N   1      34.434  18.200   7.778  0.00  0.00     0.163 C 
HETATM   25  O   UNK N   1      35.275  19.017   8.115  0.00  0.00    -0.648 OA
BRANCH  24  26
HETATM   26  O   UNK N   1      34.445  17.728   6.516  0.00  0.00    -0.775 OA
HETATM   27  H   UNK N   1      34.784  16.952   6.114  0.00  0.00     0.167 HD
ENDBRANCH  24  26
ENDBRANCH  20  24
ENDBRANCH   1  17
BRANCH   1  28
HETATM   28  C   UNK N   1      34.672  13.589   9.883  0.00  0.00     0.034 C 
BRANCH  28  29
HETATM   29  C   UNK N   1      35.664  13.920   8.775  0.00  0.00     0.004 C 
BRANCH  29  30
HETATM   30  C   UNK N   1      35.538  12.968   7.603  0.00  0.00     0.019 C 
BRANCH  30  31
HETATM   31  C   UNK N   1      36.001  13.656   6.326  0.00  0.00     0.111 C 
BRANCH  31  32
HETATM   32  N   UNK N   1      35.539  15.035   6.290  0.00  0.00    -0.430 N 
HETATM   33  H   UNK N   1      34.709  15.592   6.086  0.00  0.00     0.149 HD
HETATM   34  H   UNK N   1      36.304  15.653   6.557  0.00  0.00     0.149 HD
ENDBRANCH  31  32
ENDBRANCH  30  31
ENDBRANCH  29  30
ENDBRANCH  28  29
ENDBRANCH   1  28
TORSDOF 15
ENDMDL
