MODEL 1
REMARK VINA RESULT:      -5.9      0.000      0.000
REMARK  3 active torsions:
REMARK  status: ('A' for Active; 'I' for Inactive)
REMARK    1  A    between atoms: N_1  and  C_7 
REMARK    2  A    between atoms: N_6  and  C_16 
REMARK    3  A    between atoms: C_7  and  C_8 
ROOT
HETATM    1  N   UNK N   1      29.632  17.762   7.387  0.00  0.00    -0.340 N 
HETATM    2  N   UNK N   1      30.810  17.779   9.299  0.00  0.00    -0.347 N 
ATOM      3  HN  UNK N   1      31.057  17.858  10.285  1.00  0.00     0.167 HD
HETATM    4  N   UNK N   1      33.624  16.967   7.112  0.00  0.00    -0.340 N 
ATOM      5  HN  UNK N   1      34.625  16.767   7.118  1.00  0.00     0.167 HD
HETATM    6  C   UNK N   1      30.922  17.502   7.104  0.00  0.00     0.078 A 
HETATM    7  C   UNK N   1      31.550  17.226   5.882  0.00  0.00     0.020 A 
HETATM    8  C   UNK N   1      31.627  17.509   8.265  0.00  0.00     0.105 A 
HETATM    9  C   UNK N   1      29.582  17.921   8.735  0.00  0.00     0.184 A 
HETATM   10  C   UNK N   1      32.947  16.952   5.919  0.00  0.00     0.046 A 
HETATM   11  C   UNK N   1      32.991  17.243   8.291  0.00  0.00     0.129 A 
HETATM   12  C   UNK N   1      30.868  17.205   4.661  0.00  0.00     0.016 A 
HETATM   13  C   UNK N   1      33.626  16.661   4.734  0.00  0.00     0.030 A 
HETATM   14  C   UNK N   1      31.563  16.915   3.482  0.00  0.00     0.001 A 
HETATM   15  C   UNK N   1      32.935  16.642   3.519  0.00  0.00     0.002 A 
ENDROOT
BRANCH   1  16
HETATM   16  C   UNK N   1      28.493  17.788   6.468  0.00  0.00     0.134 C 
BRANCH  16  17
HETATM   17  C   UNK N   1      28.297  19.152   5.814  0.00  0.00    -0.004 C 
HETATM   18  C   UNK N   1      27.407  20.021   6.685  0.00  0.00     0.011 C 
HETATM   19  C   UNK N   1      27.603  18.963   4.481  0.00  0.00     0.011 C 
ENDBRANCH  16  17
ENDBRANCH   1  16
BRANCH  11  20
HETATM   20  N   UNK N   1      33.708  17.238   9.504  0.00  0.00    -0.384 N 
HETATM   21  H   UNK N   1      34.159  16.416   9.807  0.00  0.00     0.157 HD
HETATM   22  H   UNK N   1      33.760  18.056  10.049  0.00  0.00     0.157 HD
ENDBRANCH  11  20
TORSDOF 3
ENDMDL
MODEL 2
REMARK VINA RESULT:      -5.9      2.467      5.731
REMARK  3 active torsions:
REMARK  status: ('A' for Active; 'I' for Inactive)
REMARK    1  A    between atoms: N_1  and  C_7 
REMARK    2  A    between atoms: N_6  and  C_16 
REMARK    3  A    between atoms: C_7  and  C_8 
ROOT
HETATM    1  N   UNK N   1      30.056  16.875   4.535  0.00  0.00    -0.340 N 
HETATM    2  N   UNK N   1      28.157  17.444   3.482  0.00  0.00    -0.347 N 
ATOM      3  HN  UNK N   1      27.452  17.578   2.756  1.00  0.00     0.167 HD
HETATM    4  N   UNK N   1      27.158  18.670   6.777  0.00  0.00    -0.340 N 
ATOM      5  HN  UNK N   1      26.387  19.113   7.279  1.00  0.00     0.167 HD
HETATM    6  C   UNK N   1      29.231  17.468   5.419  0.00  0.00     0.078 A 
HETATM    7  C   UNK N   1      29.392  17.726   6.787  0.00  0.00     0.020 A 
HETATM    8  C   UNK N   1      28.083  17.806   4.776  0.00  0.00     0.105 A 
HETATM    9  C   UNK N   1      29.378  16.864   3.358  0.00  0.00     0.184 A 
HETATM   10  C   UNK N   1      28.302  18.347   7.461  0.00  0.00     0.046 A 
HETATM   11  C   UNK N   1      27.025  18.413   5.442  0.00  0.00     0.129 A 
HETATM   12  C   UNK N   1      30.552  17.396   7.494  0.00  0.00     0.016 A 
HETATM   13  C   UNK N   1      28.400  18.618   8.828  0.00  0.00     0.030 A 
HETATM   14  C   UNK N   1      30.637  17.679   8.861  0.00  0.00     0.001 A 
HETATM   15  C   UNK N   1      29.565  18.286   9.526  0.00  0.00     0.002 A 
ENDROOT
BRANCH   1  16
HETATM   16  C   UNK N   1      31.372  16.284   4.786  0.00  0.00     0.134 C 
BRANCH  16  17
HETATM   17  C   UNK N   1      32.513  17.140   4.245  0.00  0.00    -0.004 C 
HETATM   18  C   UNK N   1      33.190  16.428   3.087  0.00  0.00     0.011 C 
HETATM   19  C   UNK N   1      33.542  17.335   5.339  0.00  0.00     0.011 C 
ENDBRANCH  16  17
ENDBRANCH   1  16
BRANCH  11  20
HETATM   20  N   UNK N   1      25.833  18.744   4.767  0.00  0.00    -0.384 N 
HETATM   21  H   UNK N   1      25.553  18.224   3.979  0.00  0.00     0.157 HD
HETATM   22  H   UNK N   1      25.280  19.494   5.083  0.00  0.00     0.157 HD
ENDBRANCH  11  20
TORSDOF 3
ENDMDL
MODEL 3
REMARK VINA RESULT:      -5.9      1.798      5.669
REMARK  3 active torsions:
REMARK  status: ('A' for Active; 'I' for Inactive)
REMARK    1  A    between atoms: N_1  and  C_7 
REMARK    2  A    between atoms: N_6  and  C_16 
REMARK    3  A    between atoms: C_7  and  C_8 
ROOT
HETATM    1  N   UNK N   1      33.090  17.428   7.300  0.00  0.00    -0.340 N 
HETATM    2  N   UNK N   1      33.006  17.083   5.083  0.00  0.00    -0.347 N 
ATOM      3  HN  UNK N   1      33.284  16.917   4.116  1.00  0.00     0.167 HD
HETATM    4  N   UNK N   1      29.394  17.366   5.573  0.00  0.00    -0.340 N 
ATOM      5  HN  UNK N   1      28.503  17.328   5.077  1.00  0.00     0.167 HD
HETATM    6  C   UNK N   1      31.803  17.460   6.905  0.00  0.00     0.078 A 
HETATM    7  C   UNK N   1      30.627  17.641   7.643  0.00  0.00     0.020 A 
HETATM    8  C   UNK N   1      31.760  17.246   5.564  0.00  0.00     0.105 A 
HETATM    9  C   UNK N   1      33.809  17.189   6.173  0.00  0.00     0.184 A 
HETATM   10  C   UNK N   1      29.397  17.586   6.927  0.00  0.00     0.046 A 
HETATM   11  C   UNK N   1      30.555  17.196   4.873  0.00  0.00     0.129 A 
HETATM   12  C   UNK N   1      30.618  17.862   9.025  0.00  0.00     0.016 A 
HETATM   13  C   UNK N   1      28.190  17.750   7.611  0.00  0.00     0.030 A 
HETATM   14  C   UNK N   1      29.402  18.029   9.694  0.00  0.00     0.001 A 
HETATM   15  C   UNK N   1      28.193  17.971   8.991  0.00  0.00     0.002 A 
ENDROOT
BRANCH   1  16
HETATM   16  C   UNK N   1      33.620  17.538   8.661  0.00  0.00     0.134 C 
BRANCH  16  17
HETATM   17  C   UNK N   1      34.340  16.273   9.115  0.00  0.00    -0.004 C 
HETATM   18  C   UNK N   1      33.326  15.214   9.510  0.00  0.00     0.011 C 
HETATM   19  C   UNK N   1      35.177  16.596  10.336  0.00  0.00     0.011 C 
ENDBRANCH  16  17
ENDBRANCH   1  16
BRANCH  11  20
HETATM   20  N   UNK N   1      30.523  16.957   3.484  0.00  0.00    -0.384 N 
HETATM   21  H   UNK N   1      29.661  16.830   3.026  0.00  0.00     0.157 HD
HETATM   22  H   UNK N   1      31.363  16.919   2.972  0.00  0.00     0.157 HD
ENDBRANCH  11  20
TORSDOF 3
ENDMDL
MODEL 4
REMARK VINA RESULT:      -5.8      1.387      4.367
REMARK  3 active torsions:
REMARK  status: ('A' for Active; 'I' for Inactive)
REMARK    1  A    between atoms: N_1  and  C_7 
REMARK    2  A    between atoms: N_6  and  C_16 
REMARK    3  A    between atoms: C_7  and  C_8 
ROOT
HETATM    1  N   UNK N   1      31.442  16.215   6.608  0.00  0.00    -0.340 N 
HETATM    2  N   UNK N   1      31.623  16.799   8.769  0.00  0.00    -0.347 N 
ATOM      3  HN  UNK N   1      31.955  16.868   9.730  1.00  0.00     0.167 HD
HETATM    4  N   UNK N   1      28.635  18.787   8.076  0.00  0.00    -0.340 N 
ATOM      5  HN  UNK N   1      27.973  19.434   8.506  1.00  0.00     0.167 HD
HETATM    6  C   UNK N   1      30.428  17.045   6.919  0.00  0.00     0.078 A 
HETATM    7  C   UNK N   1      29.390  17.555   6.128  0.00  0.00     0.020 A 
HETATM    8  C   UNK N   1      30.546  17.397   8.226  0.00  0.00     0.105 A 
HETATM    9  C   UNK N   1      32.165  16.083   7.750  0.00  0.00     0.184 A 
HETATM   10  C   UNK N   1      28.480  18.454   6.754  0.00  0.00     0.046 A 
HETATM   11  C   UNK N   1      29.652  18.273   8.829  0.00  0.00     0.129 A 
HETATM   12  C   UNK N   1      29.227  17.225   4.779  0.00  0.00     0.016 A 
HETATM   13  C   UNK N   1      27.432  19.003   6.013  0.00  0.00     0.030 A 
HETATM   14  C   UNK N   1      28.169  17.780   4.051  0.00  0.00     0.001 A 
HETATM   15  C   UNK N   1      27.277  18.667   4.665  0.00  0.00     0.002 A 
ENDROOT
BRANCH   1  16
HETATM   16  C   UNK N   1      31.765  15.636   5.303  0.00  0.00     0.134 C 
BRANCH  16  17
HETATM   17  C   UNK N   1      33.057  16.194   4.716  0.00  0.00    -0.004 C 
HETATM   18  C   UNK N   1      32.873  17.658   4.358  0.00  0.00     0.011 C 
HETATM   19  C   UNK N   1      33.386  15.440   3.445  0.00  0.00     0.011 C 
ENDBRANCH  16  17
ENDBRANCH   1  16
BRANCH  11  20
HETATM   20  N   UNK N   1      29.795  18.643  10.181  0.00  0.00    -0.384 N 
HETATM   21  H   UNK N   1      29.008  18.923  10.702  0.00  0.00     0.157 HD
HETATM   22  H   UNK N   1      30.683  18.621  10.606  0.00  0.00     0.157 HD
ENDBRANCH  11  20
TORSDOF 3
ENDMDL
MODEL 5
REMARK VINA RESULT:      -5.8      1.689      4.292
REMARK  3 active torsions:
REMARK  status: ('A' for Active; 'I' for Inactive)
REMARK    1  A    between atoms: N_1  and  C_7 
REMARK    2  A    between atoms: N_6  and  C_16 
REMARK    3  A    between atoms: C_7  and  C_8 
ROOT
HETATM    1  N   UNK N   1      31.504  16.903   5.101  0.00  0.00    -0.340 N 
HETATM    2  N   UNK N   1      33.607  17.334   5.759  0.00  0.00    -0.347 N 
ATOM      3  HN  UNK N   1      34.621  17.446   5.757  1.00  0.00     0.167 HD
HETATM    4  N   UNK N   1      32.029  18.097   8.967  0.00  0.00    -0.340 N 
ATOM      5  HN  UNK N   1      32.232  18.409   9.917  1.00  0.00     0.167 HD
HETATM    6  C   UNK N   1      31.488  17.260   6.399  0.00  0.00     0.078 A 
HETATM    7  C   UNK N   1      30.418  17.404   7.292  0.00  0.00     0.020 A 
HETATM    8  C   UNK N   1      32.762  17.524   6.789  0.00  0.00     0.105 A 
HETATM    9  C   UNK N   1      32.809  16.961   4.726  0.00  0.00     0.184 A 
HETATM   10  C   UNK N   1      30.729  17.839   8.612  0.00  0.00     0.046 A 
HETATM   11  C   UNK N   1      33.057  17.946   8.080  0.00  0.00     0.129 A 
HETATM   12  C   UNK N   1      29.089  17.147   6.939  0.00  0.00     0.016 A 
HETATM   13  C   UNK N   1      29.703  18.010   9.543  0.00  0.00     0.030 A 
HETATM   14  C   UNK N   1      28.073  17.318   7.885  0.00  0.00     0.001 A 
HETATM   15  C   UNK N   1      28.378  17.750   9.180  0.00  0.00     0.002 A 
ENDROOT
BRANCH   1  16
HETATM   16  C   UNK N   1      30.365  16.596   4.234  0.00  0.00     0.134 C 
BRANCH  16  17
HETATM   17  C   UNK N   1      30.390  15.162   3.716  0.00  0.00    -0.004 C 
HETATM   18  C   UNK N   1      29.342  14.985   2.632  0.00  0.00     0.011 C 
HETATM   19  C   UNK N   1      30.048  14.222   4.854  0.00  0.00     0.011 C 
ENDBRANCH  16  17
ENDBRANCH   1  16
BRANCH  11  20
HETATM   20  N   UNK N   1      34.381  18.232   8.467  0.00  0.00    -0.384 N 
HETATM   21  H   UNK N   1      34.669  18.074   9.396  0.00  0.00     0.157 HD
HETATM   22  H   UNK N   1      35.020  18.589   7.809  0.00  0.00     0.157 HD
ENDBRANCH  11  20
TORSDOF 3
ENDMDL
MODEL 6
REMARK VINA RESULT:      -5.8      1.687      2.898
REMARK  3 active torsions:
REMARK  status: ('A' for Active; 'I' for Inactive)
REMARK    1  A    between atoms: N_1  and  C_7 
REMARK    2  A    between atoms: N_6  and  C_16 
REMARK    3  A    between atoms: C_7  and  C_8 
ROOT
HETATM    1  N   UNK N   1      28.614  17.518   5.691  0.00  0.00    -0.340 N 
HETATM    2  N   UNK N   1      27.916  17.576   7.824  0.00  0.00    -0.347 N 
ATOM      3  HN  UNK N   1      27.315  17.622   8.647  1.00  0.00     0.167 HD
HETATM    4  N   UNK N   1      31.484  17.356   8.587  0.00  0.00    -0.340 N 
ATOM      5  HN  UNK N   1      32.146  17.310   9.362  1.00  0.00     0.167 HD
HETATM    6  C   UNK N   1      29.689  17.476   6.500  0.00  0.00     0.078 A 
HETATM    7  C   UNK N   1      31.055  17.386   6.200  0.00  0.00     0.020 A 
HETATM    8  C   UNK N   1      29.259  17.508   7.789  0.00  0.00     0.105 A 
HETATM    9  C   UNK N   1      27.539  17.572   6.519  0.00  0.00     0.184 A 
HETATM   10  C   UNK N   1      31.957  17.324   7.300  0.00  0.00     0.046 A 
HETATM   11  C   UNK N   1      30.148  17.449   8.856  0.00  0.00     0.129 A 
HETATM   12  C   UNK N   1      31.548  17.349   4.892  0.00  0.00     0.016 A 
HETATM   13  C   UNK N   1      33.330  17.223   7.063  0.00  0.00     0.030 A 
HETATM   14  C   UNK N   1      32.926  17.252   4.671  0.00  0.00     0.001 A 
HETATM   15  C   UNK N   1      33.812  17.187   5.751  0.00  0.00     0.002 A 
ENDROOT
BRANCH   1  16
HETATM   16  C   UNK N   1      28.582  17.437   4.230  0.00  0.00     0.134 C 
BRANCH  16  17
HETATM   17  C   UNK N   1      28.172  16.056   3.727  0.00  0.00    -0.004 C 
HETATM   18  C   UNK N   1      29.166  15.569   2.688  0.00  0.00     0.011 C 
HETATM   19  C   UNK N   1      26.815  16.158   3.063  0.00  0.00     0.011 C 
ENDBRANCH  16  17
ENDBRANCH   1  16
BRANCH  11  20
HETATM   20  N   UNK N   1      29.687  17.466  10.188  0.00  0.00    -0.384 N 
HETATM   21  H   UNK N   1      28.795  17.828  10.397  0.00  0.00     0.157 HD
HETATM   22  H   UNK N   1      30.257  17.115  10.910  0.00  0.00     0.157 HD
ENDBRANCH  11  20
TORSDOF 3
ENDMDL
MODEL 7
REMARK VINA RESULT:      -5.7      8.413     10.785
REMARK  3 active torsions:
REMARK  status: ('A' for Active; 'I' for Inactive)
REMARK    1  A    between atoms: N_1  and  C_7 
REMARK    2  A    between atoms: N_6  and  C_16 
REMARK    3  A    between atoms: C_7  and  C_8 
ROOT
HETATM    1  N   UNK N   1      36.391  12.901  15.105  0.00  0.00    -0.340 N 
HETATM    2  N   UNK N   1      36.875  14.911  14.229  0.00  0.00    -0.347 N 
ATOM      3  HN  UNK N   1      37.205  15.870  14.126  1.00  0.00     0.167 HD
HETATM    4  N   UNK N   1      35.358  13.521  11.207  0.00  0.00    -0.340 N 
ATOM      5  HN  UNK N   1      35.137  13.742  10.236  1.00  0.00     0.167 HD
HETATM    6  C   UNK N   1      35.964  12.931  13.829  0.00  0.00     0.078 A 
HETATM    7  C   UNK N   1      35.337  11.948  13.053  0.00  0.00     0.020 A 
HETATM    8  C   UNK N   1      36.263  14.148  13.304  0.00  0.00     0.105 A 
HETATM    9  C   UNK N   1      36.952  14.118  15.329  0.00  0.00     0.184 A 
HETATM   10  C   UNK N   1      35.038  12.283  11.701  0.00  0.00     0.046 A 
HETATM   11  C   UNK N   1      35.965  14.467  11.984  0.00  0.00     0.129 A 
HETATM   12  C   UNK N   1      35.010  10.680  13.545  0.00  0.00     0.016 A 
HETATM   13  C   UNK N   1      34.422  11.339  10.876  0.00  0.00     0.030 A 
HETATM   14  C   UNK N   1      34.389   9.748  12.707  0.00  0.00     0.001 A 
HETATM   15  C   UNK N   1      34.099  10.075  11.378  0.00  0.00     0.002 A 
ENDROOT
BRANCH   1  16
HETATM   16  C   UNK N   1      36.350  11.778  16.044  0.00  0.00     0.134 C 
BRANCH  16  17
HETATM   17  C   UNK N   1      35.066  11.748  16.867  0.00  0.00    -0.004 C 
HETATM   18  C   UNK N   1      35.185  12.696  18.047  0.00  0.00     0.011 C 
HETATM   19  C   UNK N   1      34.865  10.349  17.411  0.00  0.00     0.011 C 
ENDBRANCH  16  17
ENDBRANCH   1  16
BRANCH  11  20
HETATM   20  N   UNK N   1      36.296  15.727  11.447  0.00  0.00    -0.384 N 
HETATM   21  H   UNK N   1      37.195  15.885  11.078  0.00  0.00     0.157 HD
HETATM   22  H   UNK N   1      35.627  16.449  11.440  0.00  0.00     0.157 HD
ENDBRANCH  11  20
TORSDOF 3
ENDMDL
MODEL 8
REMARK VINA RESULT:      -5.7      1.545      4.376
REMARK  3 active torsions:
REMARK  status: ('A' for Active; 'I' for Inactive)
REMARK    1  A    between atoms: N_1  and  C_7 
REMARK    2  A    between atoms: N_6  and  C_16 
REMARK    3  A    between atoms: C_7  and  C_8 
ROOT
HETATM    1  N   UNK N   1      31.578  16.734   7.889  0.00  0.00    -0.340 N 
HETATM    2  N   UNK N   1      29.522  17.636   7.944  0.00  0.00    -0.347 N 
ATOM      3  HN  UNK N   1      28.636  18.012   8.283  1.00  0.00     0.167 HD
HETATM    4  N   UNK N   1      29.841  17.614   4.303  0.00  0.00    -0.340 N 
ATOM      5  HN  UNK N   1      29.351  17.868   3.444  1.00  0.00     0.167 HD
HETATM    6  C   UNK N   1      31.159  16.937   6.625  0.00  0.00     0.078 A 
HETATM    7  C   UNK N   1      31.799  16.698   5.402  0.00  0.00     0.020 A 
HETATM    8  C   UNK N   1      29.917  17.486   6.667  0.00  0.00     0.105 A 
HETATM    9  C   UNK N   1      30.566  17.175   8.681  0.00  0.00     0.184 A 
HETATM   10  C   UNK N   1      31.093  17.060   4.220  0.00  0.00     0.046 A 
HETATM   11  C   UNK N   1      29.234  17.835   5.507  0.00  0.00     0.129 A 
HETATM   12  C   UNK N   1      33.077  16.137   5.307  0.00  0.00     0.016 A 
HETATM   13  C   UNK N   1      31.685  16.854   2.971  0.00  0.00     0.030 A 
HETATM   14  C   UNK N   1      33.654  15.933   4.049  0.00  0.00     0.001 A 
HETATM   15  C   UNK N   1      32.962  16.292   2.887  0.00  0.00     0.002 A 
ENDROOT
BRANCH   1  16
HETATM   16  C   UNK N   1      32.876  16.229   8.339  0.00  0.00     0.134 C 
BRANCH  16  17
HETATM   17  C   UNK N   1      33.714  17.299   9.031  0.00  0.00    -0.004 C 
HETATM   18  C   UNK N   1      34.325  18.227   7.997  0.00  0.00     0.011 C 
HETATM   19  C   UNK N   1      34.845  16.627   9.782  0.00  0.00     0.011 C 
ENDBRANCH  16  17
ENDBRANCH   1  16
BRANCH  11  20
HETATM   20  N   UNK N   1      27.953  18.419   5.564  0.00  0.00    -0.384 N 
HETATM   21  H   UNK N   1      27.158  17.852   5.685  0.00  0.00     0.157 HD
HETATM   22  H   UNK N   1      27.854  19.395   5.484  0.00  0.00     0.157 HD
ENDBRANCH  11  20
TORSDOF 3
ENDMDL
MODEL 9
REMARK VINA RESULT:      -5.5     11.886     14.080
REMARK  3 active torsions:
REMARK  status: ('A' for Active; 'I' for Inactive)
REMARK    1  A    between atoms: N_1  and  C_7 
REMARK    2  A    between atoms: N_6  and  C_16 
REMARK    3  A    between atoms: C_7  and  C_8 
ROOT
HETATM    1  N   UNK N   1      43.379  23.790   0.563  0.00  0.00    -0.340 N 
HETATM    2  N   UNK N   1      45.262  23.855   1.786  0.00  0.00    -0.347 N 
ATOM      3  HN  UNK N   1      46.195  24.099   2.118  1.00  0.00     0.167 HD
HETATM    4  N   UNK N   1      43.567  21.326   3.810  0.00  0.00    -0.340 N 
ATOM      5  HN  UNK N   1      43.679  20.744   4.641  1.00  0.00     0.167 HD
HETATM    6  C   UNK N   1      43.272  22.905   1.572  0.00  0.00     0.078 A 
HETATM    7  C   UNK N   1      42.220  22.051   1.928  0.00  0.00     0.020 A 
HETATM    8  C   UNK N   1      44.412  22.953   2.309  0.00  0.00     0.105 A 
HETATM    9  C   UNK N   1      44.601  24.366   0.715  0.00  0.00     0.184 A 
HETATM   10  C   UNK N   1      42.402  21.248   3.090  0.00  0.00     0.046 A 
HETATM   11  C   UNK N   1      44.582  22.164   3.441  0.00  0.00     0.129 A 
HETATM   12  C   UNK N   1      41.026  21.967   1.204  0.00  0.00     0.016 A 
HETATM   13  C   UNK N   1      41.384  20.385   3.501  0.00  0.00     0.030 A 
HETATM   14  C   UNK N   1      40.018  21.094   1.625  0.00  0.00     0.001 A 
HETATM   15  C   UNK N   1      40.195  20.308   2.769  0.00  0.00     0.002 A 
ENDROOT
BRANCH   1  16
HETATM   16  C   UNK N   1      42.375  24.138  -0.443  0.00  0.00     0.134 C 
BRANCH  16  17
HETATM   17  C   UNK N   1      41.815  25.544  -0.253  0.00  0.00    -0.004 C 
HETATM   18  C   UNK N   1      40.391  25.467   0.267  0.00  0.00     0.011 C 
HETATM   19  C   UNK N   1      41.784  26.246  -1.595  0.00  0.00     0.011 C 
ENDBRANCH  16  17
ENDBRANCH   1  16
BRANCH  11  20
HETATM   20  N   UNK N   1      45.763  22.235   4.207  0.00  0.00    -0.384 N 
HETATM   21  H   UNK N   1      46.637  22.309   3.759  0.00  0.00     0.157 HD
HETATM   22  H   UNK N   1      45.714  22.211   5.190  0.00  0.00     0.157 HD
ENDBRANCH  11  20
TORSDOF 3
ENDMDL
