MODEL 1
REMARK VINA RESULT:      -5.1      0.000      0.000
REMARK  8 active torsions:
REMARK  status: ('A' for Active; 'I' for Inactive)
REMARK    1  A    between atoms: O_1  and  N_10 
REMARK    2  A    between atoms: O_1  and  C_13 
REMARK    3  A    between atoms: O_2  and  N_11 
REMARK    4  A    between atoms: O_2  and  C_14 
REMARK    5  A    between atoms: O_3  and  N_12 
REMARK    6  A    between atoms: O_3  and  C_15 
REMARK    7  A    between atoms: C_13  and  C_14 
REMARK    8  A    between atoms: C_13  and  C_15 
ROOT
HETATM    1  C   UNK N   1      20.782  17.840   2.993  0.00  0.00     0.211 C 
ENDROOT
BRANCH   1   2
HETATM    2  O   UNK N   1      19.991  17.256   2.018  0.00  0.00    -0.211 OA
BRANCH   2   3
HETATM    3  N   UNK N   1      20.454  16.735   0.892  0.00  0.00     0.005 N 
HETATM    4  O   UNK N   1      20.346  17.422  -0.225  0.00  0.00    -0.511 OA
HETATM    5  O   UNK N   1      21.044  15.699   0.888  0.00  0.00    -0.511 OA
ENDBRANCH   2   3
ENDBRANCH   1   2
BRANCH   1   6
HETATM    6  C   UNK N   1      20.283  19.264   3.169  0.00  0.00     0.245 C 
BRANCH   6   7
HETATM    7  O   UNK N   1      20.138  19.908   1.963  0.00  0.00    -0.219 OA
BRANCH   7   8
HETATM    8  N   UNK N   1      21.179  20.452   1.369  0.00  0.00     0.005 N 
HETATM    9  O   UNK N   1      21.136  20.685   0.076  0.00  0.00    -0.511 OA
HETATM   10  O   UNK N   1      22.017  20.986   2.030  0.00  0.00    -0.511 OA
ENDBRANCH   7   8
ENDBRANCH   6   7
ENDBRANCH   1   6
BRANCH   1  11
HETATM   11  C   UNK N   1      20.619  17.125   4.335  0.00  0.00     0.245 C 
BRANCH  11  12
HETATM   12  O   UNK N   1      21.585  17.508   5.238  0.00  0.00    -0.219 OA
BRANCH  12  13
HETATM   13  N   UNK N   1      21.302  17.747   6.506  0.00  0.00     0.005 N 
HETATM   14  O   UNK N   1      21.395  16.793   7.409  0.00  0.00    -0.511 OA
HETATM   15  O   UNK N   1      21.011  18.853   6.846  0.00  0.00    -0.511 OA
ENDBRANCH  12  13
ENDBRANCH  11  12
ENDBRANCH   1  11
TORSDOF 8
ENDMDL
MODEL 2
REMARK VINA RESULT:      -5.0     12.574     14.492
REMARK  8 active torsions:
REMARK  status: ('A' for Active; 'I' for Inactive)
REMARK    1  A    between atoms: O_1  and  N_10 
REMARK    2  A    between atoms: O_1  and  C_13 
REMARK    3  A    between atoms: O_2  and  N_11 
REMARK    4  A    between atoms: O_2  and  C_14 
REMARK    5  A    between atoms: O_3  and  N_12 
REMARK    6  A    between atoms: O_3  and  C_15 
REMARK    7  A    between atoms: C_13  and  C_14 
REMARK    8  A    between atoms: C_13  and  C_15 
ROOT
HETATM    1  C   UNK N   1      32.957  16.684   8.527  0.00  0.00     0.211 C 
ENDROOT
BRANCH   1   2
HETATM    2  O   UNK N   1      33.667  17.816   8.888  0.00  0.00    -0.211 OA
BRANCH   2   3
HETATM    3  N   UNK N   1      34.575  18.407   8.125  0.00  0.00     0.005 N 
HETATM    4  O   UNK N   1      34.603  18.140   6.837  0.00  0.00    -0.511 OA
HETATM    5  O   UNK N   1      35.304  19.240   8.568  0.00  0.00    -0.511 OA
ENDBRANCH   2   3
ENDBRANCH   1   2
BRANCH   1   6
HETATM    6  C   UNK N   1      33.363  15.583   9.491  0.00  0.00     0.245 C 
BRANCH   6   7
HETATM    7  O   UNK N   1      34.726  15.410   9.525  0.00  0.00    -0.219 OA
BRANCH   7   8
HETATM    8  N   UNK N   1      35.398  15.627  10.636  0.00  0.00     0.005 N 
HETATM    9  O   UNK N   1      36.344  16.541  10.650  0.00  0.00    -0.511 OA
HETATM   10  O   UNK N   1      34.967  15.219  11.671  0.00  0.00    -0.511 OA
ENDBRANCH   7   8
ENDBRANCH   6   7
ENDBRANCH   1   6
BRANCH   1  11
HETATM   11  C   UNK N   1      31.452  16.905   8.685  0.00  0.00     0.245 C 
BRANCH  11  12
HETATM   12  O   UNK N   1      31.142  18.240   8.804  0.00  0.00    -0.219 OA
BRANCH  12  13
HETATM   13  N   UNK N   1      29.930  18.651   9.133  0.00  0.00     0.005 N 
HETATM   14  O   UNK N   1      28.991  18.779   8.218  0.00  0.00    -0.511 OA
HETATM   15  O   UNK N   1      29.668  18.856  10.278  0.00  0.00    -0.511 OA
ENDBRANCH  12  13
ENDBRANCH  11  12
ENDBRANCH   1  11
TORSDOF 8
ENDMDL
MODEL 3
REMARK VINA RESULT:      -5.0      0.526      4.602
REMARK  8 active torsions:
REMARK  status: ('A' for Active; 'I' for Inactive)
REMARK    1  A    between atoms: O_1  and  N_10 
REMARK    2  A    between atoms: O_1  and  C_13 
REMARK    3  A    between atoms: O_2  and  N_11 
REMARK    4  A    between atoms: O_2  and  C_14 
REMARK    5  A    between atoms: O_3  and  N_12 
REMARK    6  A    between atoms: O_3  and  C_15 
REMARK    7  A    between atoms: C_13  and  C_14 
REMARK    8  A    between atoms: C_13  and  C_15 
ROOT
HETATM    1  C   UNK N   1      19.986  17.846   3.069  0.00  0.00     0.211 C 
ENDROOT
BRANCH   1   2
HETATM    2  O   UNK N   1      20.755  17.255   2.081  0.00  0.00    -0.211 OA
BRANCH   2   3
HETATM    3  N   UNK N   1      20.274  16.769   0.947  0.00  0.00     0.005 N 
HETATM    4  O   UNK N   1      19.627  15.623   0.963  0.00  0.00    -0.511 OA
HETATM    5  O   UNK N   1      20.337  17.393  -0.067  0.00  0.00    -0.511 OA
ENDBRANCH   2   3
ENDBRANCH   1   2
BRANCH   1   6
HETATM    6  C   UNK N   1      20.362  17.176   4.380  0.00  0.00     0.245 C 
BRANCH   6   7
HETATM    7  O   UNK N   1      21.287  17.911   5.082  0.00  0.00    -0.219 OA
BRANCH   7   8
HETATM    8  N   UNK N   1      21.346  17.829   6.395  0.00  0.00     0.005 N 
HETATM    9  O   UNK N   1      20.926  18.839   7.125  0.00  0.00    -0.511 OA
HETATM   10  O   UNK N   1      21.501  16.763   6.908  0.00  0.00    -0.511 OA
ENDBRANCH   7   8
ENDBRANCH   6   7
ENDBRANCH   1   6
BRANCH   1  11
HETATM   11  C   UNK N   1      20.309  19.335   3.202  0.00  0.00     0.245 C 
BRANCH  11  12
HETATM   12  O   UNK N   1      20.136  20.002   2.010  0.00  0.00    -0.219 OA
BRANCH  12  13
HETATM   13  N   UNK N   1      21.156  20.494   1.329  0.00  0.00     0.005 N 
HETATM   14  O   UNK N   1      21.047  20.744   0.040  0.00  0.00    -0.511 OA
HETATM   15  O   UNK N   1      22.169  20.764   1.899  0.00  0.00    -0.511 OA
ENDBRANCH  12  13
ENDBRANCH  11  12
ENDBRANCH   1  11
TORSDOF 8
ENDMDL
MODEL 4
REMARK VINA RESULT:      -4.9      0.784      5.125
REMARK  8 active torsions:
REMARK  status: ('A' for Active; 'I' for Inactive)
REMARK    1  A    between atoms: O_1  and  N_10 
REMARK    2  A    between atoms: O_1  and  C_13 
REMARK    3  A    between atoms: O_2  and  N_11 
REMARK    4  A    between atoms: O_2  and  C_14 
REMARK    5  A    between atoms: O_3  and  N_12 
REMARK    6  A    between atoms: O_3  and  C_15 
REMARK    7  A    between atoms: C_13  and  C_14 
REMARK    8  A    between atoms: C_13  and  C_15 
ROOT
HETATM    1  C   UNK N   1      21.557  18.525   3.286  0.00  0.00     0.211 C 
ENDROOT
BRANCH   1   2
HETATM    2  O   UNK N   1      20.835  19.510   2.634  0.00  0.00    -0.211 OA
BRANCH   2   3
HETATM    3  N   UNK N   1      21.376  20.495   1.933  0.00  0.00     0.005 N 
HETATM    4  O   UNK N   1      22.053  21.433   2.560  0.00  0.00    -0.511 OA
HETATM    5  O   UNK N   1      21.337  20.497   0.741  0.00  0.00    -0.511 OA
ENDBRANCH   2   3
ENDBRANCH   1   2
BRANCH   1   6
HETATM    6  C   UNK N   1      21.511  18.853   4.768  0.00  0.00     0.245 C 
BRANCH   6   7
HETATM    7  O   UNK N   1      21.040  17.797   5.512  0.00  0.00    -0.219 OA
BRANCH   7   8
HETATM    8  N   UNK N   1      21.122  17.818   6.825  0.00  0.00     0.005 N 
HETATM    9  O   UNK N   1      20.759  18.900   7.478  0.00  0.00    -0.511 OA
HETATM   10  O   UNK N   1      21.243  16.791   7.421  0.00  0.00    -0.511 OA
ENDBRANCH   7   8
ENDBRANCH   6   7
ENDBRANCH   1   6
BRANCH   1  11
HETATM   11  C   UNK N   1      20.909  17.152   3.096  0.00  0.00     0.245 C 
BRANCH  11  12
HETATM   12  O   UNK N   1      20.067  17.131   2.007  0.00  0.00    -0.219 OA
BRANCH  12  13
HETATM   13  N   UNK N   1      20.462  16.691   0.826  0.00  0.00     0.005 N 
HETATM   14  O   UNK N   1      20.346  17.446  -0.247  0.00  0.00    -0.511 OA
HETATM   15  O   UNK N   1      20.979  15.620   0.739  0.00  0.00    -0.511 OA
ENDBRANCH  12  13
ENDBRANCH  11  12
ENDBRANCH   1  11
TORSDOF 8
ENDMDL
MODEL 5
REMARK VINA RESULT:      -4.9     13.731     15.863
REMARK  8 active torsions:
REMARK  status: ('A' for Active; 'I' for Inactive)
REMARK    1  A    between atoms: O_1  and  N_10 
REMARK    2  A    between atoms: O_1  and  C_13 
REMARK    3  A    between atoms: O_2  and  N_11 
REMARK    4  A    between atoms: O_2  and  C_14 
REMARK    5  A    between atoms: O_3  and  N_12 
REMARK    6  A    between atoms: O_3  and  C_15 
REMARK    7  A    between atoms: C_13  and  C_14 
REMARK    8  A    between atoms: C_13  and  C_15 
ROOT
HETATM    1  C   UNK N   1      34.976  16.266   9.500  0.00  0.00     0.211 C 
ENDROOT
BRANCH   1   2
HETATM    2  O   UNK N   1      34.420  17.515   9.275  0.00  0.00    -0.211 OA
BRANCH   2   3
HETATM    3  N   UNK N   1      34.824  18.356   8.335  0.00  0.00     0.005 N 
HETATM    4  O   UNK N   1      34.498  18.121   7.082  0.00  0.00    -0.511 OA
HETATM    5  O   UNK N   1      35.395  19.365   8.614  0.00  0.00    -0.511 OA
ENDBRANCH   2   3
ENDBRANCH   1   2
BRANCH   1   6
HETATM    6  C   UNK N   1      35.117  16.111  11.004  0.00  0.00     0.245 C 
BRANCH   6   7
HETATM    7  O   UNK N   1      34.834  14.830  11.415  0.00  0.00    -0.219 OA
BRANCH   7   8
HETATM    8  N   UNK N   1      35.335  14.365  12.540  0.00  0.00     0.005 N 
HETATM    9  O   UNK N   1      36.254  15.060  13.174  0.00  0.00    -0.511 OA
HETATM   10  O   UNK N   1      34.767  13.489  13.116  0.00  0.00    -0.511 OA
ENDBRANCH   7   8
ENDBRANCH   6   7
ENDBRANCH   1   6
BRANCH   1  11
HETATM   11  C   UNK N   1      34.050  15.155   9.005  0.00  0.00     0.245 C 
BRANCH  11  12
HETATM   12  O   UNK N   1      32.743  15.578   8.925  0.00  0.00    -0.219 OA
BRANCH  12  13
HETATM   13  N   UNK N   1      32.026  15.434   7.824  0.00  0.00     0.005 N 
HETATM   14  O   UNK N   1      31.549  16.485   7.189  0.00  0.00    -0.511 OA
HETATM   15  O   UNK N   1      31.856  14.344   7.371  0.00  0.00    -0.511 OA
ENDBRANCH  12  13
ENDBRANCH  11  12
ENDBRANCH   1  11
TORSDOF 8
ENDMDL
MODEL 6
REMARK VINA RESULT:      -4.8     10.170     11.966
REMARK  8 active torsions:
REMARK  status: ('A' for Active; 'I' for Inactive)
REMARK    1  A    between atoms: O_1  and  N_10 
REMARK    2  A    between atoms: O_1  and  C_13 
REMARK    3  A    between atoms: O_2  and  N_11 
REMARK    4  A    between atoms: O_2  and  C_14 
REMARK    5  A    between atoms: O_3  and  N_12 
REMARK    6  A    between atoms: O_3  and  C_15 
REMARK    7  A    between atoms: C_13  and  C_14 
REMARK    8  A    between atoms: C_13  and  C_15 
ROOT
HETATM    1  C   UNK N   1      30.961  17.550   8.006  0.00  0.00     0.211 C 
ENDROOT
BRANCH   1   2
HETATM    2  O   UNK N   1      30.180  17.105   9.060  0.00  0.00    -0.211 OA
BRANCH   2   3
HETATM    3  N   UNK N   1      29.264  17.839   9.675  0.00  0.00     0.005 N 
HETATM    4  O   UNK N   1      28.016  17.421   9.695  0.00  0.00    -0.511 OA
HETATM    5  O   UNK N   1      29.565  18.818  10.284  0.00  0.00    -0.511 OA
ENDBRANCH   2   3
ENDBRANCH   1   2
BRANCH   1   6
HETATM    6  C   UNK N   1      32.401  17.219   8.355  0.00  0.00     0.245 C 
BRANCH   6   7
HETATM    7  O   UNK N   1      33.168  18.351   8.492  0.00  0.00    -0.219 OA
BRANCH   7   8
HETATM    8  N   UNK N   1      34.370  18.411   7.959  0.00  0.00     0.005 N 
HETATM    9  O   UNK N   1      34.557  17.964   6.737  0.00  0.00    -0.511 OA
HETATM   10  O   UNK N   1      35.196  19.115   8.455  0.00  0.00    -0.511 OA
ENDBRANCH   7   8
ENDBRANCH   6   7
ENDBRANCH   1   6
BRANCH   1  11
HETATM   11  C   UNK N   1      30.616  16.806   6.714  0.00  0.00     0.245 C 
BRANCH  11  12
HETATM   12  O   UNK N   1      29.785  17.547   5.905  0.00  0.00    -0.219 OA
BRANCH  12  13
HETATM   13  N   UNK N   1      28.515  17.753   6.206  0.00  0.00     0.005 N 
HETATM   14  O   UNK N   1      27.705  16.740   6.437  0.00  0.00    -0.511 OA
HETATM   15  O   UNK N   1      28.111  18.869   6.323  0.00  0.00    -0.511 OA
ENDBRANCH  12  13
ENDBRANCH  11  12
ENDBRANCH   1  11
TORSDOF 8
ENDMDL
MODEL 7
REMARK VINA RESULT:      -4.8     14.145     16.194
REMARK  8 active torsions:
REMARK  status: ('A' for Active; 'I' for Inactive)
REMARK    1  A    between atoms: O_1  and  N_10 
REMARK    2  A    between atoms: O_1  and  C_13 
REMARK    3  A    between atoms: O_2  and  N_11 
REMARK    4  A    between atoms: O_2  and  C_14 
REMARK    5  A    between atoms: O_3  and  N_12 
REMARK    6  A    between atoms: O_3  and  C_15 
REMARK    7  A    between atoms: C_13  and  C_14 
REMARK    8  A    between atoms: C_13  and  C_15 
ROOT
HETATM    1  C   UNK N   1      34.376  15.339  10.058  0.00  0.00     0.211 C 
ENDROOT
BRANCH   1   2
HETATM    2  O   UNK N   1      33.950  14.907   8.813  0.00  0.00    -0.211 OA
BRANCH   2   3
HETATM    3  N   UNK N   1      32.719  14.502   8.541  0.00  0.00     0.005 N 
HETATM    4  O   UNK N   1      31.871  15.347   7.997  0.00  0.00    -0.511 OA
HETATM    5  O   UNK N   1      32.395  13.365   8.697  0.00  0.00    -0.511 OA
ENDBRANCH   2   3
ENDBRANCH   1   2
BRANCH   1   6
HETATM    6  C   UNK N   1      35.493  14.404  10.490  0.00  0.00     0.245 C 
BRANCH   6   7
HETATM    7  O   UNK N   1      36.156  14.877  11.597  0.00  0.00    -0.219 OA
BRANCH   7   8
HETATM    8  N   UNK N   1      35.762  14.536  12.806  0.00  0.00     0.005 N 
HETATM    9  O   UNK N   1      34.853  13.597  12.948  0.00  0.00    -0.511 OA
HETATM   10  O   UNK N   1      36.419  14.859  13.748  0.00  0.00    -0.511 OA
ENDBRANCH   7   8
ENDBRANCH   6   7
ENDBRANCH   1   6
BRANCH   1  11
HETATM   11  C   UNK N   1      34.960  16.750   9.980  0.00  0.00     0.245 C 
BRANCH  11  12
HETATM   12  O   UNK N   1      34.179  17.584   9.212  0.00  0.00    -0.219 OA
BRANCH  12  13
HETATM   13  N   UNK N   1      34.695  18.365   8.280  0.00  0.00     0.005 N 
HETATM   14  O   UNK N   1      35.431  19.407   8.605  0.00  0.00    -0.511 OA
HETATM   15  O   UNK N   1      34.537  18.091   7.129  0.00  0.00    -0.511 OA
ENDBRANCH  12  13
ENDBRANCH  11  12
ENDBRANCH   1  11
TORSDOF 8
ENDMDL
MODEL 8
REMARK VINA RESULT:      -4.8      1.064      3.469
REMARK  8 active torsions:
REMARK  status: ('A' for Active; 'I' for Inactive)
REMARK    1  A    between atoms: O_1  and  N_10 
REMARK    2  A    between atoms: O_1  and  C_13 
REMARK    3  A    between atoms: O_2  and  N_11 
REMARK    4  A    between atoms: O_2  and  C_14 
REMARK    5  A    between atoms: O_3  and  N_12 
REMARK    6  A    between atoms: O_3  and  C_15 
REMARK    7  A    between atoms: C_13  and  C_14 
REMARK    8  A    between atoms: C_13  and  C_15 
ROOT
HETATM    1  C   UNK N   1      20.395  19.097   3.086  0.00  0.00     0.211 C 
ENDROOT
BRANCH   1   2
HETATM    2  O   UNK N   1      20.897  19.313   1.814  0.00  0.00    -0.211 OA
BRANCH   2   3
HETATM    3  N   UNK N   1      21.073  20.508   1.271  0.00  0.00     0.005 N 
HETATM    4  O   UNK N   1      21.064  20.625  -0.040  0.00  0.00    -0.511 OA
HETATM    5  O   UNK N   1      21.148  21.488   1.947  0.00  0.00    -0.511 OA
ENDBRANCH   2   3
ENDBRANCH   1   2
BRANCH   1   6
HETATM    6  C   UNK N   1      19.628  17.787   3.041  0.00  0.00     0.245 C 
BRANCH   6   7
HETATM    7  O   UNK N   1      20.436  16.733   2.686  0.00  0.00    -0.219 OA
BRANCH   7   8
HETATM    8  N   UNK N   1      20.118  15.963   1.667  0.00  0.00     0.005 N 
HETATM    9  O   UNK N   1      20.608  16.233   0.477  0.00  0.00    -0.511 OA
HETATM   10  O   UNK N   1      19.640  14.889   1.871  0.00  0.00    -0.511 OA
ENDBRANCH   7   8
ENDBRANCH   6   7
ENDBRANCH   1   6
BRANCH   1  11
HETATM   11  C   UNK N   1      21.526  18.935   4.104  0.00  0.00     0.245 C 
BRANCH  11  12
HETATM   12  O   UNK N   1      21.130  19.303   5.369  0.00  0.00    -0.219 OA
BRANCH  12  13
HETATM   13  N   UNK N   1      21.214  18.478   6.397  0.00  0.00     0.005 N 
HETATM   14  O   UNK N   1      20.736  18.819   7.576  0.00  0.00    -0.511 OA
HETATM   15  O   UNK N   1      21.680  17.390   6.242  0.00  0.00    -0.511 OA
ENDBRANCH  12  13
ENDBRANCH  11  12
ENDBRANCH   1  11
TORSDOF 8
ENDMDL
MODEL 9
REMARK VINA RESULT:      -4.7     14.987     17.091
REMARK  8 active torsions:
REMARK  status: ('A' for Active; 'I' for Inactive)
REMARK    1  A    between atoms: O_1  and  N_10 
REMARK    2  A    between atoms: O_1  and  C_13 
REMARK    3  A    between atoms: O_2  and  N_11 
REMARK    4  A    between atoms: O_2  and  C_14 
REMARK    5  A    between atoms: O_3  and  N_12 
REMARK    6  A    between atoms: O_3  and  C_15 
REMARK    7  A    between atoms: C_13  and  C_14 
REMARK    8  A    between atoms: C_13  and  C_15 
ROOT
HETATM    1  C   UNK N   1      35.276  15.505   9.568  0.00  0.00     0.211 C 
ENDROOT
BRANCH   1   2
HETATM    2  O   UNK N   1      36.531  15.065   9.955  0.00  0.00    -0.211 OA
BRANCH   2   3
HETATM    3  N   UNK N   1      37.175  14.052   9.395  0.00  0.00     0.005 N 
HETATM    4  O   UNK N   1      37.836  13.211  10.161  0.00  0.00    -0.511 OA
HETATM    5  O   UNK N   1      37.092  13.839   8.225  0.00  0.00    -0.511 OA
ENDBRANCH   2   3
ENDBRANCH   1   2
BRANCH   1   6
HETATM    6  C   UNK N   1      34.266  14.563  10.199  0.00  0.00     0.245 C 
BRANCH   6   7
HETATM    7  O   UNK N   1      34.329  14.590  11.572  0.00  0.00    -0.219 OA
BRANCH   7   8
HETATM    8  N   UNK N   1      34.814  13.563  12.237  0.00  0.00     0.005 N 
HETATM    9  O   UNK N   1      34.901  13.625  13.547  0.00  0.00    -0.511 OA
HETATM   10  O   UNK N   1      34.898  12.503  11.696  0.00  0.00    -0.511 OA
ENDBRANCH   7   8
ENDBRANCH   6   7
ENDBRANCH   1   6
BRANCH   1  11
HETATM   11  C   UNK N   1      34.996  16.910  10.103  0.00  0.00     0.245 C 
BRANCH  11  12
HETATM   12  O   UNK N   1      34.214  17.640   9.238  0.00  0.00    -0.219 OA
BRANCH  12  13
HETATM   13  N   UNK N   1      34.737  18.392   8.286  0.00  0.00     0.005 N 
HETATM   14  O   UNK N   1      34.519  18.120   7.016  0.00  0.00    -0.511 OA
HETATM   15  O   UNK N   1      35.370  19.360   8.581  0.00  0.00    -0.511 OA
ENDBRANCH  12  13
ENDBRANCH  11  12
ENDBRANCH   1  11
TORSDOF 8
ENDMDL
