MODEL 1
REMARK VINA RESULT:      -8.4      0.000      0.000
REMARK  4 active torsions:
REMARK  status: ('A' for Active; 'I' for Inactive)
REMARK    1  A    between atoms: N_4  and  C_15 
REMARK    2  A    between atoms: C_10  and  C_16 
REMARK    3  A    between atoms: C_15  and  C_17 
REMARK    4  A    between atoms: C_17  and  C_18 
ROOT
HETATM    1  N   UNK N   1      35.234  15.222   9.000  0.00  0.00     0.088 N 
HETATM    2  C   UNK N   1      35.727  14.004  11.559  0.00  0.00     0.042 C 
HETATM    3  C   UNK N   1      34.524  14.898  11.308  0.00  0.00     0.041 C 
HETATM    4  C   UNK N   1      36.887  14.465  10.681  0.00  0.00     0.041 C 
HETATM    5  C   UNK N   1      34.144  14.744   9.851  0.00  0.00     0.273 C 
HETATM    6  C   UNK N   1      36.435  14.405   9.215  0.00  0.00     0.273 C 
ENDROOT
BRANCH   1   7
HETATM    7  C   UNK N   1      34.814  15.027   7.620  0.00  0.00     0.277 C 
BRANCH   7   8
HETATM    8  C   UNK N   1      34.477  16.372   6.985  0.00  0.00     0.076 C 
BRANCH   8   9
HETATM    9  C   UNK N   1      32.998  16.619   6.958  0.00  0.00     0.034 A 
HETATM   10  C   UNK N   1      32.376  17.343   7.984  0.00  0.00     0.257 A 
HETATM   11  O   UNK N   1      33.047  17.797   8.899  0.00  0.00    -0.267 OA
HETATM   12  N   UNK N   1      31.012  17.541   7.965  0.00  0.00    -0.303 N 
HETATM   13  C   UNK N   1      30.402  18.313   9.063  0.00  0.00     0.133 C 
HETATM   14  C   UNK N   1      30.261  17.010   6.941  0.00  0.00     0.086 A 
HETATM   15  C   UNK N   1      28.970  18.746   8.782  0.00  0.00     0.021 C 
HETATM   16  C   UNK N   1      28.189  17.571   8.244  0.00  0.00     0.009 C 
HETATM   17  C   UNK N   1      28.766  17.162   6.899  0.00  0.00     0.077 C 
HETATM   18  N   UNK N   1      30.864  16.316   5.941  0.00  0.00    -0.349 N 
HETATM   19  C   UNK N   1      32.204  16.110   5.923  0.00  0.00     0.018 A 
ATOM     20  HN  UNK N   1      30.293  15.940   5.184  1.00  0.00     0.167 HD
HETATM   21  C   UNK N   1      32.801  15.327   4.802  0.00  0.00     0.069 C 
ENDBRANCH   8   9
ENDBRANCH   7   8
ENDBRANCH   1   7
BRANCH   2  22
HETATM   22  C   UNK N   1      36.023  13.950  13.023  0.00  0.00     0.050 A 
HETATM   23  N   UNK N   1      36.812  14.803  13.721  0.00  0.00    -0.264 N 
HETATM   24  O   UNK N   1      36.806  14.403  14.970  0.00  0.00    -0.237 OA
ATOM     25  HN  UNK N   1      37.317  15.605  13.346  1.00  0.00     0.194 HD
HETATM   26  C   UNK N   1      36.049  13.338  15.104  0.00  0.00     0.114 A 
HETATM   27  C   UNK N   1      35.532  13.010  13.891  0.00  0.00     0.025 A 
HETATM   28  C   UNK N   1      35.755  12.604  16.251  0.00  0.00     0.082 A 
HETATM   29  C   UNK N   1      34.679  11.926  13.710  0.00  0.00     0.019 A 
HETATM   30  C   UNK N   1      34.355  11.161  14.843  0.00  0.00     0.043 A 
HETATM   31  C   UNK N   1      34.889  11.497  16.110  0.00  0.00     0.119 A 
HETATM   32  F   UNK N   1      34.563  10.752  17.192  0.00  0.00    -0.206 F 
ENDBRANCH   2  22
TORSDOF 4
ENDMDL
MODEL 2
REMARK VINA RESULT:      -8.3      2.783      4.560
REMARK  4 active torsions:
REMARK  status: ('A' for Active; 'I' for Inactive)
REMARK    1  A    between atoms: N_4  and  C_15 
REMARK    2  A    between atoms: C_10  and  C_16 
REMARK    3  A    between atoms: C_15  and  C_17 
REMARK    4  A    between atoms: C_17  and  C_18 
ROOT
HETATM    1  N   UNK N   1      35.173  12.945  12.686  0.00  0.00     0.088 N 
HETATM    2  C   UNK N   1      35.682  12.693  15.507  0.00  0.00     0.042 C 
HETATM    3  C   UNK N   1      34.349  12.308  14.888  0.00  0.00     0.041 C 
HETATM    4  C   UNK N   1      36.294  13.839  14.706  0.00  0.00     0.041 C 
HETATM    5  C   UNK N   1      34.624  11.842  13.475  0.00  0.00     0.273 C 
HETATM    6  C   UNK N   1      36.459  13.376  13.252  0.00  0.00     0.273 C 
ENDROOT
BRANCH   1   7
HETATM    7  C   UNK N   1      35.434  12.427  11.352  0.00  0.00     0.277 C 
BRANCH   7   8
HETATM    8  C   UNK N   1      36.519  13.258  10.675  0.00  0.00     0.076 C 
BRANCH   8   9
HETATM    9  C   UNK N   1      35.967  14.086   9.554  0.00  0.00     0.034 A 
HETATM   10  C   UNK N   1      35.469  15.374   9.795  0.00  0.00     0.257 A 
HETATM   11  O   UNK N   1      35.506  15.836  10.925  0.00  0.00    -0.267 OA
HETATM   12  N   UNK N   1      34.938  16.117   8.762  0.00  0.00    -0.303 N 
HETATM   13  C   UNK N   1      34.431  17.468   9.063  0.00  0.00     0.133 C 
HETATM   14  C   UNK N   1      34.883  15.581   7.496  0.00  0.00     0.086 A 
HETATM   15  C   UNK N   1      34.173  18.313   7.823  0.00  0.00     0.021 C 
HETATM   16  C   UNK N   1      33.407  17.493   6.811  0.00  0.00     0.009 C 
HETATM   17  C   UNK N   1      34.273  16.335   6.347  0.00  0.00     0.077 C 
HETATM   18  N   UNK N   1      35.373  14.337   7.259  0.00  0.00    -0.349 N 
HETATM   19  C   UNK N   1      35.911  13.582   8.248  0.00  0.00     0.018 A 
ATOM     20  HN  UNK N   1      35.336  13.961   6.312  1.00  0.00     0.167 HD
HETATM   21  C   UNK N   1      36.419  12.217   7.923  0.00  0.00     0.069 C 
ENDBRANCH   8   9
ENDBRANCH   7   8
ENDBRANCH   1   7
BRANCH   2  22
HETATM   22  C   UNK N   1      35.506  12.964  16.967  0.00  0.00     0.050 A 
HETATM   23  N   UNK N   1      35.487  14.179  17.568  0.00  0.00    -0.264 N 
HETATM   24  O   UNK N   1      35.312  13.973  18.851  0.00  0.00    -0.237 OA
ATOM     25  HN  UNK N   1      35.590  15.083  17.109  1.00  0.00     0.194 HD
HETATM   26  C   UNK N   1      35.217  12.687  19.099  0.00  0.00     0.114 A 
HETATM   27  C   UNK N   1      35.337  12.004  17.930  0.00  0.00     0.025 A 
HETATM   28  C   UNK N   1      35.015  12.035  20.313  0.00  0.00     0.082 A 
HETATM   29  C   UNK N   1      35.270  10.616  17.865  0.00  0.00     0.019 A 
HETATM   30  C   UNK N   1      35.064   9.921  19.068  0.00  0.00     0.043 A 
HETATM   31  C   UNK N   1      34.937  10.625  20.288  0.00  0.00     0.119 A 
HETATM   32  F   UNK N   1      34.735   9.939  21.438  0.00  0.00    -0.206 F 
ENDBRANCH   2  22
TORSDOF 4
ENDMDL
MODEL 3
REMARK VINA RESULT:      -8.3      3.429      9.288
REMARK  4 active torsions:
REMARK  status: ('A' for Active; 'I' for Inactive)
REMARK    1  A    between atoms: N_4  and  C_15 
REMARK    2  A    between atoms: C_10  and  C_16 
REMARK    3  A    between atoms: C_15  and  C_17 
REMARK    4  A    between atoms: C_17  and  C_18 
ROOT
HETATM    1  N   UNK N   1      34.583  16.065   9.341  0.00  0.00     0.088 N 
HETATM    2  C   UNK N   1      32.499  17.077   7.636  0.00  0.00     0.042 C 
HETATM    3  C   UNK N   1      32.569  15.616   8.047  0.00  0.00     0.041 C 
HETATM    4  C   UNK N   1      33.913  17.644   7.554  0.00  0.00     0.041 C 
HETATM    5  C   UNK N   1      33.211  15.562   9.415  0.00  0.00     0.273 C 
HETATM    6  C   UNK N   1      34.580  17.474   8.927  0.00  0.00     0.273 C 
ENDROOT
BRANCH   1   7
HETATM    7  C   UNK N   1      35.133  16.006  10.687  0.00  0.00     0.277 C 
BRANCH   7   8
HETATM    8  C   UNK N   1      36.060  14.802  10.818  0.00  0.00     0.076 C 
BRANCH   8   9
HETATM    9  C   UNK N   1      35.559  13.823  11.837  0.00  0.00     0.034 A 
HETATM   10  C   UNK N   1      35.803  14.026  13.202  0.00  0.00     0.257 A 
HETATM   11  O   UNK N   1      36.411  15.021  13.568  0.00  0.00    -0.267 OA
HETATM   12  N   UNK N   1      35.363  13.107  14.131  0.00  0.00    -0.303 N 
HETATM   13  C   UNK N   1      35.639  13.364  15.555  0.00  0.00     0.133 C 
HETATM   14  C   UNK N   1      34.696  11.980  13.708  0.00  0.00     0.086 A 
HETATM   15  C   UNK N   1      34.842  12.477  16.501  0.00  0.00     0.021 C 
HETATM   16  C   UNK N   1      34.921  11.045  16.028  0.00  0.00     0.009 C 
HETATM   17  C   UNK N   1      34.235  10.927  14.677  0.00  0.00     0.077 C 
HETATM   18  N   UNK N   1      34.450  11.786  12.387  0.00  0.00    -0.349 N 
HETATM   19  C   UNK N   1      34.860  12.674  11.448  0.00  0.00     0.018 A 
ATOM     20  HN  UNK N   1      33.944  10.952  12.093  1.00  0.00     0.167 HD
HETATM   21  C   UNK N   1      34.570  12.394  10.011  0.00  0.00     0.069 C 
ENDBRANCH   8   9
ENDBRANCH   7   8
ENDBRANCH   1   7
BRANCH   2  22
HETATM   22  C   UNK N   1      31.687  17.217   6.388  0.00  0.00     0.050 A 
HETATM   23  N   UNK N   1      32.157  17.242   5.116  0.00  0.00    -0.264 N 
HETATM   24  O   UNK N   1      31.122  17.378   4.324  0.00  0.00    -0.237 OA
ATOM     25  HN  UNK N   1      33.132  17.169   4.830  1.00  0.00     0.194 HD
HETATM   26  C   UNK N   1      30.013  17.439   5.026  0.00  0.00     0.114 A 
HETATM   27  C   UNK N   1      30.324  17.343   6.346  0.00  0.00     0.025 A 
HETATM   28  C   UNK N   1      28.697  17.568   4.589  0.00  0.00     0.082 A 
HETATM   29  C   UNK N   1      29.356  17.368   7.345  0.00  0.00     0.019 A 
HETATM   30  C   UNK N   1      28.015  17.494   6.944  0.00  0.00     0.043 A 
HETATM   31  C   UNK N   1      27.685  17.593   5.573  0.00  0.00     0.119 A 
HETATM   32  F   UNK N   1      26.387  17.709   5.204  0.00  0.00    -0.206 F 
ENDBRANCH   2  22
TORSDOF 4
ENDMDL
MODEL 4
REMARK VINA RESULT:      -8.3      1.981      2.462
REMARK  4 active torsions:
REMARK  status: ('A' for Active; 'I' for Inactive)
REMARK    1  A    between atoms: N_4  and  C_15 
REMARK    2  A    between atoms: C_10  and  C_16 
REMARK    3  A    between atoms: C_15  and  C_17 
REMARK    4  A    between atoms: C_17  and  C_18 
ROOT
HETATM    1  N   UNK N   1      36.214  15.179   9.793  0.00  0.00     0.088 N 
HETATM    2  C   UNK N   1      35.713  14.005  12.371  0.00  0.00     0.042 C 
HETATM    3  C   UNK N   1      35.876  15.504  12.183  0.00  0.00     0.041 C 
HETATM    4  C   UNK N   1      36.564  13.274  11.337  0.00  0.00     0.041 C 
HETATM    5  C   UNK N   1      35.379  15.842  10.794  0.00  0.00     0.273 C 
HETATM    6  C   UNK N   1      36.112  13.721   9.939  0.00  0.00     0.273 C 
ENDROOT
BRANCH   1   7
HETATM    7  C   UNK N   1      35.671  15.526   8.488  0.00  0.00     0.277 C 
BRANCH   7   8
HETATM    8  C   UNK N   1      34.494  16.482   8.652  0.00  0.00     0.076 C 
BRANCH   8   9
HETATM    9  C   UNK N   1      33.443  16.254   7.608  0.00  0.00     0.034 A 
HETATM   10  C   UNK N   1      33.458  16.980   6.409  0.00  0.00     0.257 A 
HETATM   11  O   UNK N   1      34.349  17.791   6.202  0.00  0.00    -0.267 OA
HETATM   12  N   UNK N   1      32.472  16.784   5.466  0.00  0.00    -0.303 N 
HETATM   13  C   UNK N   1      32.531  17.566   4.219  0.00  0.00     0.133 C 
HETATM   14  C   UNK N   1      31.462  15.882   5.715  0.00  0.00     0.086 A 
HETATM   15  C   UNK N   1      31.603  17.048   3.129  0.00  0.00     0.021 C 
HETATM   16  C   UNK N   1      30.238  16.787   3.719  0.00  0.00     0.009 C 
HETATM   17  C   UNK N   1      30.340  15.665   4.738  0.00  0.00     0.077 C 
HETATM   18  N   UNK N   1      31.451  15.172   6.873  0.00  0.00    -0.349 N 
HETATM   19  C   UNK N   1      32.410  15.333   7.817  0.00  0.00     0.018 A 
ATOM     20  HN  UNK N   1      30.702  14.499   7.035  1.00  0.00     0.167 HD
HETATM   21  C   UNK N   1      32.331  14.530   9.073  0.00  0.00     0.069 C 
ENDBRANCH   8   9
ENDBRANCH   7   8
ENDBRANCH   1   7
BRANCH   2  22
HETATM   22  C   UNK N   1      35.990  13.637  13.793  0.00  0.00     0.050 A 
HETATM   23  N   UNK N   1      36.834  14.272  14.644  0.00  0.00    -0.264 N 
HETATM   24  O   UNK N   1      36.785  13.633  15.787  0.00  0.00    -0.237 OA
ATOM     25  HN  UNK N   1      37.401  15.092  14.433  1.00  0.00     0.194 HD
HETATM   26  C   UNK N   1      35.950  12.622  15.710  0.00  0.00     0.114 A 
HETATM   27  C   UNK N   1      35.421  12.583  14.459  0.00  0.00     0.025 A 
HETATM   28  C   UNK N   1      35.590  11.698  16.688  0.00  0.00     0.082 A 
HETATM   29  C   UNK N   1      34.492  11.624  14.069  0.00  0.00     0.019 A 
HETATM   30  C   UNK N   1      34.101  10.675  15.028  0.00  0.00     0.043 A 
HETATM   31  C   UNK N   1      34.646  10.710  16.333  0.00  0.00     0.119 A 
HETATM   32  F   UNK N   1      34.254   9.791  17.246  0.00  0.00    -0.206 F 
ENDBRANCH   2  22
TORSDOF 4
ENDMDL
MODEL 5
REMARK VINA RESULT:      -8.2      2.940      4.808
REMARK  4 active torsions:
REMARK  status: ('A' for Active; 'I' for Inactive)
REMARK    1  A    between atoms: N_4  and  C_15 
REMARK    2  A    between atoms: C_10  and  C_16 
REMARK    3  A    between atoms: C_15  and  C_17 
REMARK    4  A    between atoms: C_17  and  C_18 
ROOT
HETATM    1  N   UNK N   1      36.596  11.299  11.312  0.00  0.00     0.088 N 
HETATM    2  C   UNK N   1      36.133  11.456  14.147  0.00  0.00     0.042 C 
HETATM    3  C   UNK N   1      37.524  11.274  13.564  0.00  0.00     0.041 C 
HETATM    4  C   UNK N   1      35.113  10.789  13.229  0.00  0.00     0.041 C 
HETATM    5  C   UNK N   1      37.541  11.957  12.214  0.00  0.00     0.273 C 
HETATM    6  C   UNK N   1      35.230  11.425  11.836  0.00  0.00     0.273 C 
ENDROOT
BRANCH   1   7
HETATM    7  C   UNK N   1      36.646  12.014  10.046  0.00  0.00     0.277 C 
BRANCH   7   8
HETATM    8  C   UNK N   1      37.161  13.432  10.271  0.00  0.00     0.076 C 
BRANCH   8   9
HETATM    9  C   UNK N   1      36.162  14.462   9.835  0.00  0.00     0.034 A 
HETATM   10  C   UNK N   1      35.903  14.675   8.474  0.00  0.00     0.257 A 
HETATM   11  O   UNK N   1      36.481  14.002   7.634  0.00  0.00    -0.267 OA
HETATM   12  N   UNK N   1      35.003  15.644   8.083  0.00  0.00    -0.303 N 
HETATM   13  C   UNK N   1      34.760  15.830   6.641  0.00  0.00     0.133 C 
HETATM   14  C   UNK N   1      34.370  16.410   9.035  0.00  0.00     0.086 A 
HETATM   15  C   UNK N   1      33.533  16.676   6.334  0.00  0.00     0.021 C 
HETATM   16  C   UNK N   1      33.550  17.914   7.200  0.00  0.00     0.009 C 
HETATM   17  C   UNK N   1      33.414  17.506   8.657  0.00  0.00     0.077 C 
HETATM   18  N   UNK N   1      34.613  16.197  10.354  0.00  0.00    -0.349 N 
HETATM   19  C   UNK N   1      35.485  15.248  10.775  0.00  0.00     0.018 A 
ATOM     20  HN  UNK N   1      34.126  16.766  11.046  1.00  0.00     0.167 HD
HETATM   21  C   UNK N   1      35.716  15.076  12.240  0.00  0.00     0.069 C 
ENDBRANCH   8   9
ENDBRANCH   7   8
ENDBRANCH   1   7
BRANCH   2  22
HETATM   22  C   UNK N   1      36.110  10.987  15.566  0.00  0.00     0.050 A 
HETATM   23  N   UNK N   1      36.447   9.753  16.016  0.00  0.00    -0.264 N 
HETATM   24  O   UNK N   1      36.287   9.758  17.317  0.00  0.00    -0.237 OA
ATOM     25  HN  UNK N   1      36.765   8.968  15.448  1.00  0.00     0.194 HD
HETATM   26  C   UNK N   1      35.866  10.935  17.721  0.00  0.00     0.114 A 
HETATM   27  C   UNK N   1      35.737  11.750  16.642  0.00  0.00     0.025 A 
HETATM   28  C   UNK N   1      35.585  11.376  19.012  0.00  0.00     0.082 A 
HETATM   29  C   UNK N   1      35.314  13.071  16.748  0.00  0.00     0.019 A 
HETATM   30  C   UNK N   1      35.022  13.555  18.035  0.00  0.00     0.043 A 
HETATM   31  C   UNK N   1      35.157  12.713  19.163  0.00  0.00     0.119 A 
HETATM   32  F   UNK N   1      34.875  13.197  20.396  0.00  0.00    -0.206 F 
ENDBRANCH   2  22
TORSDOF 4
ENDMDL
MODEL 6
REMARK VINA RESULT:      -8.2      2.428      4.370
REMARK  4 active torsions:
REMARK  status: ('A' for Active; 'I' for Inactive)
REMARK    1  A    between atoms: N_4  and  C_15 
REMARK    2  A    between atoms: C_10  and  C_16 
REMARK    3  A    between atoms: C_15  and  C_17 
REMARK    4  A    between atoms: C_17  and  C_18 
ROOT
HETATM    1  N   UNK N   1      35.047  13.037  12.630  0.00  0.00     0.088 N 
HETATM    2  C   UNK N   1      35.633  12.737  15.430  0.00  0.00     0.042 C 
HETATM    3  C   UNK N   1      34.302  12.312  14.833  0.00  0.00     0.041 C 
HETATM    4  C   UNK N   1      36.179  13.926  14.645  0.00  0.00     0.041 C 
HETATM    5  C   UNK N   1      34.562  11.893  13.402  0.00  0.00     0.273 C 
HETATM    6  C   UNK N   1      36.327  13.506  13.176  0.00  0.00     0.273 C 
ENDROOT
BRANCH   1   7
HETATM    7  C   UNK N   1      35.296  12.562  11.276  0.00  0.00     0.277 C 
BRANCH   7   8
HETATM    8  C   UNK N   1      35.968  13.660  10.457  0.00  0.00     0.076 C 
BRANCH   8   9
HETATM    9  C   UNK N   1      34.964  14.593   9.850  0.00  0.00     0.034 A 
HETATM   10  C   UNK N   1      34.143  14.171   8.795  0.00  0.00     0.257 A 
HETATM   11  O   UNK N   1      34.230  13.026   8.379  0.00  0.00    -0.267 OA
HETATM   12  N   UNK N   1      33.241  15.045   8.225  0.00  0.00    -0.303 N 
HETATM   13  C   UNK N   1      32.396  14.556   7.121  0.00  0.00     0.133 C 
HETATM   14  C   UNK N   1      33.162  16.339   8.687  0.00  0.00     0.086 A 
HETATM   15  C   UNK N   1      31.231  15.479   6.790  0.00  0.00     0.021 C 
HETATM   16  C   UNK N   1      31.731  16.902   6.703  0.00  0.00     0.009 C 
HETATM   17  C   UNK N   1      32.227  17.341   8.070  0.00  0.00     0.077 C 
HETATM   18  N   UNK N   1      33.951  16.746   9.715  0.00  0.00    -0.349 N 
HETATM   19  C   UNK N   1      34.841  15.911  10.305  0.00  0.00     0.018 A 
ATOM     20  HN  UNK N   1      33.870  17.705  10.053  1.00  0.00     0.167 HD
HETATM   21  C   UNK N   1      35.687  16.427  11.422  0.00  0.00     0.069 C 
ENDBRANCH   8   9
ENDBRANCH   7   8
ENDBRANCH   1   7
BRANCH   2  22
HETATM   22  C   UNK N   1      35.482  12.964  16.900  0.00  0.00     0.050 A 
HETATM   23  N   UNK N   1      35.478  14.160  17.538  0.00  0.00    -0.264 N 
HETATM   24  O   UNK N   1      35.323  13.917  18.816  0.00  0.00    -0.237 OA
ATOM     25  HN  UNK N   1      35.579  15.077  17.104  1.00  0.00     0.194 HD
HETATM   26  C   UNK N   1      35.225  12.624  19.027  0.00  0.00     0.114 A 
HETATM   27  C   UNK N   1      35.323  11.976  17.837  0.00  0.00     0.025 A 
HETATM   28  C   UNK N   1      35.039  11.936  20.224  0.00  0.00     0.082 A 
HETATM   29  C   UNK N   1      35.247  10.591  17.730  0.00  0.00     0.019 A 
HETATM   30  C   UNK N   1      35.058   9.861  18.916  0.00  0.00     0.043 A 
HETATM   31  C   UNK N   1      34.953  10.528  20.158  0.00  0.00     0.119 A 
HETATM   32  F   UNK N   1      34.766   9.809  21.290  0.00  0.00    -0.206 F 
ENDBRANCH   2  22
TORSDOF 4
ENDMDL
MODEL 7
REMARK VINA RESULT:      -8.1      6.529     12.512
REMARK  4 active torsions:
REMARK  status: ('A' for Active; 'I' for Inactive)
REMARK    1  A    between atoms: N_4  and  C_15 
REMARK    2  A    between atoms: C_10  and  C_16 
REMARK    3  A    between atoms: C_15  and  C_17 
REMARK    4  A    between atoms: C_17  and  C_18 
ROOT
HETATM    1  N   UNK N   1      28.279  18.713   4.296  0.00  0.00     0.088 N 
HETATM    2  C   UNK N   1      25.477  19.364   4.292  0.00  0.00     0.042 C 
HETATM    3  C   UNK N   1      26.025  18.149   3.563  0.00  0.00     0.041 C 
HETATM    4  C   UNK N   1      26.531  20.467   4.293  0.00  0.00     0.041 C 
HETATM    5  C   UNK N   1      27.245  17.678   4.324  0.00  0.00     0.273 C 
HETATM    6  C   UNK N   1      27.796  19.924   4.972  0.00  0.00     0.273 C 
ENDROOT
BRANCH   1   7
HETATM    7  C   UNK N   1      29.409  18.207   5.060  0.00  0.00     0.277 C 
BRANCH   7   8
HETATM    8  C   UNK N   1      28.916  17.271   6.159  0.00  0.00     0.076 C 
BRANCH   8   9
HETATM    9  C   UNK N   1      30.046  16.754   6.998  0.00  0.00     0.034 A 
HETATM   10  C   UNK N   1      30.802  15.652   6.575  0.00  0.00     0.257 A 
HETATM   11  O   UNK N   1      30.553  15.119   5.504  0.00  0.00    -0.267 OA
HETATM   12  N   UNK N   1      31.822  15.166   7.366  0.00  0.00    -0.303 N 
HETATM   13  C   UNK N   1      32.592  14.008   6.879  0.00  0.00     0.133 C 
HETATM   14  C   UNK N   1      32.084  15.759   8.580  0.00  0.00     0.086 A 
HETATM   15  C   UNK N   1      33.879  13.761   7.655  0.00  0.00     0.021 C 
HETATM   16  C   UNK N   1      33.590  13.828   9.136  0.00  0.00     0.009 C 
HETATM   17  C   UNK N   1      33.156  15.239   9.496  0.00  0.00     0.077 C 
HETATM   18  N   UNK N   1      31.359  16.833   8.986  0.00  0.00    -0.349 N 
HETATM   19  C   UNK N   1      30.355  17.343   8.230  0.00  0.00     0.018 A 
ATOM     20  HN  UNK N   1      31.575  17.268   9.882  1.00  0.00     0.167 HD
HETATM   21  C   UNK N   1      29.588  18.516   8.741  0.00  0.00     0.069 C 
ENDBRANCH   8   9
ENDBRANCH   7   8
ENDBRANCH   1   7
BRANCH   2  22
HETATM   22  C   UNK N   1      24.154  19.752   3.712  0.00  0.00     0.050 A 
HETATM   23  N   UNK N   1      23.883  20.867   2.990  0.00  0.00    -0.264 N 
HETATM   24  O   UNK N   1      22.611  20.824   2.675  0.00  0.00    -0.237 OA
ATOM     25  HN  UNK N   1      24.544  21.601   2.740  1.00  0.00     0.194 HD
HETATM   26  C   UNK N   1      22.057  19.736   3.158  0.00  0.00     0.114 A 
HETATM   27  C   UNK N   1      23.000  19.023   3.828  0.00  0.00     0.025 A 
HETATM   28  C   UNK N   1      20.741  19.292   3.048  0.00  0.00     0.082 A 
HETATM   29  C   UNK N   1      22.719  17.810   4.449  0.00  0.00     0.019 A 
HETATM   30  C   UNK N   1      21.403  17.326   4.358  0.00  0.00     0.043 A 
HETATM   31  C   UNK N   1      20.416  18.062   3.661  0.00  0.00     0.119 A 
HETATM   32  F   UNK N   1      19.155  17.579   3.580  0.00  0.00    -0.206 F 
ENDBRANCH   2  22
TORSDOF 4
ENDMDL
MODEL 8
REMARK VINA RESULT:      -8.0      3.579      9.379
REMARK  4 active torsions:
REMARK  status: ('A' for Active; 'I' for Inactive)
REMARK    1  A    between atoms: N_4  and  C_15 
REMARK    2  A    between atoms: C_10  and  C_16 
REMARK    3  A    between atoms: C_15  and  C_17 
REMARK    4  A    between atoms: C_17  and  C_18 
ROOT
HETATM    1  N   UNK N   1      34.415  15.427   9.519  0.00  0.00     0.088 N 
HETATM    2  C   UNK N   1      31.946  16.450   8.455  0.00  0.00     0.042 C 
HETATM    3  C   UNK N   1      33.157  17.339   8.686  0.00  0.00     0.041 C 
HETATM    4  C   UNK N   1      31.940  15.330   9.491  0.00  0.00     0.041 C 
HETATM    5  C   UNK N   1      34.389  16.480   8.504  0.00  0.00     0.273 C 
HETATM    6  C   UNK N   1      33.252  14.544   9.357  0.00  0.00     0.273 C 
ENDROOT
BRANCH   1   7
HETATM    7  C   UNK N   1      35.607  14.628   9.274  0.00  0.00     0.277 C 
BRANCH   7   8
HETATM    8  C   UNK N   1      36.679  14.966  10.305  0.00  0.00     0.076 C 
BRANCH   8   9
HETATM    9  C   UNK N   1      36.826  13.882  11.330  0.00  0.00     0.034 A 
HETATM   10  C   UNK N   1      35.958  13.815  12.429  0.00  0.00     0.257 A 
HETATM   11  O   UNK N   1      35.059  14.635  12.542  0.00  0.00    -0.267 OA
HETATM   12  N   UNK N   1      36.118  12.830  13.381  0.00  0.00    -0.303 N 
HETATM   13  C   UNK N   1      35.180  12.797  14.516  0.00  0.00     0.133 C 
HETATM   14  C   UNK N   1      37.145  11.922  13.255  0.00  0.00     0.086 A 
HETATM   15  C   UNK N   1      35.237  11.503  15.317  0.00  0.00     0.021 C 
HETATM   16  C   UNK N   1      36.679  11.155  15.599  0.00  0.00     0.009 C 
HETATM   17  C   UNK N   1      37.387  10.858  14.288  0.00  0.00     0.077 C 
HETATM   18  N   UNK N   1      37.981  11.980  12.186  0.00  0.00    -0.349 N 
HETATM   19  C   UNK N   1      37.847  12.929  11.226  0.00  0.00     0.018 A 
ATOM     20  HN  UNK N   1      38.728  11.292  12.102  1.00  0.00     0.167 HD
HETATM   21  C   UNK N   1      38.808  12.945  10.085  0.00  0.00     0.069 C 
ENDBRANCH   8   9
ENDBRANCH   7   8
ENDBRANCH   1   7
BRANCH   2  22
HETATM   22  C   UNK N   1      30.704  17.282   8.415  0.00  0.00     0.050 A 
HETATM   23  N   UNK N   1      30.088  17.868   9.471  0.00  0.00    -0.264 N 
HETATM   24  O   UNK N   1      29.039  18.500   9.005  0.00  0.00    -0.237 OA
ATOM     25  HN  UNK N   1      30.385  17.823  10.445  1.00  0.00     0.194 HD
HETATM   26  C   UNK N   1      28.955  18.350   7.703  0.00  0.00     0.114 A 
HETATM   27  C   UNK N   1      29.992  17.580   7.283  0.00  0.00     0.025 A 
HETATM   28  C   UNK N   1      28.012  18.861   6.815  0.00  0.00     0.082 A 
HETATM   29  C   UNK N   1      30.183  17.248   5.945  0.00  0.00     0.019 A 
HETATM   30  C   UNK N   1      29.254  17.746   5.016  0.00  0.00     0.043 A 
HETATM   31  C   UNK N   1      28.172  18.550   5.446  0.00  0.00     0.119 A 
HETATM   32  F   UNK N   1      27.289  19.025   4.537  0.00  0.00    -0.206 F 
ENDBRANCH   2  22
TORSDOF 4
ENDMDL
MODEL 9
REMARK VINA RESULT:      -8.0      5.960      9.916
REMARK  4 active torsions:
REMARK  status: ('A' for Active; 'I' for Inactive)
REMARK    1  A    between atoms: N_4  and  C_15 
REMARK    2  A    between atoms: C_10  and  C_16 
REMARK    3  A    between atoms: C_15  and  C_17 
REMARK    4  A    between atoms: C_17  and  C_18 
ROOT
HETATM    1  N   UNK N   1      26.564  14.445   5.839  0.00  0.00     0.088 N 
HETATM    2  C   UNK N   1      23.975  13.596   6.762  0.00  0.00     0.042 C 
HETATM    3  C   UNK N   1      24.557  14.953   7.124  0.00  0.00     0.041 C 
HETATM    4  C   UNK N   1      25.111  12.590   6.600  0.00  0.00     0.041 C 
HETATM    5  C   UNK N   1      25.448  15.381   5.978  0.00  0.00     0.273 C 
HETATM    6  C   UNK N   1      26.059  13.106   5.508  0.00  0.00     0.273 C 
ENDROOT
BRANCH   1   7
HETATM    7  C   UNK N   1      27.365  14.901   4.712  0.00  0.00     0.277 C 
BRANCH   7   8
HETATM    8  C   UNK N   1      27.685  16.384   4.869  0.00  0.00     0.076 C 
BRANCH   8   9
HETATM    9  C   UNK N   1      29.127  16.608   5.215  0.00  0.00     0.034 A 
HETATM   10  C   UNK N   1      29.513  16.861   6.538  0.00  0.00     0.257 A 
HETATM   11  O   UNK N   1      28.671  16.879   7.423  0.00  0.00    -0.267 OA
HETATM   12  N   UNK N   1      30.838  17.093   6.842  0.00  0.00    -0.303 N 
HETATM   13  C   UNK N   1      31.198  17.351   8.247  0.00  0.00     0.133 C 
HETATM   14  C   UNK N   1      31.778  17.090   5.836  0.00  0.00     0.086 A 
HETATM   15  C   UNK N   1      32.694  17.269   8.519  0.00  0.00     0.021 C 
HETATM   16  C   UNK N   1      33.437  18.048   7.459  0.00  0.00     0.009 C 
HETATM   17  C   UNK N   1      33.227  17.381   6.110  0.00  0.00     0.077 C 
HETATM   18  N   UNK N   1      31.406  16.835   4.555  0.00  0.00    -0.349 N 
HETATM   19  C   UNK N   1      30.114  16.594   4.222  0.00  0.00     0.018 A 
ATOM     20  HN  UNK N   1      32.117  16.825   3.824  1.00  0.00     0.167 HD
HETATM   21  C   UNK N   1      29.771  16.335   2.793  0.00  0.00     0.069 C 
ENDBRANCH   8   9
ENDBRANCH   7   8
ENDBRANCH   1   7
BRANCH   2  22
HETATM   22  C   UNK N   1      22.926  13.212   7.756  0.00  0.00     0.050 A 
HETATM   23  N   UNK N   1      21.587  13.181   7.547  0.00  0.00    -0.264 N 
HETATM   24  O   UNK N   1      21.029  12.793   8.668  0.00  0.00    -0.237 OA
ATOM     25  HN  UNK N   1      21.104  13.417   6.681  1.00  0.00     0.194 HD
HETATM   26  C   UNK N   1      21.946  12.572   9.582  0.00  0.00     0.114 A 
HETATM   27  C   UNK N   1      23.169  12.828   9.049  0.00  0.00     0.025 A 
HETATM   28  C   UNK N   1      21.795  12.137  10.897  0.00  0.00     0.082 A 
HETATM   29  C   UNK N   1      24.348  12.677   9.773  0.00  0.00     0.019 A 
HETATM   30  C   UNK N   1      24.238  12.238  11.103  0.00  0.00     0.043 A 
HETATM   31  C   UNK N   1      22.968  11.968  11.665  0.00  0.00     0.119 A 
HETATM   32  F   UNK N   1      22.881  11.541  12.946  0.00  0.00    -0.206 F 
ENDBRANCH   2  22
TORSDOF 4
ENDMDL
