MODEL 1
REMARK VINA RESULT:      -5.3      0.000      0.000
REMARK  3 active torsions:
REMARK  status: ('A' for Active; 'I' for Inactive)
REMARK    1  A    between atoms: O_5  and  C_12 
REMARK    2  A    between atoms: O_5  and  C_16 
REMARK    3  A    between atoms: N_8  and  C_15 
ROOT
HETATM    1  S   UNK N   1      31.330  16.126   7.036  0.00  0.00    -0.052 SA
HETATM    2  N   UNK N   1      31.099  16.752   9.432  0.00  0.00    -0.336 N 
ATOM      3  HN  UNK N   1      31.238  16.826  10.440  1.00  0.00     0.168 HD
HETATM    4  C   UNK N   1      30.102  17.181   7.354  0.00  0.00     0.037 A 
HETATM    5  C   UNK N   1      30.118  17.416   8.730  0.00  0.00     0.051 A 
HETATM    6  C   UNK N   1      29.189  17.784   6.502  0.00  0.00     0.058 A 
HETATM    7  C   UNK N   1      28.233  18.653   7.057  0.00  0.00     0.079 A 
HETATM    8  C   UNK N   1      29.184  18.280   9.298  0.00  0.00     0.034 A 
HETATM    9  C   UNK N   1      28.238  18.897   8.457  0.00  0.00     0.039 A 
HETATM   10  C   UNK N   1      31.859  15.985   8.602  0.00  0.00     0.143 A 
ENDROOT
BRANCH   7  11
HETATM   11  O   UNK N   1      27.341  19.244   6.219  0.00  0.00    -0.255 OA
BRANCH  11  12
HETATM   12  C   UNK N   1      27.479  20.441   5.533  0.00  0.00     0.530 C 
HETATM   13  F   UNK N   1      27.980  21.462   6.321  0.00  0.00    -0.144 F 
HETATM   14  F   UNK N   1      28.309  20.259   4.443  0.00  0.00    -0.144 F 
HETATM   15  F   UNK N   1      26.231  20.822   5.078  0.00  0.00    -0.144 F 
ENDBRANCH  11  12
ENDBRANCH   7  11
BRANCH  10  16
HETATM   16  N   UNK N   1      32.954  15.209   9.030  0.00  0.00    -0.380 N 
HETATM   17  H   UNK N   1      32.948  14.800   9.925  0.00  0.00     0.158 HD
HETATM   18  H   UNK N   1      33.726  15.076   8.433  0.00  0.00     0.158 HD
ENDBRANCH  10  16
TORSDOF 3
ENDMDL
MODEL 2
REMARK VINA RESULT:      -5.3      9.756     10.639
REMARK  3 active torsions:
REMARK  status: ('A' for Active; 'I' for Inactive)
REMARK    1  A    between atoms: O_5  and  C_12 
REMARK    2  A    between atoms: O_5  and  C_16 
REMARK    3  A    between atoms: N_8  and  C_15 
ROOT
HETATM    1  S   UNK N   1      21.250  20.616   2.856  0.00  0.00    -0.052 SA
HETATM    2  N   UNK N   1      20.220  18.875   1.410  0.00  0.00    -0.336 N 
ATOM      3  HN  UNK N   1      19.811  18.381   0.616  1.00  0.00     0.168 HD
HETATM    4  C   UNK N   1      20.999  19.166   3.601  0.00  0.00     0.037 A 
HETATM    5  C   UNK N   1      20.419  18.321   2.654  0.00  0.00     0.051 A 
HETATM    6  C   UNK N   1      21.280  18.758   4.897  0.00  0.00     0.058 A 
HETATM    7  C   UNK N   1      20.949  17.442   5.267  0.00  0.00     0.079 A 
HETATM    8  C   UNK N   1      20.091  17.011   2.999  0.00  0.00     0.034 A 
HETATM    9  C   UNK N   1      20.356  16.574   4.311  0.00  0.00     0.039 A 
HETATM   10  C   UNK N   1      20.643  20.170   1.378  0.00  0.00     0.143 A 
ENDROOT
BRANCH   7  11
HETATM   11  O   UNK N   1      21.228  17.044   6.536  0.00  0.00    -0.255 OA
BRANCH  11  12
HETATM   12  C   UNK N   1      20.403  17.101   7.649  0.00  0.00     0.530 C 
HETATM   13  F   UNK N   1      20.149  18.395   8.069  0.00  0.00    -0.144 F 
HETATM   14  F   UNK N   1      19.205  16.469   7.372  0.00  0.00    -0.144 F 
HETATM   15  F   UNK N   1      21.027  16.428   8.681  0.00  0.00    -0.144 F 
ENDBRANCH  11  12
ENDBRANCH   7  11
BRANCH  10  16
HETATM   16  N   UNK N   1      20.590  20.989   0.234  0.00  0.00    -0.380 N 
HETATM   17  H   UNK N   1      20.738  20.599  -0.658  0.00  0.00     0.158 HD
HETATM   18  H   UNK N   1      20.405  21.951   0.325  0.00  0.00     0.158 HD
ENDBRANCH  10  16
TORSDOF 3
ENDMDL
MODEL 3
REMARK VINA RESULT:      -5.2      9.326     10.180
REMARK  3 active torsions:
REMARK  status: ('A' for Active; 'I' for Inactive)
REMARK    1  A    between atoms: O_5  and  C_12 
REMARK    2  A    between atoms: O_5  and  C_16 
REMARK    3  A    between atoms: N_8  and  C_15 
ROOT
HETATM    1  S   UNK N   1      22.609  15.984   5.815  0.00  0.00    -0.052 SA
HETATM    2  N   UNK N   1      21.003  17.569   6.861  0.00  0.00    -0.336 N 
ATOM      3  HN  UNK N   1      20.447  18.397   7.074  1.00  0.00     0.168 HD
HETATM    4  C   UNK N   1      21.783  15.371   7.105  0.00  0.00     0.037 A 
HETATM    5  C   UNK N   1      20.940  16.386   7.563  0.00  0.00     0.051 A 
HETATM    6  C   UNK N   1      21.829  14.115   7.691  0.00  0.00     0.058 A 
HETATM    7  C   UNK N   1      21.002  13.867   8.801  0.00  0.00     0.079 A 
HETATM    8  C   UNK N   1      20.107  16.157   8.656  0.00  0.00     0.034 A 
HETATM    9  C   UNK N   1      20.142  14.894   9.277  0.00  0.00     0.039 A 
HETATM   10  C   UNK N   1      21.907  17.486   5.844  0.00  0.00     0.143 A 
ENDROOT
BRANCH   7  11
HETATM   11  O   UNK N   1      21.047  12.634   9.372  0.00  0.00    -0.255 OA
BRANCH  11  12
HETATM   12  C   UNK N   1      21.818  12.220  10.448  0.00  0.00     0.530 C 
HETATM   13  F   UNK N   1      22.547  11.075  10.182  0.00  0.00    -0.144 F 
HETATM   14  F   UNK N   1      22.682  13.234  10.818  0.00  0.00    -0.144 F 
HETATM   15  F   UNK N   1      20.970  11.955  11.505  0.00  0.00    -0.144 F 
ENDBRANCH  11  12
ENDBRANCH   7  11
BRANCH  10  16
HETATM   16  N   UNK N   1      22.172  18.532   4.939  0.00  0.00    -0.380 N 
HETATM   17  H   UNK N   1      22.113  18.371   3.970  0.00  0.00     0.158 HD
HETATM   18  H   UNK N   1      22.418  19.424   5.276  0.00  0.00     0.158 HD
ENDBRANCH  10  16
TORSDOF 3
ENDMDL
MODEL 4
REMARK VINA RESULT:      -5.2     14.413     15.250
REMARK  3 active torsions:
REMARK  status: ('A' for Active; 'I' for Inactive)
REMARK    1  A    between atoms: O_5  and  C_12 
REMARK    2  A    between atoms: O_5  and  C_16 
REMARK    3  A    between atoms: N_8  and  C_15 
ROOT
HETATM    1  S   UNK N   1      27.051  23.973  -4.938  0.00  0.00    -0.052 SA
HETATM    2  N   UNK N   1      25.368  24.746  -6.597  0.00  0.00    -0.336 N 
ATOM      3  HN  UNK N   1      24.730  24.794  -7.391  1.00  0.00     0.168 HD
HETATM    4  C   UNK N   1      26.466  25.490  -4.664  0.00  0.00     0.037 A 
HETATM    5  C   UNK N   1      25.547  25.758  -5.681  0.00  0.00     0.051 A 
HETATM    6  C   UNK N   1      26.750  26.397  -3.654  0.00  0.00     0.058 A 
HETATM    7  C   UNK N   1      26.094  27.641  -3.671  0.00  0.00     0.079 A 
HETATM    8  C   UNK N   1      24.881  26.982  -5.711  0.00  0.00     0.034 A 
HETATM    9  C   UNK N   1      25.159  27.925  -4.703  0.00  0.00     0.039 A 
HETATM   10  C   UNK N   1      26.155  23.674  -6.302  0.00  0.00     0.143 A 
ENDROOT
BRANCH   7  11
HETATM   11  O   UNK N   1      26.372  28.527  -2.678  0.00  0.00    -0.255 OA
BRANCH  11  12
HETATM   12  C   UNK N   1      27.373  29.486  -2.647  0.00  0.00     0.530 C 
HETATM   13  F   UNK N   1      28.026  29.547  -1.428  0.00  0.00    -0.144 F 
HETATM   14  F   UNK N   1      28.295  29.228  -3.644  0.00  0.00    -0.144 F 
HETATM   15  F   UNK N   1      26.796  30.717  -2.888  0.00  0.00    -0.144 F 
ENDBRANCH  11  12
ENDBRANCH   7  11
BRANCH  10  16
HETATM   16  N   UNK N   1      26.171  22.480  -7.047  0.00  0.00    -0.380 N 
HETATM   17  H   UNK N   1      26.784  22.385  -7.812  0.00  0.00     0.158 HD
HETATM   18  H   UNK N   1      25.570  21.740  -6.804  0.00  0.00     0.158 HD
ENDBRANCH  10  16
TORSDOF 3
ENDMDL
MODEL 5
REMARK VINA RESULT:      -5.2      5.140      5.684
REMARK  3 active torsions:
REMARK  status: ('A' for Active; 'I' for Inactive)
REMARK    1  A    between atoms: O_5  and  C_12 
REMARK    2  A    between atoms: O_5  and  C_16 
REMARK    3  A    between atoms: N_8  and  C_15 
ROOT
HETATM    1  S   UNK N   1      35.738  14.834   9.518  0.00  0.00    -0.052 SA
HETATM    2  N   UNK N   1      34.970  17.005  10.456  0.00  0.00    -0.336 N 
ATOM      3  HN  UNK N   1      34.774  17.781  11.089  1.00  0.00     0.168 HD
HETATM    4  C   UNK N   1      34.997  15.828   8.429  0.00  0.00     0.037 A 
HETATM    5  C   UNK N   1      34.633  16.985   9.122  0.00  0.00     0.051 A 
HETATM    6  C   UNK N   1      34.745  15.655   7.077  0.00  0.00     0.058 A 
HETATM    7  C   UNK N   1      34.081  16.684   6.385  0.00  0.00     0.079 A 
HETATM    8  C   UNK N   1      33.983  18.020   8.453  0.00  0.00     0.034 A 
HETATM    9  C   UNK N   1      33.704  17.865   7.081  0.00  0.00     0.039 A 
HETATM   10  C   UNK N   1      35.600  15.853  10.819  0.00  0.00     0.143 A 
ENDROOT
BRANCH   7  11
HETATM   11  O   UNK N   1      33.838  16.513   5.059  0.00  0.00    -0.255 OA
BRANCH  11  12
HETATM   12  C   UNK N   1      32.655  16.743   4.373  0.00  0.00     0.530 C 
HETATM   13  F   UNK N   1      31.532  16.370   5.091  0.00  0.00    -0.144 F 
HETATM   14  F   UNK N   1      32.561  18.082   4.043  0.00  0.00    -0.144 F 
HETATM   15  F   UNK N   1      32.685  16.003   3.207  0.00  0.00    -0.144 F 
ENDBRANCH  11  12
ENDBRANCH   7  11
BRANCH  10  16
HETATM   16  N   UNK N   1      36.084  15.595  12.116  0.00  0.00    -0.380 N 
HETATM   17  H   UNK N   1      37.020  15.318  12.247  0.00  0.00     0.158 HD
HETATM   18  H   UNK N   1      35.486  15.690  12.893  0.00  0.00     0.158 HD
ENDBRANCH  10  16
TORSDOF 3
ENDMDL
MODEL 6
REMARK VINA RESULT:      -5.1      3.625      4.491
REMARK  3 active torsions:
REMARK  status: ('A' for Active; 'I' for Inactive)
REMARK    1  A    between atoms: O_5  and  C_12 
REMARK    2  A    between atoms: O_5  and  C_16 
REMARK    3  A    between atoms: N_8  and  C_15 
ROOT
HETATM    1  S   UNK N   1      31.454  15.628   4.371  0.00  0.00    -0.052 SA
HETATM    2  N   UNK N   1      33.625  16.764   4.794  0.00  0.00    -0.336 N 
ATOM      3  HN  UNK N   1      34.574  17.125   4.695  1.00  0.00     0.168 HD
HETATM    4  C   UNK N   1      31.559  16.383   5.834  0.00  0.00     0.037 A 
HETATM    5  C   UNK N   1      32.830  16.957   5.901  0.00  0.00     0.051 A 
HETATM    6  C   UNK N   1      30.631  16.497   6.858  0.00  0.00     0.058 A 
HETATM    7  C   UNK N   1      30.998  17.207   8.015  0.00  0.00     0.079 A 
HETATM    8  C   UNK N   1      33.210  17.672   7.035  0.00  0.00     0.034 A 
HETATM    9  C   UNK N   1      32.291  17.793   8.095  0.00  0.00     0.039 A 
HETATM   10  C   UNK N   1      32.976  16.029   3.848  0.00  0.00     0.143 A 
ENDROOT
BRANCH   7  11
HETATM   11  O   UNK N   1      30.086  17.320   9.016  0.00  0.00    -0.255 OA
BRANCH  11  12
HETATM   12  C   UNK N   1      29.262  18.398   9.302  0.00  0.00     0.530 C 
HETATM   13  F   UNK N   1      29.142  19.282   8.244  0.00  0.00    -0.144 F 
HETATM   14  F   UNK N   1      28.006  17.941   9.657  0.00  0.00    -0.144 F 
HETATM   15  F   UNK N   1      29.804  19.080  10.374  0.00  0.00    -0.144 F 
ENDBRANCH  11  12
ENDBRANCH   7  11
BRANCH  10  16
HETATM   16  N   UNK N   1      33.528  15.691   2.598  0.00  0.00    -0.380 N 
HETATM   17  H   UNK N   1      34.448  15.346   2.543  0.00  0.00     0.158 HD
HETATM   18  H   UNK N   1      32.993  15.799   1.778  0.00  0.00     0.158 HD
ENDBRANCH  10  16
TORSDOF 3
ENDMDL
MODEL 7
REMARK VINA RESULT:      -5.1     11.823     13.218
REMARK  3 active torsions:
REMARK  status: ('A' for Active; 'I' for Inactive)
REMARK    1  A    between atoms: O_5  and  C_12 
REMARK    2  A    between atoms: O_5  and  C_16 
REMARK    3  A    between atoms: N_8  and  C_15 
ROOT
HETATM    1  S   UNK N   1      35.440  10.009  18.888  0.00  0.00    -0.052 SA
HETATM    2  N   UNK N   1      35.550  12.075  20.269  0.00  0.00    -0.336 N 
ATOM      3  HN  UNK N   1      35.636  12.722  21.052  1.00  0.00     0.168 HD
HETATM    4  C   UNK N   1      35.257  11.412  18.039  0.00  0.00     0.037 A 
HETATM    5  C   UNK N   1      35.341  12.456  18.962  0.00  0.00     0.051 A 
HETATM    6  C   UNK N   1      35.065  11.626  16.682  0.00  0.00     0.058 A 
HETATM    7  C   UNK N   1      34.935  12.951  16.229  0.00  0.00     0.079 A 
HETATM    8  C   UNK N   1      35.223  13.776  18.532  0.00  0.00     0.034 A 
HETATM    9  C   UNK N   1      35.016  14.021  17.160  0.00  0.00     0.039 A 
HETATM   10  C   UNK N   1      35.626  10.719  20.376  0.00  0.00     0.143 A 
ENDROOT
BRANCH   7  11
HETATM   11  O   UNK N   1      34.749  13.158  14.898  0.00  0.00    -0.255 OA
BRANCH  11  12
HETATM   12  C   UNK N   1      35.699  13.502  13.948  0.00  0.00     0.530 C 
HETATM   13  F   UNK N   1      36.434  14.621  14.298  0.00  0.00    -0.144 F 
HETATM   14  F   UNK N   1      36.558  12.438  13.744  0.00  0.00    -0.144 F 
HETATM   15  F   UNK N   1      35.042  13.771  12.763  0.00  0.00    -0.144 F 
ENDBRANCH  11  12
ENDBRANCH   7  11
BRANCH  10  16
HETATM   16  N   UNK N   1      35.857  10.036  21.585  0.00  0.00    -0.380 N 
HETATM   17  H   UNK N   1      36.079   9.077  21.574  0.00  0.00     0.158 HD
HETATM   18  H   UNK N   1      35.797  10.517  22.442  0.00  0.00     0.158 HD
ENDBRANCH  10  16
TORSDOF 3
ENDMDL
MODEL 8
REMARK VINA RESULT:      -5.1      3.693      4.810
REMARK  3 active torsions:
REMARK  status: ('A' for Active; 'I' for Inactive)
REMARK    1  A    between atoms: O_5  and  C_12 
REMARK    2  A    between atoms: O_5  and  C_16 
REMARK    3  A    between atoms: N_8  and  C_15 
ROOT
HETATM    1  S   UNK N   1      34.218  14.899  10.474  0.00  0.00    -0.052 SA
HETATM    2  N   UNK N   1      35.461  17.052  10.419  0.00  0.00    -0.336 N 
ATOM      3  HN  UNK N   1      36.099  17.817  10.638  1.00  0.00     0.168 HD
HETATM    4  C   UNK N   1      33.805  15.897   9.227  0.00  0.00     0.037 A 
HETATM    5  C   UNK N   1      34.589  17.045   9.353  0.00  0.00     0.051 A 
HETATM    6  C   UNK N   1      32.889  15.725   8.200  0.00  0.00     0.058 A 
HETATM    7  C   UNK N   1      32.738  16.760   7.261  0.00  0.00     0.079 A 
HETATM    8  C   UNK N   1      34.460  18.079   8.428  0.00  0.00     0.034 A 
HETATM    9  C   UNK N   1      33.529  17.935   7.382  0.00  0.00     0.039 A 
HETATM   10  C   UNK N   1      35.359  15.901  11.141  0.00  0.00     0.143 A 
ENDROOT
BRANCH   7  11
HETATM   11  O   UNK N   1      31.841  16.588   6.255  0.00  0.00    -0.255 OA
BRANCH  11  12
HETATM   12  C   UNK N   1      30.525  17.022   6.200  0.00  0.00     0.530 C 
HETATM   13  F   UNK N   1      30.273  17.850   5.120  0.00  0.00    -0.144 F 
HETATM   14  F   UNK N   1      29.678  15.931   6.145  0.00  0.00    -0.144 F 
HETATM   15  F   UNK N   1      30.259  17.730   7.356  0.00  0.00    -0.144 F 
ENDBRANCH  11  12
ENDBRANCH   7  11
BRANCH  10  16
HETATM   16  N   UNK N   1      36.142  15.611  12.275  0.00  0.00    -0.380 N 
HETATM   17  H   UNK N   1      36.284  14.676  12.549  0.00  0.00     0.158 HD
HETATM   18  H   UNK N   1      36.548  16.343  12.793  0.00  0.00     0.158 HD
ENDBRANCH  10  16
TORSDOF 3
ENDMDL
MODEL 9
REMARK VINA RESULT:      -5.0      5.124      6.586
REMARK  3 active torsions:
REMARK  status: ('A' for Active; 'I' for Inactive)
REMARK    1  A    between atoms: O_5  and  C_12 
REMARK    2  A    between atoms: O_5  and  C_16 
REMARK    3  A    between atoms: N_8  and  C_15 
ROOT
HETATM    1  S   UNK N   1      35.052  13.211  12.104  0.00  0.00    -0.052 SA
HETATM    2  N   UNK N   1      36.452  15.226  12.511  0.00  0.00    -0.336 N 
ATOM      3  HN  UNK N   1      37.139  15.877  12.891  1.00  0.00     0.168 HD
HETATM    4  C   UNK N   1      34.748  14.474  11.087  0.00  0.00     0.037 A 
HETATM    5  C   UNK N   1      35.612  15.507  11.457  0.00  0.00     0.051 A 
HETATM    6  C   UNK N   1      33.850  14.589  10.037  0.00  0.00     0.058 A 
HETATM    7  C   UNK N   1      33.802  15.804   9.331  0.00  0.00     0.079 A 
HETATM    8  C   UNK N   1      35.586  16.716  10.765  0.00  0.00     0.034 A 
HETATM    9  C   UNK N   1      34.675  16.863   9.701  0.00  0.00     0.039 A 
HETATM   10  C   UNK N   1      36.246  13.962  12.977  0.00  0.00     0.143 A 
ENDROOT
BRANCH   7  11
HETATM   11  O   UNK N   1      32.923  15.914   8.300  0.00  0.00    -0.255 OA
BRANCH  11  12
HETATM   12  C   UNK N   1      31.744  16.643   8.259  0.00  0.00     0.530 C 
HETATM   13  F   UNK N   1      31.950  18.009   8.331  0.00  0.00    -0.144 F 
HETATM   14  F   UNK N   1      31.057  16.347   7.096  0.00  0.00    -0.144 F 
HETATM   15  F   UNK N   1      30.968  16.266   9.338  0.00  0.00    -0.144 F 
ENDBRANCH  11  12
ENDBRANCH   7  11
BRANCH  10  16
HETATM   16  N   UNK N   1      36.974  13.384  14.035  0.00  0.00    -0.380 N 
HETATM   17  H   UNK N   1      37.581  12.629  13.860  0.00  0.00     0.158 HD
HETATM   18  H   UNK N   1      36.876  13.735  14.950  0.00  0.00     0.158 HD
ENDBRANCH  10  16
TORSDOF 3
ENDMDL
