MODEL 1
REMARK VINA RESULT:      -6.4      0.000      0.000
REMARK  3 active torsions:
REMARK  status: ('A' for Active; 'I' for Inactive)
REMARK    1  A    between atoms: O_2  and  N_4 
REMARK    2  A    between atoms: N_4  and  C_6 
REMARK       I    between atoms: N_4  and  C_16 
REMARK       I    between atoms: N_5  and  C_16 
REMARK    3  A    between atoms: C_6  and  C_7 
ROOT
HETATM    1  C   UNK N   1      19.714  16.201   7.713  0.00  0.00     0.155 C 
HETATM    2  C   UNK N   1      19.283  16.103   6.253  0.00  0.00     0.041 C 
ENDROOT
BRANCH   1   3
HETATM    3  N   UNK N   1      19.244  17.293   8.580  0.00  0.00    -0.201 N 
HETATM    4  C   UNK N   1      18.049  17.269   9.241  0.00  0.00     0.340 C 
HETATM    5  O   UNK N   1      17.289  16.319   9.146  0.00  0.00    -0.245 OA
HETATM    6  N   UNK N   1      17.693  18.314  10.018  0.00  0.00    -0.350 N 
HETATM    7  H   UNK N   1      18.293  19.089  10.106  0.00  0.00     0.160 HD
HETATM    8  H   UNK N   1      16.832  18.301  10.496  0.00  0.00     0.160 HD
BRANCH   3   9
HETATM    9  O   UNK N   1      20.021  18.376   8.739  0.00  0.00    -0.283 OA
HETATM   10  H   UNK N   1      19.668  19.258   8.543  0.00  0.00     0.245 HD
ENDBRANCH   3   9
ENDBRANCH   1   3
BRANCH   1  11
HETATM   11  C   UNK N   1      20.643  15.155   8.281  0.00  0.00     0.009 A 
HETATM   12  S   UNK N   1      22.112  14.674   7.642  0.00  0.00    -0.092 SA
HETATM   13  C   UNK N   1      22.515  13.540   8.778  0.00  0.00     0.015 A 
HETATM   14  C   UNK N   1      21.488  13.502   9.713  0.00  0.00    -0.018 A 
HETATM   15  C   UNK N   1      23.637  12.725   8.877  0.00  0.00     0.019 A 
HETATM   16  C   UNK N   1      20.429  14.403   9.448  0.00  0.00     0.029 A 
HETATM   17  C   UNK N   1      21.550  12.631  10.798  0.00  0.00     0.013 A 
HETATM   18  C   UNK N   1      22.672  11.795  10.924  0.00  0.00     0.001 A 
HETATM   19  C   UNK N   1      23.710  11.841   9.969  0.00  0.00     0.001 A 
ENDBRANCH   1  11
TORSDOF 3
ENDMDL
MODEL 2
REMARK VINA RESULT:      -6.3     14.933     15.689
REMARK  3 active torsions:
REMARK  status: ('A' for Active; 'I' for Inactive)
REMARK    1  A    between atoms: O_2  and  N_4 
REMARK    2  A    between atoms: N_4  and  C_6 
REMARK       I    between atoms: N_4  and  C_16 
REMARK       I    between atoms: N_5  and  C_16 
REMARK    3  A    between atoms: C_6  and  C_7 
ROOT
HETATM    1  C   UNK N   1      35.514  13.611  11.484  0.00  0.00     0.155 C 
HETATM    2  C   UNK N   1      36.338  12.878  10.428  0.00  0.00     0.041 C 
ENDROOT
BRANCH   1   3
HETATM    3  N   UNK N   1      34.857  14.894  11.189  0.00  0.00    -0.201 N 
HETATM    4  C   UNK N   1      35.539  16.033  10.868  0.00  0.00     0.340 C 
HETATM    5  O   UNK N   1      36.757  16.048  10.808  0.00  0.00    -0.245 OA
HETATM    6  N   UNK N   1      34.858  17.170  10.612  0.00  0.00    -0.350 N 
HETATM    7  H   UNK N   1      33.875  17.176  10.656  0.00  0.00     0.160 HD
HETATM    8  H   UNK N   1      35.345  17.994  10.380  0.00  0.00     0.160 HD
BRANCH   3   9
HETATM    9  O   UNK N   1      33.517  14.963  11.234  0.00  0.00    -0.283 OA
HETATM   10  H   UNK N   1      33.076  15.309  12.026  0.00  0.00     0.245 HD
ENDBRANCH   3   9
ENDBRANCH   1   3
BRANCH   1  11
HETATM   11  C   UNK N   1      35.370  13.005  12.859  0.00  0.00     0.009 A 
HETATM   12  S   UNK N   1      34.903  11.439  13.216  0.00  0.00    -0.092 SA
HETATM   13  C   UNK N   1      34.980  11.529  14.866  0.00  0.00     0.015 A 
HETATM   14  C   UNK N   1      35.383  12.818  15.196  0.00  0.00    -0.018 A 
HETATM   15  C   UNK N   1      34.714  10.565  15.833  0.00  0.00     0.019 A 
HETATM   16  C   UNK N   1      35.606  13.659  14.080  0.00  0.00     0.029 A 
HETATM   17  C   UNK N   1      35.536  13.191  16.529  0.00  0.00     0.013 A 
HETATM   18  C   UNK N   1      35.275  12.238  17.528  0.00  0.00     0.001 A 
HETATM   19  C   UNK N   1      34.867  10.933  17.182  0.00  0.00     0.001 A 
ENDBRANCH   1  11
TORSDOF 3
ENDMDL
MODEL 3
REMARK VINA RESULT:      -6.2     14.808     15.549
REMARK  3 active torsions:
REMARK  status: ('A' for Active; 'I' for Inactive)
REMARK    1  A    between atoms: O_2  and  N_4 
REMARK    2  A    between atoms: N_4  and  C_6 
REMARK       I    between atoms: N_4  and  C_16 
REMARK       I    between atoms: N_5  and  C_16 
REMARK    3  A    between atoms: C_6  and  C_7 
ROOT
HETATM    1  C   UNK N   1      35.330  13.595  11.325  0.00  0.00     0.155 C 
HETATM    2  C   UNK N   1      35.972  12.794  10.196  0.00  0.00     0.041 C 
ENDROOT
BRANCH   1   3
HETATM    3  N   UNK N   1      34.752  14.927  11.087  0.00  0.00    -0.201 N 
HETATM    4  C   UNK N   1      35.503  16.037  10.819  0.00  0.00     0.340 C 
HETATM    5  O   UNK N   1      36.721  15.981  10.760  0.00  0.00    -0.245 OA
HETATM    6  N   UNK N   1      34.893  17.223  10.613  0.00  0.00    -0.350 N 
HETATM    7  H   UNK N   1      33.913  17.286  10.657  0.00  0.00     0.160 HD
HETATM    8  H   UNK N   1      35.431  18.025  10.419  0.00  0.00     0.160 HD
BRANCH   3   9
HETATM    9  O   UNK N   1      33.420  15.075  11.134  0.00  0.00    -0.283 OA
HETATM   10  H   UNK N   1      32.862  14.348  11.454  0.00  0.00     0.245 HD
ENDBRANCH   3   9
ENDBRANCH   1   3
BRANCH   1  11
HETATM   11  C   UNK N   1      35.286  13.008  12.715  0.00  0.00     0.009 A 
HETATM   12  S   UNK N   1      35.874  13.712  14.114  0.00  0.00    -0.092 SA
HETATM   13  C   UNK N   1      35.475  12.511  15.180  0.00  0.00     0.015 A 
HETATM   14  C   UNK N   1      34.855  11.498  14.457  0.00  0.00    -0.018 A 
HETATM   15  C   UNK N   1      35.673  12.425  16.554  0.00  0.00     0.019 A 
HETATM   16  C   UNK N   1      34.742  11.762  13.071  0.00  0.00     0.029 A 
HETATM   17  C   UNK N   1      34.405  10.346  15.095  0.00  0.00     0.013 A 
HETATM   18  C   UNK N   1      34.592  10.231  16.483  0.00  0.00     0.001 A 
HETATM   19  C   UNK N   1      35.222  11.265  17.208  0.00  0.00     0.001 A 
ENDBRANCH   1  11
TORSDOF 3
ENDMDL
MODEL 4
REMARK VINA RESULT:      -6.1     15.146     16.902
REMARK  3 active torsions:
REMARK  status: ('A' for Active; 'I' for Inactive)
REMARK    1  A    between atoms: O_2  and  N_4 
REMARK    2  A    between atoms: N_4  and  C_6 
REMARK       I    between atoms: N_4  and  C_16 
REMARK       I    between atoms: N_5  and  C_16 
REMARK    3  A    between atoms: C_6  and  C_7 
ROOT
HETATM    1  C   UNK N   1      34.796  11.634  13.608  0.00  0.00     0.155 C 
HETATM    2  C   UNK N   1      34.050  10.481  12.942  0.00  0.00     0.041 C 
ENDROOT
BRANCH   1   3
HETATM    3  N   UNK N   1      35.365  12.737  12.818  0.00  0.00    -0.201 N 
HETATM    4  C   UNK N   1      36.692  12.833  12.504  0.00  0.00     0.340 C 
HETATM    5  O   UNK N   1      37.494  11.989  12.870  0.00  0.00    -0.245 OA
HETATM    6  N   UNK N   1      37.132  13.879  11.773  0.00  0.00    -0.350 N 
HETATM    7  H   UNK N   1      36.499  14.568  11.469  0.00  0.00     0.160 HD
HETATM    8  H   UNK N   1      38.087  13.952  11.544  0.00  0.00     0.160 HD
BRANCH   3   9
HETATM    9  O   UNK N   1      34.550  13.707  12.376  0.00  0.00    -0.283 OA
HETATM   10  H   UNK N   1      34.913  14.577  12.145  0.00  0.00     0.245 HD
ENDBRANCH   3   9
ENDBRANCH   1   3
BRANCH   1  11
HETATM   11  C   UNK N   1      34.954  11.643  15.109  0.00  0.00     0.009 A 
HETATM   12  S   UNK N   1      35.195  10.313  16.094  0.00  0.00    -0.092 SA
HETATM   13  C   UNK N   1      35.268  11.095  17.551  0.00  0.00     0.015 A 
HETATM   14  C   UNK N   1      35.102  12.453  17.305  0.00  0.00    -0.018 A 
HETATM   15  C   UNK N   1      35.455  10.592  18.833  0.00  0.00     0.019 A 
HETATM   16  C   UNK N   1      34.924  12.777  15.939  0.00  0.00     0.029 A 
HETATM   17  C   UNK N   1      35.117  13.369  18.353  0.00  0.00     0.013 A 
HETATM   18  C   UNK N   1      35.305  12.889  19.661  0.00  0.00     0.001 A 
HETATM   19  C   UNK N   1      35.473  11.509  19.900  0.00  0.00     0.001 A 
ENDBRANCH   1  11
TORSDOF 3
ENDMDL
MODEL 5
REMARK VINA RESULT:      -5.8     10.880     12.435
REMARK  3 active torsions:
REMARK  status: ('A' for Active; 'I' for Inactive)
REMARK    1  A    between atoms: O_2  and  N_4 
REMARK    2  A    between atoms: N_4  and  C_6 
REMARK       I    between atoms: N_4  and  C_16 
REMARK       I    between atoms: N_5  and  C_16 
REMARK    3  A    between atoms: C_6  and  C_7 
ROOT
HETATM    1  C   UNK N   1      32.777  15.166   8.588  0.00  0.00     0.155 C 
HETATM    2  C   UNK N   1      33.131  13.865   7.874  0.00  0.00     0.041 C 
ENDROOT
BRANCH   1   3
HETATM    3  N   UNK N   1      33.513  15.611   9.782  0.00  0.00    -0.201 N 
HETATM    4  C   UNK N   1      34.495  16.561   9.752  0.00  0.00     0.340 C 
HETATM    5  O   UNK N   1      34.821  17.104   8.709  0.00  0.00    -0.245 OA
HETATM    6  N   UNK N   1      35.121  16.911  10.895  0.00  0.00    -0.350 N 
HETATM    7  H   UNK N   1      34.871  16.483  11.744  0.00  0.00     0.160 HD
HETATM    8  H   UNK N   1      35.829  17.596  10.878  0.00  0.00     0.160 HD
BRANCH   3   9
HETATM    9  O   UNK N   1      33.215  15.063  10.970  0.00  0.00    -0.283 OA
HETATM   10  H   UNK N   1      33.897  14.586  11.468  0.00  0.00     0.245 HD
ENDBRANCH   3   9
ENDBRANCH   1   3
BRANCH   1  11
HETATM   11  C   UNK N   1      31.648  16.016   8.057  0.00  0.00     0.009 A 
HETATM   12  S   UNK N   1      31.011  15.975   6.511  0.00  0.00    -0.092 SA
HETATM   13  C   UNK N   1      29.855  17.146   6.690  0.00  0.00     0.015 A 
HETATM   14  C   UNK N   1      29.934  17.615   7.996  0.00  0.00    -0.018 A 
HETATM   15  C   UNK N   1      28.929  17.642   5.779  0.00  0.00     0.019 A 
HETATM   16  C   UNK N   1      30.936  16.991   8.776  0.00  0.00     0.029 A 
HETATM   17  C   UNK N   1      29.075  18.616   8.441  0.00  0.00     0.013 A 
HETATM   18  C   UNK N   1      28.129  19.138   7.543  0.00  0.00     0.001 A 
HETATM   19  C   UNK N   1      28.057  18.654   6.219  0.00  0.00     0.001 A 
ENDBRANCH   1  11
TORSDOF 3
ENDMDL
MODEL 6
REMARK VINA RESULT:      -5.6      1.883      2.494
REMARK  3 active torsions:
REMARK  status: ('A' for Active; 'I' for Inactive)
REMARK    1  A    between atoms: O_2  and  N_4 
REMARK    2  A    between atoms: N_4  and  C_6 
REMARK       I    between atoms: N_4  and  C_16 
REMARK       I    between atoms: N_5  and  C_16 
REMARK    3  A    between atoms: C_6  and  C_7 
ROOT
HETATM    1  C   UNK N   1      19.801  16.231   7.632  0.00  0.00     0.155 C 
HETATM    2  C   UNK N   1      18.841  16.969   8.562  0.00  0.00     0.041 C 
ENDROOT
BRANCH   1   3
HETATM    3  N   UNK N   1      19.884  16.556   6.200  0.00  0.00    -0.201 N 
HETATM    4  C   UNK N   1      19.061  16.012   5.255  0.00  0.00     0.340 C 
HETATM    5  O   UNK N   1      18.193  15.209   5.556  0.00  0.00    -0.245 OA
HETATM    6  N   UNK N   1      19.204  16.365   3.960  0.00  0.00    -0.350 N 
HETATM    7  H   UNK N   1      19.899  17.011   3.701  0.00  0.00     0.160 HD
HETATM    8  H   UNK N   1      18.613  15.975   3.276  0.00  0.00     0.160 HD
BRANCH   3   9
HETATM    9  O   UNK N   1      20.813  17.431   5.786  0.00  0.00    -0.283 OA
HETATM   10  H   UNK N   1      21.700  17.120   5.548  0.00  0.00     0.245 HD
ENDBRANCH   3   9
ENDBRANCH   1   3
BRANCH   1  11
HETATM   11  C   UNK N   1      20.684  15.143   8.196  0.00  0.00     0.009 A 
HETATM   12  S   UNK N   1      22.095  14.553   7.518  0.00  0.00    -0.092 SA
HETATM   13  C   UNK N   1      22.470  13.427   8.672  0.00  0.00     0.015 A 
HETATM   14  C   UNK N   1      21.479  13.480   9.645  0.00  0.00    -0.018 A 
HETATM   15  C   UNK N   1      23.542  12.546   8.753  0.00  0.00     0.019 A 
HETATM   16  C   UNK N   1      20.469  14.439   9.393  0.00  0.00     0.029 A 
HETATM   17  C   UNK N   1      21.529  12.638  10.752  0.00  0.00     0.013 A 
HETATM   18  C   UNK N   1      22.601  11.736  10.861  0.00  0.00     0.001 A 
HETATM   19  C   UNK N   1      23.602  11.690   9.868  0.00  0.00     0.001 A 
ENDBRANCH   1  11
TORSDOF 3
ENDMDL
MODEL 7
REMARK VINA RESULT:      -5.6     17.194     18.612
REMARK  3 active torsions:
REMARK  status: ('A' for Active; 'I' for Inactive)
REMARK    1  A    between atoms: O_2  and  N_4 
REMARK    2  A    between atoms: N_4  and  C_6 
REMARK       I    between atoms: N_4  and  C_16 
REMARK       I    between atoms: N_5  and  C_16 
REMARK    3  A    between atoms: C_6  and  C_7 
ROOT
HETATM    1  C   UNK N   1      26.259  26.813  -4.784  0.00  0.00     0.155 C 
HETATM    2  C   UNK N   1      25.373  26.379  -5.948  0.00  0.00     0.041 C 
ENDROOT
BRANCH   1   3
HETATM    3  N   UNK N   1      26.002  28.060  -4.047  0.00  0.00    -0.201 N 
HETATM    4  C   UNK N   1      26.488  29.277  -4.434  0.00  0.00     0.340 C 
HETATM    5  O   UNK N   1      27.177  29.397  -5.433  0.00  0.00    -0.245 OA
HETATM    6  N   UNK N   1      26.205  30.374  -3.699  0.00  0.00    -0.350 N 
HETATM    7  H   UNK N   1      25.651  30.295  -2.891  0.00  0.00     0.160 HD
HETATM    8  H   UNK N   1      26.553  31.253  -3.974  0.00  0.00     0.160 HD
BRANCH   3   9
HETATM    9  O   UNK N   1      25.252  28.014  -2.935  0.00  0.00    -0.283 OA
HETATM   10  H   UNK N   1      24.293  27.885  -3.002  0.00  0.00     0.245 HD
ENDBRANCH   3   9
ENDBRANCH   1   3
BRANCH   1  11
HETATM   11  C   UNK N   1      27.424  25.942  -4.379  0.00  0.00     0.009 A 
HETATM   12  S   UNK N   1      29.017  26.123  -4.856  0.00  0.00    -0.092 SA
HETATM   13  C   UNK N   1      29.668  24.842  -4.033  0.00  0.00     0.015 A 
HETATM   14  C   UNK N   1      28.633  24.220  -3.344  0.00  0.00    -0.018 A 
HETATM   15  C   UNK N   1      30.980  24.386  -3.972  0.00  0.00     0.019 A 
HETATM   16  C   UNK N   1      27.368  24.825  -3.528  0.00  0.00     0.029 A 
HETATM   17  C   UNK N   1      28.882  23.100  -2.556  0.00  0.00     0.013 A 
HETATM   18  C   UNK N   1      30.199  22.616  -2.474  0.00  0.00     0.001 A 
HETATM   19  C   UNK N   1      31.241  23.255  -3.177  0.00  0.00     0.001 A 
ENDBRANCH   1  11
TORSDOF 3
ENDMDL
MODEL 8
REMARK VINA RESULT:      -5.5     15.926     16.887
REMARK  3 active torsions:
REMARK  status: ('A' for Active; 'I' for Inactive)
REMARK    1  A    between atoms: O_2  and  N_4 
REMARK    2  A    between atoms: N_4  and  C_6 
REMARK       I    between atoms: N_4  and  C_16 
REMARK       I    between atoms: N_5  and  C_16 
REMARK    3  A    between atoms: C_6  and  C_7 
ROOT
HETATM    1  C   UNK N   1      36.194  12.070  12.572  0.00  0.00     0.155 C 
HETATM    2  C   UNK N   1      35.708  10.811  11.859  0.00  0.00     0.041 C 
ENDROOT
BRANCH   1   3
HETATM    3  N   UNK N   1      36.885  13.145  11.843  0.00  0.00    -0.201 N 
HETATM    4  C   UNK N   1      36.242  14.227  11.310  0.00  0.00     0.340 C 
HETATM    5  O   UNK N   1      35.034  14.362  11.413  0.00  0.00    -0.245 OA
HETATM    6  N   UNK N   1      36.952  15.170  10.655  0.00  0.00    -0.350 N 
HETATM    7  H   UNK N   1      37.926  15.077  10.563  0.00  0.00     0.160 HD
HETATM    8  H   UNK N   1      36.493  15.952  10.270  0.00  0.00     0.160 HD
BRANCH   3   9
HETATM    9  O   UNK N   1      38.215  13.073  11.685  0.00  0.00    -0.283 OA
HETATM   10  H   UNK N   1      38.677  12.235  11.846  0.00  0.00     0.245 HD
ENDBRANCH   3   9
ENDBRANCH   1   3
BRANCH   1  11
HETATM   11  C   UNK N   1      35.962  12.214  14.056  0.00  0.00     0.009 A 
HETATM   12  S   UNK N   1      35.660  13.636  14.885  0.00  0.00    -0.092 SA
HETATM   13  C   UNK N   1      35.521  13.007  16.410  0.00  0.00     0.015 A 
HETATM   14  C   UNK N   1      35.711  11.634  16.314  0.00  0.00    -0.018 A 
HETATM   15  C   UNK N   1      35.266  13.638  17.622  0.00  0.00     0.019 A 
HETATM   16  C   UNK N   1      35.959  11.173  15.000  0.00  0.00     0.029 A 
HETATM   17  C   UNK N   1      35.650  10.831  17.450  0.00  0.00     0.013 A 
HETATM   18  C   UNK N   1      35.393  11.440  18.690  0.00  0.00     0.001 A 
HETATM   19  C   UNK N   1      35.202  12.835  18.776  0.00  0.00     0.001 A 
ENDBRANCH   1  11
TORSDOF 3
ENDMDL
MODEL 9
REMARK VINA RESULT:      -5.5      9.254     10.579
REMARK  3 active torsions:
REMARK  status: ('A' for Active; 'I' for Inactive)
REMARK    1  A    between atoms: O_2  and  N_4 
REMARK    2  A    between atoms: N_4  and  C_6 
REMARK       I    between atoms: N_4  and  C_16 
REMARK       I    between atoms: N_5  and  C_16 
REMARK    3  A    between atoms: C_6  and  C_7 
ROOT
HETATM    1  C   UNK N   1      28.229  17.844   6.952  0.00  0.00     0.155 C 
HETATM    2  C   UNK N   1      27.344  16.634   6.667  0.00  0.00     0.041 C 
ENDROOT
BRANCH   1   3
HETATM    3  N   UNK N   1      27.665  19.199   7.058  0.00  0.00    -0.201 N 
HETATM    4  C   UNK N   1      27.628  20.082   6.016  0.00  0.00     0.340 C 
HETATM    5  O   UNK N   1      28.070  19.788   4.918  0.00  0.00    -0.245 OA
HETATM    6  N   UNK N   1      27.092  21.308   6.198  0.00  0.00    -0.350 N 
HETATM    7  H   UNK N   1      26.731  21.561   7.077  0.00  0.00     0.160 HD
HETATM    8  H   UNK N   1      27.063  21.947   5.450  0.00  0.00     0.160 HD
BRANCH   3   9
HETATM    9  O   UNK N   1      27.158  19.601   8.233  0.00  0.00    -0.283 OA
HETATM   10  H   UNK N   1      26.198  19.691   8.341  0.00  0.00     0.245 HD
ENDBRANCH   3   9
ENDBRANCH   1   3
BRANCH   1  11
HETATM   11  C   UNK N   1      29.715  17.646   7.131  0.00  0.00     0.009 A 
HETATM   12  S   UNK N   1      30.589  17.872   8.539  0.00  0.00    -0.092 SA
HETATM   13  C   UNK N   1      32.090  17.474   7.964  0.00  0.00     0.015 A 
HETATM   14  C   UNK N   1      31.948  17.144   6.621  0.00  0.00    -0.018 A 
HETATM   15  C   UNK N   1      33.320  17.441   8.610  0.00  0.00     0.019 A 
HETATM   16  C   UNK N   1      30.621  17.235   6.138  0.00  0.00     0.029 A 
HETATM   17  C   UNK N   1      33.054  16.763   5.867  0.00  0.00     0.013 A 
HETATM   18  C   UNK N   1      34.312  16.720   6.492  0.00  0.00     0.001 A 
HETATM   19  C   UNK N   1      34.444  17.057   7.856  0.00  0.00     0.001 A 
ENDBRANCH   1  11
TORSDOF 3
ENDMDL
