MODEL 1
REMARK VINA RESULT:      -6.8      0.000      0.000
REMARK  5 active torsions:
REMARK  status: ('A' for Active; 'I' for Inactive)
REMARK    1  A    between atoms: S_1  and  C_5 
REMARK    2  A    between atoms: S_1  and  C_8 
REMARK       I    between atoms: N_4  and  C_19 
REMARK    3  A    between atoms: C_5  and  C_6 
REMARK    4  A    between atoms: C_5  and  C_7 
REMARK    5  A    between atoms: C_8  and  C_19 
ROOT
HETATM    1  C   UNK N   1      32.376  16.829   7.247  0.00  0.00     0.145 C 
ENDROOT
BRANCH   1   2
HETATM    2  S   UNK N   1      33.739  17.894   7.898  0.00  0.00     0.037 S 
HETATM    3  O   UNK N   1      34.532  17.857   6.583  0.00  0.00    -0.257 OA
BRANCH   2   4
HETATM    4  C   UNK N   1      34.720  16.493   8.527  0.00  0.00     0.212 C 
BRANCH   4   5
HETATM    5  C   UNK N   1      34.913  16.616  10.003  0.00  0.00     0.227 C 
HETATM    6  O   UNK N   1      35.685  17.446  10.455  0.00  0.00    -0.273 OA
HETATM    7  N   UNK N   1      34.247  15.795  10.837  0.00  0.00    -0.369 N 
HETATM    8  H   UNK N   1      33.413  15.333  10.592  0.00  0.00     0.159 HD
HETATM    9  H   UNK N   1      34.612  15.651  11.740  0.00  0.00     0.159 HD
ENDBRANCH   4   5
ENDBRANCH   2   4
ENDBRANCH   1   2
BRANCH   1  10
HETATM   10  C   UNK N   1      32.534  16.626   5.745  0.00  0.00    -0.038 A 
HETATM   11  C   UNK N   1      32.155  17.612   4.817  0.00  0.00     0.009 A 
HETATM   12  C   UNK N   1      32.289  17.385   3.443  0.00  0.00     0.001 A 
HETATM   13  C   UNK N   1      32.806  16.172   2.982  0.00  0.00     0.000 A 
HETATM   14  C   UNK N   1      33.185  15.185   3.893  0.00  0.00     0.001 A 
HETATM   15  C   UNK N   1      33.044  15.410   5.264  0.00  0.00     0.009 A 
ENDBRANCH   1  10
BRANCH   1  16
HETATM   16  C   UNK N   1      30.992  17.310   7.670  0.00  0.00    -0.038 A 
HETATM   17  C   UNK N   1      30.818  18.212   8.736  0.00  0.00     0.009 A 
HETATM   18  C   UNK N   1      29.538  18.618   9.121  0.00  0.00     0.001 A 
HETATM   19  C   UNK N   1      28.417  18.134   8.443  0.00  0.00     0.000 A 
HETATM   20  C   UNK N   1      28.576  17.238   7.383  0.00  0.00     0.001 A 
HETATM   21  C   UNK N   1      29.857  16.822   7.005  0.00  0.00     0.009 A 
ENDBRANCH   1  16
TORSDOF 5
ENDMDL
MODEL 2
REMARK VINA RESULT:      -6.4     14.126     16.338
REMARK  5 active torsions:
REMARK  status: ('A' for Active; 'I' for Inactive)
REMARK    1  A    between atoms: S_1  and  C_5 
REMARK    2  A    between atoms: S_1  and  C_8 
REMARK       I    between atoms: N_4  and  C_19 
REMARK    3  A    between atoms: C_5  and  C_6 
REMARK    4  A    between atoms: C_5  and  C_7 
REMARK    5  A    between atoms: C_8  and  C_19 
ROOT
HETATM    1  C   UNK N   1      27.570  24.989  -5.221  0.00  0.00     0.145 C 
ENDROOT
BRANCH   1   2
HETATM    2  S   UNK N   1      26.173  23.878  -5.702  0.00  0.00     0.037 S 
HETATM    3  O   UNK N   1      27.088  22.870  -6.415  0.00  0.00    -0.257 OA
BRANCH   2   4
HETATM    4  C   UNK N   1      25.868  24.719  -7.289  0.00  0.00     0.212 C 
BRANCH   4   5
HETATM    5  C   UNK N   1      25.563  23.720  -8.356  0.00  0.00     0.227 C 
HETATM    6  O   UNK N   1      24.469  23.180  -8.398  0.00  0.00    -0.273 OA
HETATM    7  N   UNK N   1      26.504  23.400  -9.264  0.00  0.00    -0.369 N 
HETATM    8  H   UNK N   1      27.265  23.983  -9.485  0.00  0.00     0.159 HD
HETATM    9  H   UNK N   1      26.427  22.537  -9.732  0.00  0.00     0.159 HD
ENDBRANCH   4   5
ENDBRANCH   2   4
ENDBRANCH   1   2
BRANCH   1  10
HETATM   10  C   UNK N   1      28.429  24.328  -4.150  0.00  0.00    -0.038 A 
HETATM   11  C   UNK N   1      27.863  23.679  -3.038  0.00  0.00     0.009 A 
HETATM   12  C   UNK N   1      28.680  23.104  -2.059  0.00  0.00     0.001 A 
HETATM   13  C   UNK N   1      30.070  23.167  -2.183  0.00  0.00     0.000 A 
HETATM   14  C   UNK N   1      30.644  23.809  -3.282  0.00  0.00     0.001 A 
HETATM   15  C   UNK N   1      29.827  24.389  -4.255  0.00  0.00     0.009 A 
ENDBRANCH   1  10
BRANCH   1  16
HETATM   16  C   UNK N   1      27.111  26.401  -4.870  0.00  0.00    -0.038 A 
HETATM   17  C   UNK N   1      26.148  26.638  -3.872  0.00  0.00     0.009 A 
HETATM   18  C   UNK N   1      25.726  27.939  -3.587  0.00  0.00     0.001 A 
HETATM   19  C   UNK N   1      26.265  29.018  -4.290  0.00  0.00     0.000 A 
HETATM   20  C   UNK N   1      27.221  28.797  -5.283  0.00  0.00     0.001 A 
HETATM   21  C   UNK N   1      27.635  27.494  -5.577  0.00  0.00     0.009 A 
ENDBRANCH   1  16
TORSDOF 5
ENDMDL
MODEL 3
REMARK VINA RESULT:      -6.4     14.164     16.466
REMARK  5 active torsions:
REMARK  status: ('A' for Active; 'I' for Inactive)
REMARK    1  A    between atoms: S_1  and  C_5 
REMARK    2  A    between atoms: S_1  and  C_8 
REMARK       I    between atoms: N_4  and  C_19 
REMARK    3  A    between atoms: C_5  and  C_6 
REMARK    4  A    between atoms: C_5  and  C_7 
REMARK    5  A    between atoms: C_8  and  C_19 
ROOT
HETATM    1  C   UNK N   1      26.749  25.215  -4.870  0.00  0.00     0.145 C 
ENDROOT
BRANCH   1   2
HETATM    2  S   UNK N   1      26.758  24.660  -6.632  0.00  0.00     0.037 S 
HETATM    3  O   UNK N   1      25.299  25.076  -6.876  0.00  0.00    -0.257 OA
BRANCH   2   4
HETATM    4  C   UNK N   1      26.209  22.967  -6.246  0.00  0.00     0.212 C 
BRANCH   4   5
HETATM    5  C   UNK N   1      25.746  22.276  -7.487  0.00  0.00     0.227 C 
HETATM    6  O   UNK N   1      26.553  21.745  -8.233  0.00  0.00    -0.273 OA
HETATM    7  N   UNK N   1      24.435  22.255  -7.794  0.00  0.00    -0.369 N 
HETATM    8  H   UNK N   1      23.721  22.377  -7.128  0.00  0.00     0.159 HD
HETATM    9  H   UNK N   1      24.178  22.108  -8.733  0.00  0.00     0.159 HD
ENDBRANCH   4   5
ENDBRANCH   2   4
ENDBRANCH   1   2
BRANCH   1  10
HETATM   10  C   UNK N   1      26.745  26.737  -4.793  0.00  0.00    -0.038 A 
HETATM   11  C   UNK N   1      27.386  27.533  -5.759  0.00  0.00     0.009 A 
HETATM   12  C   UNK N   1      27.386  28.927  -5.646  0.00  0.00     0.001 A 
HETATM   13  C   UNK N   1      26.741  29.541  -4.570  0.00  0.00     0.000 A 
HETATM   14  C   UNK N   1      26.101  28.762  -3.604  0.00  0.00     0.001 A 
HETATM   15  C   UNK N   1      26.109  27.370  -3.714  0.00  0.00     0.009 A 
ENDBRANCH   1  10
BRANCH   1  16
HETATM   16  C   UNK N   1      27.836  24.551  -4.032  0.00  0.00    -0.038 A 
HETATM   17  C   UNK N   1      29.192  24.608  -4.403  0.00  0.00     0.009 A 
HETATM   18  C   UNK N   1      30.167  23.969  -3.632  0.00  0.00     0.001 A 
HETATM   19  C   UNK N   1      29.801  23.272  -2.479  0.00  0.00     0.000 A 
HETATM   20  C   UNK N   1      28.458  23.208  -2.099  0.00  0.00     0.001 A 
HETATM   21  C   UNK N   1      27.480  23.837  -2.877  0.00  0.00     0.009 A 
ENDBRANCH   1  16
TORSDOF 5
ENDMDL
MODEL 4
REMARK VINA RESULT:      -6.4      6.773     10.277
REMARK  5 active torsions:
REMARK  status: ('A' for Active; 'I' for Inactive)
REMARK    1  A    between atoms: S_1  and  C_5 
REMARK    2  A    between atoms: S_1  and  C_8 
REMARK       I    between atoms: N_4  and  C_19 
REMARK    3  A    between atoms: C_5  and  C_6 
REMARK    4  A    between atoms: C_5  and  C_7 
REMARK    5  A    between atoms: C_8  and  C_19 
ROOT
HETATM    1  C   UNK N   1      36.714  12.948  14.106  0.00  0.00     0.145 C 
ENDROOT
BRANCH   1   2
HETATM    2  S   UNK N   1      35.345  13.201  12.890  0.00  0.00     0.037 S 
HETATM    3  O   UNK N   1      36.126  12.570  11.727  0.00  0.00    -0.257 OA
BRANCH   2   4
HETATM    4  C   UNK N   1      35.918  14.852  12.378  0.00  0.00     0.212 C 
BRANCH   4   5
HETATM    5  C   UNK N   1      34.901  15.505  11.500  0.00  0.00     0.227 C 
HETATM    6  O   UNK N   1      33.868  14.921  11.215  0.00  0.00    -0.273 OA
HETATM    7  N   UNK N   1      35.132  16.737  11.008  0.00  0.00    -0.369 N 
HETATM    8  H   UNK N   1      35.760  17.376  11.416  0.00  0.00     0.159 HD
HETATM    9  H   UNK N   1      34.647  17.014  10.196  0.00  0.00     0.159 HD
ENDBRANCH   4   5
ENDBRANCH   2   4
ENDBRANCH   1   2
BRANCH   1  10
HETATM   10  C   UNK N   1      36.981  11.461  14.302  0.00  0.00    -0.038 A 
HETATM   11  C   UNK N   1      35.939  10.517  14.342  0.00  0.00     0.009 A 
HETATM   12  C   UNK N   1      36.216   9.161  14.549  0.00  0.00     0.001 A 
HETATM   13  C   UNK N   1      37.536   8.735  14.715  0.00  0.00     0.000 A 
HETATM   14  C   UNK N   1      38.578   9.662  14.678  0.00  0.00     0.001 A 
HETATM   15  C   UNK N   1      38.300  11.016  14.478  0.00  0.00     0.009 A 
ENDBRANCH   1  10
BRANCH   1  16
HETATM   16  C   UNK N   1      36.506  13.722  15.403  0.00  0.00    -0.038 A 
HETATM   17  C   UNK N   1      37.230  14.894  15.689  0.00  0.00     0.009 A 
HETATM   18  C   UNK N   1      37.041  15.570  16.896  0.00  0.00     0.001 A 
HETATM   19  C   UNK N   1      36.121  15.089  17.830  0.00  0.00     0.000 A 
HETATM   20  C   UNK N   1      35.395  13.927  17.559  0.00  0.00     0.001 A 
HETATM   21  C   UNK N   1      35.593  13.242  16.356  0.00  0.00     0.009 A 
ENDBRANCH   1  16
TORSDOF 5
ENDMDL
MODEL 5
REMARK VINA RESULT:      -6.4     13.480     15.402
REMARK  5 active torsions:
REMARK  status: ('A' for Active; 'I' for Inactive)
REMARK    1  A    between atoms: S_1  and  C_5 
REMARK    2  A    between atoms: S_1  and  C_8 
REMARK       I    between atoms: N_4  and  C_19 
REMARK    3  A    between atoms: C_5  and  C_6 
REMARK    4  A    between atoms: C_5  and  C_7 
REMARK    5  A    between atoms: C_8  and  C_19 
ROOT
HETATM    1  C   UNK N   1      27.043  24.107  -5.123  0.00  0.00     0.145 C 
ENDROOT
BRANCH   1   2
HETATM    2  S   UNK N   1      28.877  24.069  -4.893  0.00  0.00     0.037 S 
HETATM    3  O   UNK N   1      29.005  22.606  -5.343  0.00  0.00    -0.257 OA
BRANCH   2   4
HETATM    4  C   UNK N   1      28.787  23.526  -3.156  0.00  0.00     0.212 C 
BRANCH   4   5
HETATM    5  C   UNK N   1      30.158  23.288  -2.615  0.00  0.00     0.227 C 
HETATM    6  O   UNK N   1      30.317  23.031  -1.433  0.00  0.00    -0.273 OA
HETATM    7  N   UNK N   1      31.226  23.376  -3.432  0.00  0.00    -0.369 N 
HETATM    8  H   UNK N   1      31.171  23.274  -4.409  0.00  0.00     0.159 HD
HETATM    9  H   UNK N   1      32.108  23.551  -3.029  0.00  0.00     0.159 HD
ENDBRANCH   4   5
ENDBRANCH   2   4
ENDBRANCH   1   2
BRANCH   1  10
HETATM   10  C   UNK N   1      26.666  23.501  -6.469  0.00  0.00    -0.038 A 
HETATM   11  C   UNK N   1      27.302  23.884  -7.663  0.00  0.00     0.009 A 
HETATM   12  C   UNK N   1      26.914  23.327  -8.886  0.00  0.00     0.001 A 
HETATM   13  C   UNK N   1      25.890  22.378  -8.929  0.00  0.00     0.000 A 
HETATM   14  C   UNK N   1      25.250  21.989  -7.750  0.00  0.00     0.001 A 
HETATM   15  C   UNK N   1      25.633  22.552  -6.531  0.00  0.00     0.009 A 
ENDBRANCH   1  10
BRANCH   1  16
HETATM   16  C   UNK N   1      26.441  25.484  -4.867  0.00  0.00    -0.038 A 
HETATM   17  C   UNK N   1      26.870  26.292  -3.798  0.00  0.00     0.009 A 
HETATM   18  C   UNK N   1      26.284  27.539  -3.569  0.00  0.00     0.001 A 
HETATM   19  C   UNK N   1      25.267  27.998  -4.409  0.00  0.00     0.000 A 
HETATM   20  C   UNK N   1      24.831  27.206  -5.474  0.00  0.00     0.001 A 
HETATM   21  C   UNK N   1      25.409  25.952  -5.696  0.00  0.00     0.009 A 
ENDBRANCH   1  16
TORSDOF 5
ENDMDL
MODEL 6
REMARK VINA RESULT:      -6.3      2.499      4.851
REMARK  5 active torsions:
REMARK  status: ('A' for Active; 'I' for Inactive)
REMARK    1  A    between atoms: S_1  and  C_5 
REMARK    2  A    between atoms: S_1  and  C_8 
REMARK       I    between atoms: N_4  and  C_19 
REMARK    3  A    between atoms: C_5  and  C_6 
REMARK    4  A    between atoms: C_5  and  C_7 
REMARK    5  A    between atoms: C_8  and  C_19 
ROOT
HETATM    1  C   UNK N   1      32.909  17.104   7.431  0.00  0.00     0.145 C 
ENDROOT
BRANCH   1   2
HETATM    2  S   UNK N   1      33.223  16.065   5.935  0.00  0.00     0.037 S 
HETATM    3  O   UNK N   1      34.747  16.244   6.007  0.00  0.00    -0.257 OA
BRANCH   2   4
HETATM    4  C   UNK N   1      33.116  17.463   4.771  0.00  0.00     0.212 C 
BRANCH   4   5
HETATM    5  C   UNK N   1      32.576  17.003   3.457  0.00  0.00     0.227 C 
HETATM    6  O   UNK N   1      33.295  16.405   2.672  0.00  0.00    -0.273 OA
HETATM    7  N   UNK N   1      31.297  17.264   3.128  0.00  0.00    -0.369 N 
HETATM    8  H   UNK N   1      30.594  17.454   3.791  0.00  0.00     0.159 HD
HETATM    9  H   UNK N   1      31.051  17.266   2.174  0.00  0.00     0.159 HD
ENDBRANCH   4   5
ENDBRANCH   2   4
ENDBRANCH   1   2
BRANCH   1  10
HETATM   10  C   UNK N   1      33.611  16.510   8.646  0.00  0.00    -0.038 A 
HETATM   11  C   UNK N   1      33.250  15.258   9.176  0.00  0.00     0.009 A 
HETATM   12  C   UNK N   1      33.897  14.752  10.308  0.00  0.00     0.001 A 
HETATM   13  C   UNK N   1      34.913  15.488  10.920  0.00  0.00     0.000 A 
HETATM   14  C   UNK N   1      35.281  16.732  10.404  0.00  0.00     0.001 A 
HETATM   15  C   UNK N   1      34.629  17.241   9.278  0.00  0.00     0.009 A 
ENDBRANCH   1  10
BRANCH   1  16
HETATM   16  C   UNK N   1      31.429  17.401   7.648  0.00  0.00    -0.038 A 
HETATM   17  C   UNK N   1      30.989  18.244   8.685  0.00  0.00     0.009 A 
HETATM   18  C   UNK N   1      29.626  18.479   8.880  0.00  0.00     0.001 A 
HETATM   19  C   UNK N   1      28.686  17.882   8.037  0.00  0.00     0.000 A 
HETATM   20  C   UNK N   1      29.109  17.043   7.003  0.00  0.00     0.001 A 
HETATM   21  C   UNK N   1      30.474  16.797   6.816  0.00  0.00     0.009 A 
ENDBRANCH   1  16
TORSDOF 5
ENDMDL
MODEL 7
REMARK VINA RESULT:      -6.1     13.500     15.664
REMARK  5 active torsions:
REMARK  status: ('A' for Active; 'I' for Inactive)
REMARK    1  A    between atoms: S_1  and  C_5 
REMARK    2  A    between atoms: S_1  and  C_8 
REMARK       I    between atoms: N_4  and  C_19 
REMARK    3  A    between atoms: C_5  and  C_6 
REMARK    4  A    between atoms: C_5  and  C_7 
REMARK    5  A    between atoms: C_8  and  C_19 
ROOT
HETATM    1  C   UNK N   1      27.264  24.455  -5.535  0.00  0.00     0.145 C 
ENDROOT
BRANCH   1   2
HETATM    2  S   UNK N   1      25.797  25.452  -5.015  0.00  0.00     0.037 S 
HETATM    3  O   UNK N   1      25.561  26.024  -6.422  0.00  0.00    -0.257 OA
BRANCH   2   4
HETATM    4  C   UNK N   1      26.777  26.925  -4.582  0.00  0.00     0.212 C 
BRANCH   4   5
HETATM    5  C   UNK N   1      26.190  27.607  -3.390  0.00  0.00     0.227 C 
HETATM    6  O   UNK N   1      25.975  26.979  -2.366  0.00  0.00    -0.273 OA
HETATM    7  N   UNK N   1      25.879  28.916  -3.452  0.00  0.00    -0.369 N 
HETATM    8  H   UNK N   1      26.286  29.540  -4.095  0.00  0.00     0.159 HD
HETATM    9  H   UNK N   1      25.210  29.267  -2.820  0.00  0.00     0.159 HD
ENDBRANCH   4   5
ENDBRANCH   2   4
ENDBRANCH   1   2
BRANCH   1  10
HETATM   10  C   UNK N   1      26.839  23.342  -6.484  0.00  0.00    -0.038 A 
HETATM   11  C   UNK N   1      27.681  22.877  -7.510  0.00  0.00     0.009 A 
HETATM   12  C   UNK N   1      27.252  21.870  -8.381  0.00  0.00     0.001 A 
HETATM   13  C   UNK N   1      25.978  21.316  -8.235  0.00  0.00     0.000 A 
HETATM   14  C   UNK N   1      25.132  21.769  -7.221  0.00  0.00     0.001 A 
HETATM   15  C   UNK N   1      25.559  22.779  -6.356  0.00  0.00     0.009 A 
ENDBRANCH   1  10
BRANCH   1  16
HETATM   16  C   UNK N   1      28.108  23.982  -4.356  0.00  0.00    -0.038 A 
HETATM   17  C   UNK N   1      27.531  23.679  -3.109  0.00  0.00     0.009 A 
HETATM   18  C   UNK N   1      28.329  23.273  -2.036  0.00  0.00     0.001 A 
HETATM   19  C   UNK N   1      29.711  23.156  -2.198  0.00  0.00     0.000 A 
HETATM   20  C   UNK N   1      30.297  23.453  -3.431  0.00  0.00     0.001 A 
HETATM   21  C   UNK N   1      29.499  23.872  -4.502  0.00  0.00     0.009 A 
ENDBRANCH   1  16
TORSDOF 5
ENDMDL
MODEL 8
REMARK VINA RESULT:      -6.1      3.935      6.108
REMARK  5 active torsions:
REMARK  status: ('A' for Active; 'I' for Inactive)
REMARK    1  A    between atoms: S_1  and  C_5 
REMARK    2  A    between atoms: S_1  and  C_8 
REMARK       I    between atoms: N_4  and  C_19 
REMARK    3  A    between atoms: C_5  and  C_6 
REMARK    4  A    between atoms: C_5  and  C_7 
REMARK    5  A    between atoms: C_8  and  C_19 
ROOT
HETATM    1  C   UNK N   1      29.110  17.084   5.636  0.00  0.00     0.145 C 
ENDROOT
BRANCH   1   2
HETATM    2  S   UNK N   1      28.467  15.973   4.307  0.00  0.00     0.037 S 
HETATM    3  O   UNK N   1      27.063  15.880   4.925  0.00  0.00    -0.257 OA
BRANCH   2   4
HETATM    4  C   UNK N   1      28.946  14.439   5.165  0.00  0.00     0.212 C 
BRANCH   4   5
HETATM    5  C   UNK N   1      30.167  13.853   4.537  0.00  0.00     0.227 C 
HETATM    6  O   UNK N   1      30.385  14.015   3.347  0.00  0.00    -0.273 OA
HETATM    7  N   UNK N   1      31.023  13.129   5.283  0.00  0.00    -0.369 N 
HETATM    8  H   UNK N   1      31.089  13.206   6.262  0.00  0.00     0.159 HD
HETATM    9  H   UNK N   1      31.615  12.488   4.824  0.00  0.00     0.159 HD
ENDBRANCH   4   5
ENDBRANCH   2   4
ENDBRANCH   1   2
BRANCH   1  10
HETATM   10  C   UNK N   1      28.375  18.418   5.614  0.00  0.00    -0.038 A 
HETATM   11  C   UNK N   1      28.030  19.059   4.411  0.00  0.00     0.009 A 
HETATM   12  C   UNK N   1      27.376  20.295   4.425  0.00  0.00     0.001 A 
HETATM   13  C   UNK N   1      27.058  20.904   5.642  0.00  0.00     0.000 A 
HETATM   14  C   UNK N   1      27.396  20.278   6.843  0.00  0.00     0.001 A 
HETATM   15  C   UNK N   1      28.054  19.047   6.828  0.00  0.00     0.009 A 
ENDBRANCH   1  10
BRANCH   1  16
HETATM   16  C   UNK N   1      30.630  17.209   5.621  0.00  0.00    -0.038 A 
HETATM   17  C   UNK N   1      31.389  17.136   6.804  0.00  0.00     0.009 A 
HETATM   18  C   UNK N   1      32.778  17.280   6.767  0.00  0.00     0.001 A 
HETATM   19  C   UNK N   1      33.427  17.491   5.549  0.00  0.00     0.000 A 
HETATM   20  C   UNK N   1      32.686  17.566   4.367  0.00  0.00     0.001 A 
HETATM   21  C   UNK N   1      31.294  17.434   4.405  0.00  0.00     0.009 A 
ENDBRANCH   1  16
TORSDOF 5
ENDMDL
MODEL 9
REMARK VINA RESULT:      -6.0      3.047      5.506
REMARK  5 active torsions:
REMARK  status: ('A' for Active; 'I' for Inactive)
REMARK    1  A    between atoms: S_1  and  C_5 
REMARK    2  A    between atoms: S_1  and  C_8 
REMARK       I    between atoms: N_4  and  C_19 
REMARK    3  A    between atoms: C_5  and  C_6 
REMARK    4  A    between atoms: C_5  and  C_7 
REMARK    5  A    between atoms: C_8  and  C_19 
ROOT
HETATM    1  C   UNK N   1      31.415  16.116   7.441  0.00  0.00     0.145 C 
ENDROOT
BRANCH   1   2
HETATM    2  S   UNK N   1      30.754  17.652   8.229  0.00  0.00     0.037 S 
HETATM    3  O   UNK N   1      30.120  16.895   9.406  0.00  0.00    -0.257 OA
BRANCH   2   4
HETATM    4  C   UNK N   1      29.166  17.591   7.337  0.00  0.00     0.212 C 
BRANCH   4   5
HETATM    5  C   UNK N   1      28.241  18.644   7.853  0.00  0.00     0.227 C 
HETATM    6  O   UNK N   1      28.034  19.654   7.201  0.00  0.00    -0.273 OA
HETATM    7  N   UNK N   1      27.647  18.487   9.052  0.00  0.00    -0.369 N 
HETATM    8  H   UNK N   1      27.517  17.611   9.482  0.00  0.00     0.159 HD
HETATM    9  H   UNK N   1      27.327  19.290   9.523  0.00  0.00     0.159 HD
ENDBRANCH   4   5
ENDBRANCH   2   4
ENDBRANCH   1   2
BRANCH   1  10
HETATM   10  C   UNK N   1      32.550  15.538   8.277  0.00  0.00    -0.038 A 
HETATM   11  C   UNK N   1      33.507  16.358   8.902  0.00  0.00     0.009 A 
HETATM   12  C   UNK N   1      34.552  15.795   9.642  0.00  0.00     0.001 A 
HETATM   13  C   UNK N   1      34.650  14.408   9.768  0.00  0.00     0.000 A 
HETATM   14  C   UNK N   1      33.707  13.583   9.153  0.00  0.00     0.001 A 
HETATM   15  C   UNK N   1      32.669  14.146   8.408  0.00  0.00     0.009 A 
ENDBRANCH   1  10
BRANCH   1  16
HETATM   16  C   UNK N   1      31.759  16.305   5.967  0.00  0.00    -0.038 A 
HETATM   17  C   UNK N   1      31.348  15.382   4.989  0.00  0.00     0.009 A 
HETATM   18  C   UNK N   1      31.698  15.564   3.648  0.00  0.00     0.001 A 
HETATM   19  C   UNK N   1      32.456  16.673   3.268  0.00  0.00     0.000 A 
HETATM   20  C   UNK N   1      32.870  17.598   4.230  0.00  0.00     0.001 A 
HETATM   21  C   UNK N   1      32.531  17.409   5.574  0.00  0.00     0.009 A 
ENDBRANCH   1  16
TORSDOF 5
ENDMDL
