MODEL 1
REMARK VINA RESULT:      -6.1      0.000      0.000
REMARK  27 active torsions:
REMARK  status: ('A' for Active; 'I' for Inactive)
REMARK    1  A    between atoms: O_1  and  N_9 
REMARK    2  A    between atoms: O_2  and  N_12 
REMARK    3  A    between atoms: O_6  and  N_13 
REMARK    4  A    between atoms: N_9  and  C_19 
REMARK       I    between atoms: N_9  and  C_33 
REMARK    5  A    between atoms: N_10  and  C_21 
REMARK       I    between atoms: N_10  and  C_34 
REMARK    6  A    between atoms: N_11  and  C_25 
REMARK       I    between atoms: N_11  and  C_35 
REMARK    7  A    between atoms: N_12  and  C_26 
REMARK       I    between atoms: N_12  and  C_37 
REMARK    8  A    between atoms: N_13  and  C_28 
REMARK       I    between atoms: N_13  and  C_38 
REMARK    9  A    between atoms: N_14  and  C_36 
REMARK   10  A    between atoms: C_15  and  C_16 
REMARK   11  A    between atoms: C_15  and  C_17 
REMARK   12  A    between atoms: C_16  and  C_19 
REMARK   13  A    between atoms: C_17  and  C_21 
REMARK   14  A    between atoms: C_18  and  C_20 
REMARK   15  A    between atoms: C_18  and  C_22 
REMARK   16  A    between atoms: C_20  and  C_25 
REMARK   17  A    between atoms: C_22  and  C_28 
REMARK   18  A    between atoms: C_23  and  C_24 
REMARK   19  A    between atoms: C_23  and  C_26 
REMARK   20  A    between atoms: C_24  and  C_27 
REMARK   21  A    between atoms: C_27  and  C_36 
REMARK   22  A    between atoms: C_29  and  C_30 
REMARK   23  A    between atoms: C_29  and  C_33 
REMARK   24  A    between atoms: C_30  and  C_35 
REMARK   25  A    between atoms: C_31  and  C_32 
REMARK   26  A    between atoms: C_31  and  C_34 
REMARK   27  A    between atoms: C_32  and  C_37 
ROOT
HETATM    1  C   UNK N   1      24.954  13.442   7.778  0.00  0.00     0.022 C 
ENDROOT
BRANCH   1   2
HETATM    2  C   UNK N   1      24.707  13.488   9.294  0.00  0.00     0.003 C 
BRANCH   2   3
HETATM    3  C   UNK N   1      24.108  12.213   9.905  0.00  0.00     0.020 C 
BRANCH   3   4
HETATM    4  C   UNK N   1      22.713  12.417  10.476  0.00  0.00     0.122 C 
BRANCH   4   5
HETATM    5  N   UNK N   1      22.077  13.542   9.843  0.00  0.00    -0.361 N 
HETATM    6  C   UNK N   1      20.737  13.736   9.919  0.00  0.00     0.217 C 
HETATM    7  O   UNK N   1      20.031  12.955  10.539  0.00  0.00    -0.274 OA
HETATM    8  H   UNK N   1      22.628  14.186   9.343  0.00  0.00     0.162 HD
BRANCH   6   9
HETATM    9  C   UNK N   1      20.099  14.910   9.254  0.00  0.00     0.112 C 
BRANCH   9  10
HETATM   10  C   UNK N   1      21.079  15.737   8.436  0.00  0.00     0.114 C 
BRANCH  10  11
HETATM   11  C   UNK N   1      20.525  15.984   7.068  0.00  0.00     0.243 C 
HETATM   12  O   UNK N   1      19.532  15.365   6.713  0.00  0.00    -0.271 OA
HETATM   13  N   UNK N   1      21.125  16.866   6.222  0.00  0.00    -0.229 N 
BRANCH  13  14
HETATM   14  O   UNK N   1      22.222  17.535   6.617  0.00  0.00    -0.285 OA
HETATM   15  H   UNK N   1      22.799  18.015   6.002  0.00  0.00     0.245 HD
ENDBRANCH  13  14
BRANCH  13  16
HETATM   16  C   UNK N   1      20.595  17.061   4.890  0.00  0.00     0.159 C 
BRANCH  16  17
HETATM   17  C   UNK N   1      21.369  18.101   4.105  0.00  0.00     0.022 C 
BRANCH  17  18
HETATM   18  C   UNK N   1      20.633  18.320   2.804  0.00  0.00     0.003 C 
BRANCH  18  19
HETATM   19  C   UNK N   1      20.132  17.008   2.249  0.00  0.00     0.019 C 
BRANCH  19  20
HETATM   20  C   UNK N   1      20.074  17.126   0.740  0.00  0.00     0.111 C 
BRANCH  20  21
HETATM   21  N   UNK N   1      18.792  16.645   0.263  0.00  0.00    -0.430 N 
HETATM   22  H   UNK N   1      18.615  15.643   0.199  0.00  0.00     0.149 HD
HETATM   23  H   UNK N   1      18.068  17.309  -0.009  0.00  0.00     0.149 HD
ENDBRANCH  20  21
ENDBRANCH  19  20
ENDBRANCH  18  19
ENDBRANCH  17  18
ENDBRANCH  16  17
ENDBRANCH  13  16
ENDBRANCH  10  11
ENDBRANCH   9  10
ENDBRANCH   6   9
ENDBRANCH   4   5
ENDBRANCH   3   4
ENDBRANCH   2   3
ENDBRANCH   1   2
BRANCH   1  24
HETATM   24  C   UNK N   1      24.221  14.529   6.990  0.00  0.00     0.159 C 
BRANCH  24  25
HETATM   25  N   UNK N   1      25.151  15.502   6.471  0.00  0.00    -0.229 N 
HETATM   26  C   UNK N   1      24.958  16.059   5.236  0.00  0.00     0.243 C 
HETATM   27  O   UNK N   1      23.956  15.774   4.597  0.00  0.00    -0.271 OA
BRANCH  25  28
HETATM   28  O   UNK N   1      26.200  15.833   7.234  0.00  0.00    -0.285 OA
HETATM   29  H   UNK N   1      26.280  16.707   7.649  0.00  0.00     0.245 HD
ENDBRANCH  25  28
BRANCH  26  30
HETATM   30  C   UNK N   1      25.927  17.026   4.598  0.00  0.00     0.114 C 
BRANCH  30  31
HETATM   31  C   UNK N   1      25.595  18.512   4.678  0.00  0.00     0.112 C 
BRANCH  31  32
HETATM   32  C   UNK N   1      26.537  19.245   5.579  0.00  0.00     0.217 C 
HETATM   33  O   UNK N   1      26.594  20.465   5.522  0.00  0.00    -0.274 OA
HETATM   34  N   UNK N   1      27.305  18.560   6.458  0.00  0.00    -0.361 N 
HETATM   35  H   UNK N   1      27.261  17.577   6.458  0.00  0.00     0.162 HD
BRANCH  34  36
HETATM   36  C   UNK N   1      28.181  19.212   7.389  0.00  0.00     0.122 C 
BRANCH  36  37
HETATM   37  C   UNK N   1      28.657  18.175   8.377  0.00  0.00     0.020 C 
BRANCH  37  38
HETATM   38  C   UNK N   1      30.120  17.861   8.132  0.00  0.00     0.003 C 
BRANCH  38  39
HETATM   39  C   UNK N   1      30.252  16.746   7.112  0.00  0.00     0.022 C 
BRANCH  39  40
HETATM   40  C   UNK N   1      31.673  16.187   7.146  0.00  0.00     0.159 C 
BRANCH  40  41
HETATM   41  N   UNK N   1      32.672  16.931   7.903  0.00  0.00    -0.229 N 
HETATM   42  C   UNK N   1      33.633  17.735   7.350  0.00  0.00     0.239 C 
HETATM   43  O   UNK N   1      33.731  17.880   6.142  0.00  0.00    -0.272 OA
HETATM   44  C   UNK N   1      34.590  18.470   8.231  0.00  0.00     0.119 C 
BRANCH  41  45
HETATM   45  O   UNK N   1      32.615  16.830   9.238  0.00  0.00    -0.285 OA
HETATM   46  H   UNK N   1      33.432  16.769   9.756  0.00  0.00     0.245 HD
ENDBRANCH  41  45
ENDBRANCH  40  41
ENDBRANCH  39  40
ENDBRANCH  38  39
ENDBRANCH  37  38
ENDBRANCH  36  37
ENDBRANCH  34  36
ENDBRANCH  31  32
ENDBRANCH  30  31
ENDBRANCH  26  30
ENDBRANCH  24  25
ENDBRANCH   1  24
TORSDOF 27
ENDMDL
MODEL 2
REMARK VINA RESULT:      -6.1      2.763      6.748
REMARK  27 active torsions:
REMARK  status: ('A' for Active; 'I' for Inactive)
REMARK    1  A    between atoms: O_1  and  N_9 
REMARK    2  A    between atoms: O_2  and  N_12 
REMARK    3  A    between atoms: O_6  and  N_13 
REMARK    4  A    between atoms: N_9  and  C_19 
REMARK       I    between atoms: N_9  and  C_33 
REMARK    5  A    between atoms: N_10  and  C_21 
REMARK       I    between atoms: N_10  and  C_34 
REMARK    6  A    between atoms: N_11  and  C_25 
REMARK       I    between atoms: N_11  and  C_35 
REMARK    7  A    between atoms: N_12  and  C_26 
REMARK       I    between atoms: N_12  and  C_37 
REMARK    8  A    between atoms: N_13  and  C_28 
REMARK       I    between atoms: N_13  and  C_38 
REMARK    9  A    between atoms: N_14  and  C_36 
REMARK   10  A    between atoms: C_15  and  C_16 
REMARK   11  A    between atoms: C_15  and  C_17 
REMARK   12  A    between atoms: C_16  and  C_19 
REMARK   13  A    between atoms: C_17  and  C_21 
REMARK   14  A    between atoms: C_18  and  C_20 
REMARK   15  A    between atoms: C_18  and  C_22 
REMARK   16  A    between atoms: C_20  and  C_25 
REMARK   17  A    between atoms: C_22  and  C_28 
REMARK   18  A    between atoms: C_23  and  C_24 
REMARK   19  A    between atoms: C_23  and  C_26 
REMARK   20  A    between atoms: C_24  and  C_27 
REMARK   21  A    between atoms: C_27  and  C_36 
REMARK   22  A    between atoms: C_29  and  C_30 
REMARK   23  A    between atoms: C_29  and  C_33 
REMARK   24  A    between atoms: C_30  and  C_35 
REMARK   25  A    between atoms: C_31  and  C_32 
REMARK   26  A    between atoms: C_31  and  C_34 
REMARK   27  A    between atoms: C_32  and  C_37 
ROOT
HETATM    1  C   UNK N   1      19.575  14.630   0.867  0.00  0.00     0.022 C 
ENDROOT
BRANCH   1   2
HETATM    2  C   UNK N   1      20.090  13.277   1.383  0.00  0.00     0.003 C 
BRANCH   2   3
HETATM    3  C   UNK N   1      20.813  13.318   2.736  0.00  0.00     0.020 C 
BRANCH   3   4
HETATM    4  C   UNK N   1      19.887  13.622   3.905  0.00  0.00     0.122 C 
BRANCH   4   5
HETATM    5  N   UNK N   1      20.387  14.742   4.657  0.00  0.00    -0.361 N 
HETATM    6  C   UNK N   1      19.583  15.464   5.476  0.00  0.00     0.217 C 
HETATM    7  O   UNK N   1      18.404  15.174   5.601  0.00  0.00    -0.274 OA
HETATM    8  H   UNK N   1      21.337  14.990   4.575  0.00  0.00     0.162 HD
BRANCH   6   9
HETATM    9  C   UNK N   1      20.125  16.623   6.246  0.00  0.00     0.112 C 
BRANCH   9  10
HETATM   10  C   UNK N   1      20.821  16.210   7.533  0.00  0.00     0.114 C 
BRANCH  10  11
HETATM   11  C   UNK N   1      22.094  15.489   7.220  0.00  0.00     0.243 C 
HETATM   12  O   UNK N   1      22.861  15.976   6.402  0.00  0.00    -0.271 OA
HETATM   13  N   UNK N   1      22.388  14.302   7.818  0.00  0.00    -0.229 N 
BRANCH  13  14
HETATM   14  O   UNK N   1      21.534  13.770   8.709  0.00  0.00    -0.285 OA
HETATM   15  H   UNK N   1      21.063  12.935   8.557  0.00  0.00     0.245 HD
ENDBRANCH  13  14
BRANCH  13  16
HETATM   16  C   UNK N   1      23.607  13.604   7.471  0.00  0.00     0.159 C 
BRANCH  16  17
HETATM   17  C   UNK N   1      23.861  12.404   8.364  0.00  0.00     0.022 C 
BRANCH  17  18
HETATM   18  C   UNK N   1      24.650  12.892   9.556  0.00  0.00     0.003 C 
BRANCH  18  19
HETATM   19  C   UNK N   1      24.223  12.170  10.810  0.00  0.00     0.019 C 
BRANCH  19  20
HETATM   20  C   UNK N   1      22.950  11.409  10.506  0.00  0.00     0.111 C 
BRANCH  20  21
HETATM   21  N   UNK N   1      21.848  11.983  11.251  0.00  0.00    -0.430 N 
HETATM   22  H   UNK N   1      21.117  12.503  10.764  0.00  0.00     0.149 HD
HETATM   23  H   UNK N   1      21.803  11.869  12.263  0.00  0.00     0.149 HD
ENDBRANCH  20  21
ENDBRANCH  19  20
ENDBRANCH  18  19
ENDBRANCH  17  18
ENDBRANCH  16  17
ENDBRANCH  13  16
ENDBRANCH  10  11
ENDBRANCH   9  10
ENDBRANCH   6   9
ENDBRANCH   4   5
ENDBRANCH   3   4
ENDBRANCH   2   3
ENDBRANCH   1   2
BRANCH   1  24
HETATM   24  C   UNK N   1      20.616  15.751   0.900  0.00  0.00     0.159 C 
BRANCH  24  25
HETATM   25  N   UNK N   1      20.056  16.953   1.468  0.00  0.00    -0.229 N 
HETATM   26  C   UNK N   1      20.644  17.550   2.550  0.00  0.00     0.243 C 
HETATM   27  O   UNK N   1      21.686  17.093   2.997  0.00  0.00    -0.271 OA
BRANCH  25  28
HETATM   28  O   UNK N   1      18.950  17.456   0.904  0.00  0.00    -0.285 OA
HETATM   29  H   UNK N   1      18.196  16.896   0.662  0.00  0.00     0.245 HD
ENDBRANCH  25  28
BRANCH  26  30
HETATM   30  C   UNK N   1      20.074  18.765   3.242  0.00  0.00     0.114 C 
BRANCH  30  31
HETATM   31  C   UNK N   1      20.287  20.120   2.575  0.00  0.00     0.112 C 
BRANCH  31  32
HETATM   32  C   UNK N   1      21.718  20.335   2.198  0.00  0.00     0.217 C 
HETATM   33  O   UNK N   1      21.997  20.627   1.044  0.00  0.00    -0.274 OA
HETATM   34  N   UNK N   1      22.690  20.222   3.134  0.00  0.00    -0.361 N 
HETATM   35  H   UNK N   1      22.439  19.955   4.046  0.00  0.00     0.162 HD
BRANCH  34  36
HETATM   36  C   UNK N   1      24.073  20.478   2.845  0.00  0.00     0.122 C 
BRANCH  36  37
HETATM   37  C   UNK N   1      24.902  19.655   3.801  0.00  0.00     0.020 C 
BRANCH  37  38
HETATM   38  C   UNK N   1      26.231  20.341   4.053  0.00  0.00     0.003 C 
BRANCH  38  39
HETATM   39  C   UNK N   1      26.246  20.958   5.439  0.00  0.00     0.022 C 
BRANCH  39  40
HETATM   40  C   UNK N   1      27.598  20.700   6.100  0.00  0.00     0.159 C 
BRANCH  40  41
HETATM   41  N   UNK N   1      27.726  19.509   6.931  0.00  0.00    -0.229 N 
HETATM   42  C   UNK N   1      28.355  18.353   6.551  0.00  0.00     0.239 C 
HETATM   43  O   UNK N   1      28.860  18.232   5.446  0.00  0.00    -0.272 OA
HETATM   44  C   UNK N   1      28.446  17.204   7.502  0.00  0.00     0.119 C 
BRANCH  41  45
HETATM   45  O   UNK N   1      27.207  19.577   8.166  0.00  0.00    -0.285 OA
HETATM   46  H   UNK N   1      26.554  18.921   8.454  0.00  0.00     0.245 HD
ENDBRANCH  41  45
ENDBRANCH  40  41
ENDBRANCH  39  40
ENDBRANCH  38  39
ENDBRANCH  37  38
ENDBRANCH  36  37
ENDBRANCH  34  36
ENDBRANCH  31  32
ENDBRANCH  30  31
ENDBRANCH  26  30
ENDBRANCH  24  25
ENDBRANCH   1  24
TORSDOF 27
ENDMDL
MODEL 3
REMARK VINA RESULT:      -6.1      3.915      7.898
REMARK  27 active torsions:
REMARK  status: ('A' for Active; 'I' for Inactive)
REMARK    1  A    between atoms: O_1  and  N_9 
REMARK    2  A    between atoms: O_2  and  N_12 
REMARK    3  A    between atoms: O_6  and  N_13 
REMARK    4  A    between atoms: N_9  and  C_19 
REMARK       I    between atoms: N_9  and  C_33 
REMARK    5  A    between atoms: N_10  and  C_21 
REMARK       I    between atoms: N_10  and  C_34 
REMARK    6  A    between atoms: N_11  and  C_25 
REMARK       I    between atoms: N_11  and  C_35 
REMARK    7  A    between atoms: N_12  and  C_26 
REMARK       I    between atoms: N_12  and  C_37 
REMARK    8  A    between atoms: N_13  and  C_28 
REMARK       I    between atoms: N_13  and  C_38 
REMARK    9  A    between atoms: N_14  and  C_36 
REMARK   10  A    between atoms: C_15  and  C_16 
REMARK   11  A    between atoms: C_15  and  C_17 
REMARK   12  A    between atoms: C_16  and  C_19 
REMARK   13  A    between atoms: C_17  and  C_21 
REMARK   14  A    between atoms: C_18  and  C_20 
REMARK   15  A    between atoms: C_18  and  C_22 
REMARK   16  A    between atoms: C_20  and  C_25 
REMARK   17  A    between atoms: C_22  and  C_28 
REMARK   18  A    between atoms: C_23  and  C_24 
REMARK   19  A    between atoms: C_23  and  C_26 
REMARK   20  A    between atoms: C_24  and  C_27 
REMARK   21  A    between atoms: C_27  and  C_36 
REMARK   22  A    between atoms: C_29  and  C_30 
REMARK   23  A    between atoms: C_29  and  C_33 
REMARK   24  A    between atoms: C_30  and  C_35 
REMARK   25  A    between atoms: C_31  and  C_32 
REMARK   26  A    between atoms: C_31  and  C_34 
REMARK   27  A    between atoms: C_32  and  C_37 
ROOT
HETATM    1  C   UNK N   1      30.790  17.332   8.699  0.00  0.00     0.022 C 
ENDROOT
BRANCH   1   2
HETATM    2  C   UNK N   1      30.072  18.682   8.858  0.00  0.00     0.003 C 
BRANCH   2   3
HETATM    3  C   UNK N   1      28.556  18.655   8.619  0.00  0.00     0.020 C 
BRANCH   3   4
HETATM    4  C   UNK N   1      28.170  18.082   7.263  0.00  0.00     0.122 C 
BRANCH   4   5
HETATM    5  N   UNK N   1      27.126  18.875   6.669  0.00  0.00    -0.361 N 
HETATM    6  C   UNK N   1      27.357  19.656   5.585  0.00  0.00     0.217 C 
HETATM    7  O   UNK N   1      28.467  19.702   5.078  0.00  0.00    -0.274 OA
HETATM    8  H   UNK N   1      26.222  18.849   7.058  0.00  0.00     0.162 HD
BRANCH   6   9
HETATM    9  C   UNK N   1      26.259  20.470   4.985  0.00  0.00     0.112 C 
BRANCH   9  10
HETATM   10  C   UNK N   1      25.770  19.923   3.653  0.00  0.00     0.114 C 
BRANCH  10  11
HETATM   11  C   UNK N   1      24.422  19.297   3.819  0.00  0.00     0.243 C 
HETATM   12  O   UNK N   1      24.346  18.188   4.329  0.00  0.00    -0.271 OA
HETATM   13  N   UNK N   1      23.298  19.936   3.392  0.00  0.00    -0.229 N 
BRANCH  13  14
HETATM   14  O   UNK N   1      23.392  21.150   2.823  0.00  0.00    -0.285 OA
HETATM   15  H   UNK N   1      23.994  21.841   3.145  0.00  0.00     0.245 HD
ENDBRANCH  13  14
BRANCH  13  16
HETATM   16  C   UNK N   1      22.009  19.295   3.527  0.00  0.00     0.159 C 
BRANCH  16  17
HETATM   17  C   UNK N   1      20.890  20.104   2.900  0.00  0.00     0.022 C 
BRANCH  17  18
HETATM   18  C   UNK N   1      19.691  19.193   2.780  0.00  0.00     0.003 C 
BRANCH  18  19
HETATM   19  C   UNK N   1      20.124  17.748   2.716  0.00  0.00     0.019 C 
BRANCH  19  20
HETATM   20  C   UNK N   1      19.531  17.025   3.907  0.00  0.00     0.111 C 
BRANCH  20  21
HETATM   21  N   UNK N   1      19.339  15.626   3.581  0.00  0.00    -0.430 N 
HETATM   22  H   UNK N   1      18.870  15.007   4.242  0.00  0.00     0.149 HD
HETATM   23  H   UNK N   1      19.675  15.259   2.690  0.00  0.00     0.149 HD
ENDBRANCH  20  21
ENDBRANCH  19  20
ENDBRANCH  18  19
ENDBRANCH  17  18
ENDBRANCH  16  17
ENDBRANCH  13  16
ENDBRANCH  10  11
ENDBRANCH   9  10
ENDBRANCH   6   9
ENDBRANCH   4   5
ENDBRANCH   3   4
ENDBRANCH   2   3
ENDBRANCH   1   2
BRANCH   1  24
HETATM   24  C   UNK N   1      32.171  17.429   8.048  0.00  0.00     0.159 C 
BRANCH  24  25
HETATM   25  N   UNK N   1      32.080  17.226   6.623  0.00  0.00    -0.229 N 
HETATM   26  C   UNK N   1      33.141  17.520   5.809  0.00  0.00     0.243 C 
HETATM   27  O   UNK N   1      34.193  17.899   6.305  0.00  0.00    -0.271 OA
BRANCH  25  28
HETATM   28  O   UNK N   1      30.931  16.746   6.131  0.00  0.00    -0.285 OA
HETATM   29  H   UNK N   1      30.783  16.640   5.178  0.00  0.00     0.245 HD
ENDBRANCH  25  28
BRANCH  26  30
HETATM   30  C   UNK N   1      33.094  17.403   4.304  0.00  0.00     0.114 C 
BRANCH  30  31
HETATM   31  C   UNK N   1      33.274  16.014   3.700  0.00  0.00     0.112 C 
BRANCH  31  32
HETATM   32  C   UNK N   1      31.978  15.447   3.214  0.00  0.00     0.217 C 
HETATM   33  O   UNK N   1      31.953  14.315   2.755  0.00  0.00    -0.274 OA
HETATM   34  N   UNK N   1      30.843  16.180   3.301  0.00  0.00    -0.361 N 
HETATM   35  H   UNK N   1      30.899  17.100   3.646  0.00  0.00     0.162 HD
BRANCH  34  36
HETATM   36  C   UNK N   1      29.561  15.666   2.909  0.00  0.00     0.122 C 
BRANCH  36  37
HETATM   37  C   UNK N   1      28.527  16.719   3.228  0.00  0.00     0.020 C 
BRANCH  37  38
HETATM   38  C   UNK N   1      27.253  16.058   3.719  0.00  0.00     0.003 C 
BRANCH  38  39
HETATM   39  C   UNK N   1      26.217  16.035   2.612  0.00  0.00     0.022 C 
BRANCH  39  40
HETATM   40  C   UNK N   1      25.308  14.820   2.787  0.00  0.00     0.159 C 
BRANCH  40  41
HETATM   41  N   UNK N   1      24.174  14.689   1.879  0.00  0.00    -0.229 N 
HETATM   42  C   UNK N   1      22.867  14.907   2.224  0.00  0.00     0.239 C 
HETATM   43  O   UNK N   1      22.547  15.227   3.357  0.00  0.00    -0.272 OA
HETATM   44  C   UNK N   1      21.791  14.767   1.197  0.00  0.00     0.119 C 
BRANCH  41  45
HETATM   45  O   UNK N   1      24.454  14.355   0.611  0.00  0.00    -0.285 OA
HETATM   46  H   UNK N   1      24.808  15.020   0.001  0.00  0.00     0.245 HD
ENDBRANCH  41  45
ENDBRANCH  40  41
ENDBRANCH  39  40
ENDBRANCH  38  39
ENDBRANCH  37  38
ENDBRANCH  36  37
ENDBRANCH  34  36
ENDBRANCH  31  32
ENDBRANCH  30  31
ENDBRANCH  26  30
ENDBRANCH  24  25
ENDBRANCH   1  24
TORSDOF 27
ENDMDL
MODEL 4
REMARK VINA RESULT:      -6.0      2.172      4.226
REMARK  27 active torsions:
REMARK  status: ('A' for Active; 'I' for Inactive)
REMARK    1  A    between atoms: O_1  and  N_9 
REMARK    2  A    between atoms: O_2  and  N_12 
REMARK    3  A    between atoms: O_6  and  N_13 
REMARK    4  A    between atoms: N_9  and  C_19 
REMARK       I    between atoms: N_9  and  C_33 
REMARK    5  A    between atoms: N_10  and  C_21 
REMARK       I    between atoms: N_10  and  C_34 
REMARK    6  A    between atoms: N_11  and  C_25 
REMARK       I    between atoms: N_11  and  C_35 
REMARK    7  A    between atoms: N_12  and  C_26 
REMARK       I    between atoms: N_12  and  C_37 
REMARK    8  A    between atoms: N_13  and  C_28 
REMARK       I    between atoms: N_13  and  C_38 
REMARK    9  A    between atoms: N_14  and  C_36 
REMARK   10  A    between atoms: C_15  and  C_16 
REMARK   11  A    between atoms: C_15  and  C_17 
REMARK   12  A    between atoms: C_16  and  C_19 
REMARK   13  A    between atoms: C_17  and  C_21 
REMARK   14  A    between atoms: C_18  and  C_20 
REMARK   15  A    between atoms: C_18  and  C_22 
REMARK   16  A    between atoms: C_20  and  C_25 
REMARK   17  A    between atoms: C_22  and  C_28 
REMARK   18  A    between atoms: C_23  and  C_24 
REMARK   19  A    between atoms: C_23  and  C_26 
REMARK   20  A    between atoms: C_24  and  C_27 
REMARK   21  A    between atoms: C_27  and  C_36 
REMARK   22  A    between atoms: C_29  and  C_30 
REMARK   23  A    between atoms: C_29  and  C_33 
REMARK   24  A    between atoms: C_30  and  C_35 
REMARK   25  A    between atoms: C_31  and  C_32 
REMARK   26  A    between atoms: C_31  and  C_34 
REMARK   27  A    between atoms: C_32  and  C_37 
ROOT
HETATM    1  C   UNK N   1      22.004  13.532   9.993  0.00  0.00     0.022 C 
ENDROOT
BRANCH   1   2
HETATM    2  C   UNK N   1      20.839  14.050   9.135  0.00  0.00     0.003 C 
BRANCH   2   3
HETATM    3  C   UNK N   1      20.945  15.517   8.696  0.00  0.00     0.020 C 
BRANCH   3   4
HETATM    4  C   UNK N   1      19.757  15.984   7.867  0.00  0.00     0.122 C 
BRANCH   4   5
HETATM    5  N   UNK N   1      20.105  16.008   6.471  0.00  0.00    -0.361 N 
HETATM    6  C   UNK N   1      19.158  15.963   5.501  0.00  0.00     0.217 C 
HETATM    7  O   UNK N   1      17.973  15.908   5.793  0.00  0.00    -0.274 OA
HETATM    8  H   UNK N   1      21.054  16.058   6.213  0.00  0.00     0.162 HD
BRANCH   6   9
HETATM    9  C   UNK N   1      19.543  15.988   4.059  0.00  0.00     0.112 C 
BRANCH   9  10
HETATM   10  C   UNK N   1      19.797  17.392   3.534  0.00  0.00     0.114 C 
BRANCH  10  11
HETATM   11  C   UNK N   1      21.263  17.685   3.539  0.00  0.00     0.243 C 
HETATM   12  O   UNK N   1      22.042  16.800   3.216  0.00  0.00    -0.271 OA
HETATM   13  N   UNK N   1      21.729  18.908   3.916  0.00  0.00    -0.229 N 
BRANCH  13  14
HETATM   14  O   UNK N   1      20.866  19.872   4.279  0.00  0.00    -0.285 OA
HETATM   15  H   UNK N   1      20.193  19.748   4.967  0.00  0.00     0.245 HD
ENDBRANCH  13  14
BRANCH  13  16
HETATM   16  C   UNK N   1      23.154  19.157   3.950  0.00  0.00     0.159 C 
BRANCH  16  17
HETATM   17  C   UNK N   1      23.570  20.274   3.013  0.00  0.00     0.022 C 
BRANCH  17  18
HETATM   18  C   UNK N   1      25.080  20.293   2.979  0.00  0.00     0.003 C 
BRANCH  18  19
HETATM   19  C   UNK N   1      25.646  19.252   3.915  0.00  0.00     0.019 C 
BRANCH  19  20
HETATM   20  C   UNK N   1      27.005  19.727   4.383  0.00  0.00     0.111 C 
BRANCH  20  21
HETATM   21  N   UNK N   1      28.035  18.863   3.842  0.00  0.00    -0.430 N 
HETATM   22  H   UNK N   1      28.962  18.846   4.268  0.00  0.00     0.149 HD
HETATM   23  H   UNK N   1      27.835  18.273   3.035  0.00  0.00     0.149 HD
ENDBRANCH  20  21
ENDBRANCH  19  20
ENDBRANCH  18  19
ENDBRANCH  17  18
ENDBRANCH  16  17
ENDBRANCH  13  16
ENDBRANCH  10  11
ENDBRANCH   9  10
ENDBRANCH   6   9
ENDBRANCH   4   5
ENDBRANCH   3   4
ENDBRANCH   2   3
ENDBRANCH   1   2
BRANCH   1  24
HETATM   24  C   UNK N   1      22.968  12.605   9.249  0.00  0.00     0.159 C 
BRANCH  24  25
HETATM   25  N   UNK N   1      24.186  13.299   8.910  0.00  0.00    -0.229 N 
HETATM   26  C   UNK N   1      24.435  13.677   7.618  0.00  0.00     0.243 C 
HETATM   27  O   UNK N   1      23.588  13.479   6.759  0.00  0.00    -0.271 OA
BRANCH  25  28
HETATM   28  O   UNK N   1      25.057  13.554   9.895  0.00  0.00    -0.285 OA
HETATM   29  H   UNK N   1      24.799  13.529  10.830  0.00  0.00     0.245 HD
ENDBRANCH  25  28
BRANCH  26  30
HETATM   30  C   UNK N   1      25.718  14.340   7.177  0.00  0.00     0.114 C 
BRANCH  30  31
HETATM   31  C   UNK N   1      25.617  15.729   6.556  0.00  0.00     0.112 C 
BRANCH  31  32
HETATM   32  C   UNK N   1      26.957  16.382   6.433  0.00  0.00     0.217 C 
HETATM   33  O   UNK N   1      27.659  16.133   5.464  0.00  0.00    -0.274 OA
HETATM   34  N   UNK N   1      27.377  17.253   7.382  0.00  0.00    -0.361 N 
HETATM   35  H   UNK N   1      26.804  17.409   8.166  0.00  0.00     0.162 HD
BRANCH  34  36
HETATM   36  C   UNK N   1      28.624  17.956   7.286  0.00  0.00     0.122 C 
BRANCH  36  37
HETATM   37  C   UNK N   1      28.984  18.445   8.668  0.00  0.00     0.020 C 
BRANCH  37  38
HETATM   38  C   UNK N   1      30.479  18.315   8.889  0.00  0.00     0.003 C 
BRANCH  38  39
HETATM   39  C   UNK N   1      30.927  16.893   8.606  0.00  0.00     0.022 C 
BRANCH  39  40
HETATM   40  C   UNK N   1      32.431  16.873   8.344  0.00  0.00     0.159 C 
BRANCH  40  41
HETATM   41  N   UNK N   1      32.897  17.353   7.048  0.00  0.00    -0.229 N 
HETATM   42  C   UNK N   1      32.339  17.015   5.843  0.00  0.00     0.239 C 
HETATM   43  O   UNK N   1      31.388  16.254   5.768  0.00  0.00    -0.272 OA
HETATM   44  C   UNK N   1      32.888  17.592   4.579  0.00  0.00     0.119 C 
BRANCH  41  45
HETATM   45  O   UNK N   1      33.930  18.207   7.057  0.00  0.00    -0.285 OA
HETATM   46  H   UNK N   1      34.288  18.545   6.222  0.00  0.00     0.245 HD
ENDBRANCH  41  45
ENDBRANCH  40  41
ENDBRANCH  39  40
ENDBRANCH  38  39
ENDBRANCH  37  38
ENDBRANCH  36  37
ENDBRANCH  34  36
ENDBRANCH  31  32
ENDBRANCH  30  31
ENDBRANCH  26  30
ENDBRANCH  24  25
ENDBRANCH   1  24
TORSDOF 27
ENDMDL
MODEL 5
REMARK VINA RESULT:      -5.8      2.030      9.953
REMARK  27 active torsions:
REMARK  status: ('A' for Active; 'I' for Inactive)
REMARK    1  A    between atoms: O_1  and  N_9 
REMARK    2  A    between atoms: O_2  and  N_12 
REMARK    3  A    between atoms: O_6  and  N_13 
REMARK    4  A    between atoms: N_9  and  C_19 
REMARK       I    between atoms: N_9  and  C_33 
REMARK    5  A    between atoms: N_10  and  C_21 
REMARK       I    between atoms: N_10  and  C_34 
REMARK    6  A    between atoms: N_11  and  C_25 
REMARK       I    between atoms: N_11  and  C_35 
REMARK    7  A    between atoms: N_12  and  C_26 
REMARK       I    between atoms: N_12  and  C_37 
REMARK    8  A    between atoms: N_13  and  C_28 
REMARK       I    between atoms: N_13  and  C_38 
REMARK    9  A    between atoms: N_14  and  C_36 
REMARK   10  A    between atoms: C_15  and  C_16 
REMARK   11  A    between atoms: C_15  and  C_17 
REMARK   12  A    between atoms: C_16  and  C_19 
REMARK   13  A    between atoms: C_17  and  C_21 
REMARK   14  A    between atoms: C_18  and  C_20 
REMARK   15  A    between atoms: C_18  and  C_22 
REMARK   16  A    between atoms: C_20  and  C_25 
REMARK   17  A    between atoms: C_22  and  C_28 
REMARK   18  A    between atoms: C_23  and  C_24 
REMARK   19  A    between atoms: C_23  and  C_26 
REMARK   20  A    between atoms: C_24  and  C_27 
REMARK   21  A    between atoms: C_27  and  C_36 
REMARK   22  A    between atoms: C_29  and  C_30 
REMARK   23  A    between atoms: C_29  and  C_33 
REMARK   24  A    between atoms: C_30  and  C_35 
REMARK   25  A    between atoms: C_31  and  C_32 
REMARK   26  A    between atoms: C_31  and  C_34 
REMARK   27  A    between atoms: C_32  and  C_37 
ROOT
HETATM    1  C   UNK N   1      24.424  14.105   6.108  0.00  0.00     0.022 C 
ENDROOT
BRANCH   1   2
HETATM    2  C   UNK N   1      24.935  15.545   6.275  0.00  0.00     0.003 C 
BRANCH   2   3
HETATM    3  C   UNK N   1      24.466  16.541   5.205  0.00  0.00     0.020 C 
BRANCH   3   4
HETATM    4  C   UNK N   1      25.579  17.445   4.696  0.00  0.00     0.122 C 
BRANCH   4   5
HETATM    5  N   UNK N   1      26.464  17.799   5.774  0.00  0.00    -0.361 N 
HETATM    6  C   UNK N   1      27.053  19.018   5.840  0.00  0.00     0.217 C 
HETATM    7  O   UNK N   1      26.839  19.858   4.979  0.00  0.00    -0.274 OA
HETATM    8  H   UNK N   1      26.646  17.139   6.482  0.00  0.00     0.162 HD
BRANCH   6   9
HETATM    9  C   UNK N   1      27.968  19.362   6.968  0.00  0.00     0.112 C 
BRANCH   9  10
HETATM   10  C   UNK N   1      28.220  18.194   7.908  0.00  0.00     0.114 C 
BRANCH  10  11
HETATM   11  C   UNK N   1      29.485  17.492   7.527  0.00  0.00     0.243 C 
HETATM   12  O   UNK N   1      29.504  16.828   6.501  0.00  0.00    -0.271 OA
HETATM   13  N   UNK N   1      30.591  17.572   8.316  0.00  0.00    -0.229 N 
BRANCH  13  14
HETATM   14  O   UNK N   1      30.558  18.296   9.448  0.00  0.00    -0.285 OA
HETATM   15  H   UNK N   1      31.326  18.400  10.033  0.00  0.00     0.245 HD
ENDBRANCH  13  14
BRANCH  13  16
HETATM   16  C   UNK N   1      31.792  16.853   7.948  0.00  0.00     0.159 C 
BRANCH  16  17
HETATM   17  C   UNK N   1      33.027  17.732   7.984  0.00  0.00     0.022 C 
BRANCH  17  18
HETATM   18  C   UNK N   1      33.634  17.708   6.601  0.00  0.00     0.003 C 
BRANCH  18  19
HETATM   19  C   UNK N   1      32.807  16.854   5.671  0.00  0.00     0.019 C 
BRANCH  19  20
HETATM   20  C   UNK N   1      32.579  17.632   4.392  0.00  0.00     0.111 C 
BRANCH  20  21
HETATM   21  N   UNK N   1      31.232  17.395   3.912  0.00  0.00    -0.430 N 
HETATM   22  H   UNK N   1      30.509  17.075   4.556  0.00  0.00     0.149 HD
HETATM   23  H   UNK N   1      31.007  17.549   2.930  0.00  0.00     0.149 HD
ENDBRANCH  20  21
ENDBRANCH  19  20
ENDBRANCH  18  19
ENDBRANCH  17  18
ENDBRANCH  16  17
ENDBRANCH  13  16
ENDBRANCH  10  11
ENDBRANCH   9  10
ENDBRANCH   6   9
ENDBRANCH   4   5
ENDBRANCH   3   4
ENDBRANCH   2   3
ENDBRANCH   1   2
BRANCH   1  24
HETATM   24  C   UNK N   1      25.148  13.077   6.980  0.00  0.00     0.159 C 
BRANCH  24  25
HETATM   25  N   UNK N   1      24.203  12.270   7.711  0.00  0.00    -0.229 N 
HETATM   26  C   UNK N   1      24.037  12.441   9.059  0.00  0.00     0.243 C 
HETATM   27  O   UNK N   1      24.651  13.329   9.632  0.00  0.00    -0.271 OA
BRANCH  25  28
HETATM   28  O   UNK N   1      23.504  11.353   7.029  0.00  0.00    -0.285 OA
HETATM   29  H   UNK N   1      23.178  10.540   7.446  0.00  0.00     0.245 HD
ENDBRANCH  25  28
BRANCH  26  30
HETATM   30  C   UNK N   1      23.122  11.584   9.901  0.00  0.00     0.114 C 
BRANCH  30  31
HETATM   31  C   UNK N   1      22.278  12.284  10.961  0.00  0.00     0.112 C 
BRANCH  31  32
HETATM   32  C   UNK N   1      21.216  13.142  10.349  0.00  0.00     0.217 C 
HETATM   33  O   UNK N   1      20.041  12.857  10.524  0.00  0.00    -0.274 OA
HETATM   34  N   UNK N   1      21.560  14.231   9.622  0.00  0.00    -0.361 N 
HETATM   35  H   UNK N   1      22.515  14.417   9.472  0.00  0.00     0.162 HD
BRANCH  34  36
HETATM   36  C   UNK N   1      20.586  15.125   9.063  0.00  0.00     0.122 C 
BRANCH  36  37
HETATM   37  C   UNK N   1      20.965  15.377   7.624  0.00  0.00     0.020 C 
BRANCH  37  38
HETATM   38  C   UNK N   1      20.607  14.170   6.778  0.00  0.00     0.003 C 
BRANCH  38  39
HETATM   39  C   UNK N   1      20.811  14.484   5.308  0.00  0.00     0.022 C 
BRANCH  39  40
HETATM   40  C   UNK N   1      20.719  15.993   5.090  0.00  0.00     0.159 C 
BRANCH  40  41
HETATM   41  N   UNK N   1      20.213  16.459   3.804  0.00  0.00    -0.229 N 
HETATM   42  C   UNK N   1      20.865  16.317   2.608  0.00  0.00     0.239 C 
HETATM   43  O   UNK N   1      21.960  15.781   2.535  0.00  0.00    -0.272 OA
HETATM   44  C   UNK N   1      20.233  16.813   1.349  0.00  0.00     0.119 C 
BRANCH  41  45
HETATM   45  O   UNK N   1      19.006  17.044   3.808  0.00  0.00    -0.285 OA
HETATM   46  H   UNK N   1      18.910  17.959   3.501  0.00  0.00     0.245 HD
ENDBRANCH  41  45
ENDBRANCH  40  41
ENDBRANCH  39  40
ENDBRANCH  38  39
ENDBRANCH  37  38
ENDBRANCH  36  37
ENDBRANCH  34  36
ENDBRANCH  31  32
ENDBRANCH  30  31
ENDBRANCH  26  30
ENDBRANCH  24  25
ENDBRANCH   1  24
TORSDOF 27
ENDMDL
MODEL 6
REMARK VINA RESULT:      -5.8      4.456      8.016
REMARK  27 active torsions:
REMARK  status: ('A' for Active; 'I' for Inactive)
REMARK    1  A    between atoms: O_1  and  N_9 
REMARK    2  A    between atoms: O_2  and  N_12 
REMARK    3  A    between atoms: O_6  and  N_13 
REMARK    4  A    between atoms: N_9  and  C_19 
REMARK       I    between atoms: N_9  and  C_33 
REMARK    5  A    between atoms: N_10  and  C_21 
REMARK       I    between atoms: N_10  and  C_34 
REMARK    6  A    between atoms: N_11  and  C_25 
REMARK       I    between atoms: N_11  and  C_35 
REMARK    7  A    between atoms: N_12  and  C_26 
REMARK       I    between atoms: N_12  and  C_37 
REMARK    8  A    between atoms: N_13  and  C_28 
REMARK       I    between atoms: N_13  and  C_38 
REMARK    9  A    between atoms: N_14  and  C_36 
REMARK   10  A    between atoms: C_15  and  C_16 
REMARK   11  A    between atoms: C_15  and  C_17 
REMARK   12  A    between atoms: C_16  and  C_19 
REMARK   13  A    between atoms: C_17  and  C_21 
REMARK   14  A    between atoms: C_18  and  C_20 
REMARK   15  A    between atoms: C_18  and  C_22 
REMARK   16  A    between atoms: C_20  and  C_25 
REMARK   17  A    between atoms: C_22  and  C_28 
REMARK   18  A    between atoms: C_23  and  C_24 
REMARK   19  A    between atoms: C_23  and  C_26 
REMARK   20  A    between atoms: C_24  and  C_27 
REMARK   21  A    between atoms: C_27  and  C_36 
REMARK   22  A    between atoms: C_29  and  C_30 
REMARK   23  A    between atoms: C_29  and  C_33 
REMARK   24  A    between atoms: C_30  and  C_35 
REMARK   25  A    between atoms: C_31  and  C_32 
REMARK   26  A    between atoms: C_31  and  C_34 
REMARK   27  A    between atoms: C_32  and  C_37 
ROOT
HETATM    1  C   UNK N   1      28.117  15.405   3.398  0.00  0.00     0.022 C 
ENDROOT
BRANCH   1   2
HETATM    2  C   UNK N   1      27.134  14.853   4.443  0.00  0.00     0.003 C 
BRANCH   2   3
HETATM    3  C   UNK N   1      25.896  15.721   4.709  0.00  0.00     0.020 C 
BRANCH   3   4
HETATM    4  C   UNK N   1      25.240  16.239   3.438  0.00  0.00     0.122 C 
BRANCH   4   5
HETATM    5  N   UNK N   1      25.380  17.669   3.354  0.00  0.00    -0.361 N 
HETATM    6  C   UNK N   1      24.381  18.504   3.734  0.00  0.00     0.217 C 
HETATM    7  O   UNK N   1      23.330  18.058   4.167  0.00  0.00    -0.274 OA
HETATM    8  H   UNK N   1      26.221  18.050   3.013  0.00  0.00     0.162 HD
BRANCH   6   9
HETATM    9  C   UNK N   1      24.549  19.984   3.638  0.00  0.00     0.112 C 
BRANCH   9  10
HETATM   10  C   UNK N   1      26.006  20.420   3.628  0.00  0.00     0.114 C 
BRANCH  10  11
HETATM   11  C   UNK N   1      26.663  20.043   4.917  0.00  0.00     0.243 C 
HETATM   12  O   UNK N   1      26.230  20.513   5.959  0.00  0.00    -0.271 OA
HETATM   13  N   UNK N   1      27.739  19.208   4.933  0.00  0.00    -0.229 N 
BRANCH  13  14
HETATM   14  O   UNK N   1      28.215  18.705   3.782  0.00  0.00    -0.285 OA
HETATM   15  H   UNK N   1      27.673  18.187   3.166  0.00  0.00     0.245 HD
ENDBRANCH  13  14
BRANCH  13  16
HETATM   16  C   UNK N   1      28.383  18.888   6.189  0.00  0.00     0.159 C 
BRANCH  16  17
HETATM   17  C   UNK N   1      29.164  17.589   6.125  0.00  0.00     0.022 C 
BRANCH  17  18
HETATM   18  C   UNK N   1      29.758  17.356   7.494  0.00  0.00     0.003 C 
BRANCH  18  19
HETATM   19  C   UNK N   1      28.695  17.465   8.561  0.00  0.00     0.019 C 
BRANCH  19  20
HETATM   20  C   UNK N   1      29.241  18.319   9.686  0.00  0.00     0.111 C 
BRANCH  20  21
HETATM   21  N   UNK N   1      30.654  18.563   9.471  0.00  0.00    -0.430 N 
HETATM   22  H   UNK N   1      31.349  18.030   9.993  0.00  0.00     0.149 HD
HETATM   23  H   UNK N   1      30.953  19.267   8.797  0.00  0.00     0.149 HD
ENDBRANCH  20  21
ENDBRANCH  19  20
ENDBRANCH  18  19
ENDBRANCH  17  18
ENDBRANCH  16  17
ENDBRANCH  13  16
ENDBRANCH  10  11
ENDBRANCH   9  10
ENDBRANCH   6   9
ENDBRANCH   4   5
ENDBRANCH   3   4
ENDBRANCH   2   3
ENDBRANCH   1   2
BRANCH   1  24
HETATM   24  C   UNK N   1      29.509  14.771   3.450  0.00  0.00     0.159 C 
BRANCH  24  25
HETATM   25  N   UNK N   1      30.533  15.773   3.288  0.00  0.00    -0.229 N 
HETATM   26  C   UNK N   1      31.773  15.596   3.841  0.00  0.00     0.243 C 
HETATM   27  O   UNK N   1      32.029  14.551   4.423  0.00  0.00    -0.271 OA
BRANCH  25  28
HETATM   28  O   UNK N   1      30.229  16.873   2.587  0.00  0.00    -0.285 OA
HETATM   29  H   UNK N   1      29.533  17.487   2.868  0.00  0.00     0.245 HD
ENDBRANCH  25  28
BRANCH  26  30
HETATM   30  C   UNK N   1      32.870  16.632   3.776  0.00  0.00     0.114 C 
BRANCH  30  31
HETATM   31  C   UNK N   1      32.897  17.698   4.866  0.00  0.00     0.112 C 
BRANCH  31  32
HETATM   32  C   UNK N   1      33.780  17.304   6.008  0.00  0.00     0.217 C 
HETATM   33  O   UNK N   1      34.681  16.502   5.819  0.00  0.00    -0.274 OA
HETATM   34  N   UNK N   1      33.587  17.848   7.233  0.00  0.00    -0.361 N 
HETATM   35  H   UNK N   1      32.833  18.467   7.361  0.00  0.00     0.162 HD
BRANCH  34  36
HETATM   36  C   UNK N   1      34.439  17.556   8.349  0.00  0.00     0.122 C 
BRANCH  36  37
HETATM   37  C   UNK N   1      33.736  16.535   9.211  0.00  0.00     0.020 C 
BRANCH  37  38
HETATM   38  C   UNK N   1      34.719  15.471   9.656  0.00  0.00     0.003 C 
BRANCH  38  39
HETATM   39  C   UNK N   1      35.368  15.874  10.967  0.00  0.00     0.022 C 
BRANCH  39  40
HETATM   40  C   UNK N   1      36.190  14.708  11.512  0.00  0.00     0.159 C 
BRANCH  40  41
HETATM   41  N   UNK N   1      36.085  14.416  12.936  0.00  0.00    -0.229 N 
HETATM   42  C   UNK N   1      35.311  13.424  13.476  0.00  0.00     0.239 C 
HETATM   43  O   UNK N   1      34.622  12.696  12.778  0.00  0.00    -0.272 OA
HETATM   44  C   UNK N   1      35.304  13.202  14.954  0.00  0.00     0.119 C 
BRANCH  41  45
HETATM   45  O   UNK N   1      36.828  15.167  13.762  0.00  0.00    -0.285 OA
HETATM   46  H   UNK N   1      37.278  15.957  13.426  0.00  0.00     0.245 HD
ENDBRANCH  41  45
ENDBRANCH  40  41
ENDBRANCH  39  40
ENDBRANCH  38  39
ENDBRANCH  37  38
ENDBRANCH  36  37
ENDBRANCH  34  36
ENDBRANCH  31  32
ENDBRANCH  30  31
ENDBRANCH  26  30
ENDBRANCH  24  25
ENDBRANCH   1  24
TORSDOF 27
ENDMDL
MODEL 7
REMARK VINA RESULT:      -5.8      2.919      5.655
REMARK  27 active torsions:
REMARK  status: ('A' for Active; 'I' for Inactive)
REMARK    1  A    between atoms: O_1  and  N_9 
REMARK    2  A    between atoms: O_2  and  N_12 
REMARK    3  A    between atoms: O_6  and  N_13 
REMARK    4  A    between atoms: N_9  and  C_19 
REMARK       I    between atoms: N_9  and  C_33 
REMARK    5  A    between atoms: N_10  and  C_21 
REMARK       I    between atoms: N_10  and  C_34 
REMARK    6  A    between atoms: N_11  and  C_25 
REMARK       I    between atoms: N_11  and  C_35 
REMARK    7  A    between atoms: N_12  and  C_26 
REMARK       I    between atoms: N_12  and  C_37 
REMARK    8  A    between atoms: N_13  and  C_28 
REMARK       I    between atoms: N_13  and  C_38 
REMARK    9  A    between atoms: N_14  and  C_36 
REMARK   10  A    between atoms: C_15  and  C_16 
REMARK   11  A    between atoms: C_15  and  C_17 
REMARK   12  A    between atoms: C_16  and  C_19 
REMARK   13  A    between atoms: C_17  and  C_21 
REMARK   14  A    between atoms: C_18  and  C_20 
REMARK   15  A    between atoms: C_18  and  C_22 
REMARK   16  A    between atoms: C_20  and  C_25 
REMARK   17  A    between atoms: C_22  and  C_28 
REMARK   18  A    between atoms: C_23  and  C_24 
REMARK   19  A    between atoms: C_23  and  C_26 
REMARK   20  A    between atoms: C_24  and  C_27 
REMARK   21  A    between atoms: C_27  and  C_36 
REMARK   22  A    between atoms: C_29  and  C_30 
REMARK   23  A    between atoms: C_29  and  C_33 
REMARK   24  A    between atoms: C_30  and  C_35 
REMARK   25  A    between atoms: C_31  and  C_32 
REMARK   26  A    between atoms: C_31  and  C_34 
REMARK   27  A    between atoms: C_32  and  C_37 
ROOT
HETATM    1  C   UNK N   1      22.315  17.365   3.812  0.00  0.00     0.022 C 
ENDROOT
BRANCH   1   2
HETATM    2  C   UNK N   1      21.586  18.639   3.358  0.00  0.00     0.003 C 
BRANCH   2   3
HETATM    3  C   UNK N   1      20.159  18.432   2.832  0.00  0.00     0.020 C 
BRANCH   3   4
HETATM    4  C   UNK N   1      20.100  18.178   1.333  0.00  0.00     0.122 C 
BRANCH   4   5
HETATM    5  N   UNK N   1      19.282  17.027   1.057  0.00  0.00    -0.361 N 
HETATM    6  C   UNK N   1      19.823  15.849   0.658  0.00  0.00     0.217 C 
HETATM    7  O   UNK N   1      21.032  15.734   0.529  0.00  0.00    -0.274 OA
HETATM    8  H   UNK N   1      18.305  17.096   1.159  0.00  0.00     0.162 HD
BRANCH   6   9
HETATM    9  C   UNK N   1      18.954  14.669   0.376  0.00  0.00     0.112 C 
BRANCH   9  10
HETATM   10  C   UNK N   1      19.541  13.361   0.885  0.00  0.00     0.114 C 
BRANCH  10  11
HETATM   11  C   UNK N   1      19.349  13.253   2.364  0.00  0.00     0.243 C 
HETATM   12  O   UNK N   1      18.233  12.998   2.797  0.00  0.00    -0.271 OA
HETATM   13  N   UNK N   1      20.389  13.454   3.219  0.00  0.00    -0.229 N 
BRANCH  13  14
HETATM   14  O   UNK N   1      21.609  13.743   2.736  0.00  0.00    -0.285 OA
HETATM   15  H   UNK N   1      21.901  13.485   1.847  0.00  0.00     0.245 HD
ENDBRANCH  13  14
BRANCH  13  16
HETATM   16  C   UNK N   1      20.171  13.382   4.648  0.00  0.00     0.159 C 
BRANCH  16  17
HETATM   17  C   UNK N   1      20.274  14.738   5.319  0.00  0.00     0.022 C 
BRANCH  17  18
HETATM   18  C   UNK N   1      20.402  14.494   6.804  0.00  0.00     0.003 C 
BRANCH  18  19
HETATM   19  C   UNK N   1      21.238  15.573   7.450  0.00  0.00     0.019 C 
BRANCH  19  20
HETATM   20  C   UNK N   1      20.483  16.881   7.345  0.00  0.00     0.111 C 
BRANCH  20  21
HETATM   21  N   UNK N   1      20.097  17.328   8.669  0.00  0.00    -0.430 N 
HETATM   22  H   UNK N   1      19.184  17.076   9.047  0.00  0.00     0.149 HD
HETATM   23  H   UNK N   1      20.738  17.896   9.222  0.00  0.00     0.149 HD
ENDBRANCH  20  21
ENDBRANCH  19  20
ENDBRANCH  18  19
ENDBRANCH  17  18
ENDBRANCH  16  17
ENDBRANCH  13  16
ENDBRANCH  10  11
ENDBRANCH   9  10
ENDBRANCH   6   9
ENDBRANCH   4   5
ENDBRANCH   3   4
ENDBRANCH   2   3
ENDBRANCH   1   2
BRANCH   1  24
HETATM   24  C   UNK N   1      23.841  17.464   3.761  0.00  0.00     0.159 C 
BRANCH  24  25
HETATM   25  N   UNK N   1      24.318  18.494   4.651  0.00  0.00    -0.229 N 
HETATM   26  C   UNK N   1      25.389  19.273   4.304  0.00  0.00     0.243 C 
HETATM   27  O   UNK N   1      25.903  19.132   3.204  0.00  0.00    -0.271 OA
BRANCH  25  28
HETATM   28  O   UNK N   1      23.682  18.655   5.819  0.00  0.00    -0.285 OA
HETATM   29  H   UNK N   1      22.714  18.654   5.883  0.00  0.00     0.245 HD
ENDBRANCH  25  28
BRANCH  26  30
HETATM   30  C   UNK N   1      25.988  20.318   5.214  0.00  0.00     0.114 C 
BRANCH  30  31
HETATM   31  C   UNK N   1      27.501  20.303   5.403  0.00  0.00     0.112 C 
BRANCH  31  32
HETATM   32  C   UNK N   1      27.956  19.094   6.158  0.00  0.00     0.217 C 
HETATM   33  O   UNK N   1      28.622  18.245   5.585  0.00  0.00    -0.274 OA
HETATM   34  N   UNK N   1      27.642  18.956   7.468  0.00  0.00    -0.361 N 
HETATM   35  H   UNK N   1      27.078  19.640   7.894  0.00  0.00     0.162 HD
BRANCH  34  36
HETATM   36  C   UNK N   1      28.102  17.850   8.259  0.00  0.00     0.122 C 
BRANCH  36  37
HETATM   37  C   UNK N   1      28.901  18.408   9.411  0.00  0.00     0.020 C 
BRANCH  37  38
HETATM   38  C   UNK N   1      30.374  18.436   9.052  0.00  0.00     0.003 C 
BRANCH  38  39
HETATM   39  C   UNK N   1      30.856  17.038   8.714  0.00  0.00     0.022 C 
BRANCH  39  40
HETATM   40  C   UNK N   1      32.176  17.123   7.951  0.00  0.00     0.159 C 
BRANCH  40  41
HETATM   41  N   UNK N   1      32.112  17.158   6.495  0.00  0.00    -0.229 N 
HETATM   42  C   UNK N   1      33.149  17.515   5.675  0.00  0.00     0.239 C 
HETATM   43  O   UNK N   1      34.234  17.852   6.122  0.00  0.00    -0.272 OA
HETATM   44  C   UNK N   1      32.972  17.488   4.192  0.00  0.00     0.119 C 
BRANCH  41  45
HETATM   45  O   UNK N   1      30.954  16.784   5.934  0.00  0.00    -0.285 OA
HETATM   46  H   UNK N   1      30.123  17.199   6.212  0.00  0.00     0.245 HD
ENDBRANCH  41  45
ENDBRANCH  40  41
ENDBRANCH  39  40
ENDBRANCH  38  39
ENDBRANCH  37  38
ENDBRANCH  36  37
ENDBRANCH  34  36
ENDBRANCH  31  32
ENDBRANCH  30  31
ENDBRANCH  26  30
ENDBRANCH  24  25
ENDBRANCH   1  24
TORSDOF 27
ENDMDL
MODEL 8
REMARK VINA RESULT:      -5.7      7.389     13.912
REMARK  27 active torsions:
REMARK  status: ('A' for Active; 'I' for Inactive)
REMARK    1  A    between atoms: O_1  and  N_9 
REMARK    2  A    between atoms: O_2  and  N_12 
REMARK    3  A    between atoms: O_6  and  N_13 
REMARK    4  A    between atoms: N_9  and  C_19 
REMARK       I    between atoms: N_9  and  C_33 
REMARK    5  A    between atoms: N_10  and  C_21 
REMARK       I    between atoms: N_10  and  C_34 
REMARK    6  A    between atoms: N_11  and  C_25 
REMARK       I    between atoms: N_11  and  C_35 
REMARK    7  A    between atoms: N_12  and  C_26 
REMARK       I    between atoms: N_12  and  C_37 
REMARK    8  A    between atoms: N_13  and  C_28 
REMARK       I    between atoms: N_13  and  C_38 
REMARK    9  A    between atoms: N_14  and  C_36 
REMARK   10  A    between atoms: C_15  and  C_16 
REMARK   11  A    between atoms: C_15  and  C_17 
REMARK   12  A    between atoms: C_16  and  C_19 
REMARK   13  A    between atoms: C_17  and  C_21 
REMARK   14  A    between atoms: C_18  and  C_20 
REMARK   15  A    between atoms: C_18  and  C_22 
REMARK   16  A    between atoms: C_20  and  C_25 
REMARK   17  A    between atoms: C_22  and  C_28 
REMARK   18  A    between atoms: C_23  and  C_24 
REMARK   19  A    between atoms: C_23  and  C_26 
REMARK   20  A    between atoms: C_24  and  C_27 
REMARK   21  A    between atoms: C_27  and  C_36 
REMARK   22  A    between atoms: C_29  and  C_30 
REMARK   23  A    between atoms: C_29  and  C_33 
REMARK   24  A    between atoms: C_30  and  C_35 
REMARK   25  A    between atoms: C_31  and  C_32 
REMARK   26  A    between atoms: C_31  and  C_34 
REMARK   27  A    between atoms: C_32  and  C_37 
ROOT
HETATM    1  C   UNK N   1      33.602  15.225   9.565  0.00  0.00     0.022 C 
ENDROOT
BRANCH   1   2
HETATM    2  C   UNK N   1      35.034  14.708   9.353  0.00  0.00     0.003 C 
BRANCH   2   3
HETATM    3  C   UNK N   1      36.126  15.450  10.135  0.00  0.00     0.020 C 
BRANCH   3   4
HETATM    4  C   UNK N   1      35.727  15.774  11.568  0.00  0.00     0.122 C 
BRANCH   4   5
HETATM    5  N   UNK N   1      36.418  14.905  12.484  0.00  0.00    -0.361 N 
HETATM    6  C   UNK N   1      35.801  13.843  13.057  0.00  0.00     0.217 C 
HETATM    7  O   UNK N   1      34.633  13.591  12.802  0.00  0.00    -0.274 OA
HETATM    8  H   UNK N   1      37.361  15.087  12.699  0.00  0.00     0.162 HD
BRANCH   6   9
HETATM    9  C   UNK N   1      36.538  12.955  14.005  0.00  0.00     0.112 C 
BRANCH   9  10
HETATM   10  C   UNK N   1      36.584  13.505  15.423  0.00  0.00     0.114 C 
BRANCH  10  11
HETATM   11  C   UNK N   1      35.699  12.696  16.316  0.00  0.00     0.243 C 
HETATM   12  O   UNK N   1      34.724  13.232  16.822  0.00  0.00    -0.271 OA
HETATM   13  N   UNK N   1      35.982  11.391  16.582  0.00  0.00    -0.229 N 
BRANCH  13  14
HETATM   14  O   UNK N   1      37.062  10.812  16.030  0.00  0.00    -0.285 OA
HETATM   15  H   UNK N   1      37.944  11.217  16.042  0.00  0.00     0.245 HD
ENDBRANCH  13  14
BRANCH  13  16
HETATM   16  C   UNK N   1      35.133  10.639  17.481  0.00  0.00     0.159 C 
BRANCH  16  17
HETATM   17  C   UNK N   1      35.872  10.169  18.719  0.00  0.00     0.022 C 
BRANCH  17  18
HETATM   18  C   UNK N   1      35.528  11.125  19.836  0.00  0.00     0.003 C 
BRANCH  18  19
HETATM   19  C   UNK N   1      34.453  10.544  20.722  0.00  0.00     0.019 C 
BRANCH  19  20
HETATM   20  C   UNK N   1      35.108   9.583  21.691  0.00  0.00     0.111 C 
BRANCH  20  21
HETATM   21  N   UNK N   1      34.225   8.460  21.935  0.00  0.00    -0.430 N 
HETATM   22  H   UNK N   1      33.631   8.104  21.185  0.00  0.00     0.149 HD
HETATM   23  H   UNK N   1      34.196   8.025  22.857  0.00  0.00     0.149 HD
ENDBRANCH  20  21
ENDBRANCH  19  20
ENDBRANCH  18  19
ENDBRANCH  17  18
ENDBRANCH  16  17
ENDBRANCH  13  16
ENDBRANCH  10  11
ENDBRANCH   9  10
ENDBRANCH   6   9
ENDBRANCH   4   5
ENDBRANCH   3   4
ENDBRANCH   2   3
ENDBRANCH   1   2
BRANCH   1  24
HETATM   24  C   UNK N   1      33.279  16.509   8.799  0.00  0.00     0.159 C 
BRANCH  24  25
HETATM   25  N   UNK N   1      33.161  16.247   7.386  0.00  0.00    -0.229 N 
HETATM   26  C   UNK N   1      33.828  17.023   6.476  0.00  0.00     0.243 C 
HETATM   27  O   UNK N   1      34.576  17.905   6.872  0.00  0.00    -0.271 OA
BRANCH  25  28
HETATM   28  O   UNK N   1      32.381  15.228   7.001  0.00  0.00    -0.285 OA
HETATM   29  H   UNK N   1      31.504  15.078   7.385  0.00  0.00     0.245 HD
ENDBRANCH  25  28
BRANCH  26  30
HETATM   30  C   UNK N   1      33.694  16.855   4.981  0.00  0.00     0.114 C 
BRANCH  30  31
HETATM   31  C   UNK N   1      32.690  17.747   4.259  0.00  0.00     0.112 C 
BRANCH  31  32
HETATM   32  C   UNK N   1      31.700  16.947   3.473  0.00  0.00     0.217 C 
HETATM   33  O   UNK N   1      32.101  16.134   2.653  0.00  0.00    -0.274 OA
HETATM   34  N   UNK N   1      30.373  17.115   3.684  0.00  0.00    -0.361 N 
HETATM   35  H   UNK N   1      30.079  17.799   4.327  0.00  0.00     0.162 HD
BRANCH  34  36
HETATM   36  C   UNK N   1      29.379  16.333   3.005  0.00  0.00     0.122 C 
BRANCH  36  37
HETATM   37  C   UNK N   1      28.035  16.683   3.598  0.00  0.00     0.020 C 
BRANCH  37  38
HETATM   38  C   UNK N   1      28.049  18.115   4.098  0.00  0.00     0.003 C 
BRANCH  38  39
HETATM   39  C   UNK N   1      27.321  18.211   5.425  0.00  0.00     0.022 C 
BRANCH  39  40
HETATM   40  C   UNK N   1      27.904  17.193   6.403  0.00  0.00     0.159 C 
BRANCH  40  41
HETATM   41  N   UNK N   1      29.041  17.612   7.214  0.00  0.00    -0.229 N 
HETATM   42  C   UNK N   1      28.950  18.156   8.468  0.00  0.00     0.239 C 
HETATM   43  O   UNK N   1      27.871  18.344   9.008  0.00  0.00    -0.272 OA
HETATM   44  C   UNK N   1      30.190  18.523   9.215  0.00  0.00     0.119 C 
BRANCH  41  45
HETATM   45  O   UNK N   1      30.260  17.419   6.689  0.00  0.00    -0.285 OA
HETATM   46  H   UNK N   1      30.430  17.645   5.762  0.00  0.00     0.245 HD
ENDBRANCH  41  45
ENDBRANCH  40  41
ENDBRANCH  39  40
ENDBRANCH  38  39
ENDBRANCH  37  38
ENDBRANCH  36  37
ENDBRANCH  34  36
ENDBRANCH  31  32
ENDBRANCH  30  31
ENDBRANCH  26  30
ENDBRANCH  24  25
ENDBRANCH   1  24
TORSDOF 27
ENDMDL
MODEL 9
REMARK VINA RESULT:      -5.7      4.405      6.489
REMARK  27 active torsions:
REMARK  status: ('A' for Active; 'I' for Inactive)
REMARK    1  A    between atoms: O_1  and  N_9 
REMARK    2  A    between atoms: O_2  and  N_12 
REMARK    3  A    between atoms: O_6  and  N_13 
REMARK    4  A    between atoms: N_9  and  C_19 
REMARK       I    between atoms: N_9  and  C_33 
REMARK    5  A    between atoms: N_10  and  C_21 
REMARK       I    between atoms: N_10  and  C_34 
REMARK    6  A    between atoms: N_11  and  C_25 
REMARK       I    between atoms: N_11  and  C_35 
REMARK    7  A    between atoms: N_12  and  C_26 
REMARK       I    between atoms: N_12  and  C_37 
REMARK    8  A    between atoms: N_13  and  C_28 
REMARK       I    between atoms: N_13  and  C_38 
REMARK    9  A    between atoms: N_14  and  C_36 
REMARK   10  A    between atoms: C_15  and  C_16 
REMARK   11  A    between atoms: C_15  and  C_17 
REMARK   12  A    between atoms: C_16  and  C_19 
REMARK   13  A    between atoms: C_17  and  C_21 
REMARK   14  A    between atoms: C_18  and  C_20 
REMARK   15  A    between atoms: C_18  and  C_22 
REMARK   16  A    between atoms: C_20  and  C_25 
REMARK   17  A    between atoms: C_22  and  C_28 
REMARK   18  A    between atoms: C_23  and  C_24 
REMARK   19  A    between atoms: C_23  and  C_26 
REMARK   20  A    between atoms: C_24  and  C_27 
REMARK   21  A    between atoms: C_27  and  C_36 
REMARK   22  A    between atoms: C_29  and  C_30 
REMARK   23  A    between atoms: C_29  and  C_33 
REMARK   24  A    between atoms: C_30  and  C_35 
REMARK   25  A    between atoms: C_31  and  C_32 
REMARK   26  A    between atoms: C_31  and  C_34 
REMARK   27  A    between atoms: C_32  and  C_37 
ROOT
HETATM    1  C   UNK N   1      23.981  12.367   7.710  0.00  0.00     0.022 C 
ENDROOT
BRANCH   1   2
HETATM    2  C   UNK N   1      24.016  12.861   9.165  0.00  0.00     0.003 C 
BRANCH   2   3
HETATM    3  C   UNK N   1      23.118  12.092  10.145  0.00  0.00     0.020 C 
BRANCH   3   4
HETATM    4  C   UNK N   1      21.876  12.868  10.558  0.00  0.00     0.122 C 
BRANCH   4   5
HETATM    5  N   UNK N   1      21.720  14.033   9.728  0.00  0.00    -0.361 N 
HETATM    6  C   UNK N   1      20.494  14.506   9.389  0.00  0.00     0.217 C 
HETATM    7  O   UNK N   1      19.483  13.951   9.790  0.00  0.00    -0.274 OA
HETATM    8  H   UNK N   1      22.522  14.500   9.398  0.00  0.00     0.162 HD
BRANCH   6   9
HETATM    9  C   UNK N   1      20.357  15.716   8.526  0.00  0.00     0.112 C 
BRANCH   9  10
HETATM   10  C   UNK N   1      21.527  15.905   7.574  0.00  0.00     0.114 C 
BRANCH  10  11
HETATM   11  C   UNK N   1      21.214  16.982   6.584  0.00  0.00     0.243 C 
HETATM   12  O   UNK N   1      21.007  18.115   6.992  0.00  0.00    -0.271 OA
HETATM   13  N   UNK N   1      21.140  16.705   5.253  0.00  0.00    -0.229 N 
BRANCH  13  14
HETATM   14  O   UNK N   1      21.360  15.454   4.814  0.00  0.00    -0.285 OA
HETATM   15  H   UNK N   1      21.204  15.179   3.897  0.00  0.00     0.245 HD
ENDBRANCH  13  14
BRANCH  13  16
HETATM   16  C   UNK N   1      20.798  17.754   4.317  0.00  0.00     0.159 C 
BRANCH  16  17
HETATM   17  C   UNK N   1      20.593  17.230   2.909  0.00  0.00     0.022 C 
BRANCH  17  18
HETATM   18  C   UNK N   1      20.082  18.380   2.073  0.00  0.00     0.003 C 
BRANCH  18  19
HETATM   19  C   UNK N   1      20.295  19.693   2.787  0.00  0.00     0.019 C 
BRANCH  19  20
HETATM   20  C   UNK N   1      21.087  20.604   1.874  0.00  0.00     0.111 C 
BRANCH  20  21
HETATM   21  N   UNK N   1      20.323  20.874   0.672  0.00  0.00    -0.430 N 
HETATM   22  H   UNK N   1      20.522  21.707   0.117  0.00  0.00     0.149 HD
HETATM   23  H   UNK N   1      19.587  20.232   0.381  0.00  0.00     0.149 HD
ENDBRANCH  20  21
ENDBRANCH  19  20
ENDBRANCH  18  19
ENDBRANCH  17  18
ENDBRANCH  16  17
ENDBRANCH  13  16
ENDBRANCH  10  11
ENDBRANCH   9  10
ENDBRANCH   6   9
ENDBRANCH   4   5
ENDBRANCH   3   4
ENDBRANCH   2   3
ENDBRANCH   1   2
BRANCH   1  24
HETATM   24  C   UNK N   1      23.168  11.088   7.501  0.00  0.00     0.159 C 
BRANCH  24  25
HETATM   25  N   UNK N   1      22.549  11.082   6.198  0.00  0.00    -0.229 N 
HETATM   26  C   UNK N   1      21.279  11.565   6.028  0.00  0.00     0.243 C 
HETATM   27  O   UNK N   1      20.692  12.061   6.979  0.00  0.00    -0.271 OA
BRANCH  25  28
HETATM   28  O   UNK N   1      23.255  10.589   5.172  0.00  0.00    -0.285 OA
HETATM   29  H   UNK N   1      24.000  11.071   4.781  0.00  0.00     0.245 HD
ENDBRANCH  25  28
BRANCH  26  30
HETATM   30  C   UNK N   1      20.542  11.523   4.711  0.00  0.00     0.114 C 
BRANCH  30  31
HETATM   31  C   UNK N   1      19.431  12.545   4.492  0.00  0.00     0.112 C 
BRANCH  31  32
HETATM   32  C   UNK N   1      19.491  13.146   3.124  0.00  0.00     0.217 C 
HETATM   33  O   UNK N   1      18.453  13.462   2.561  0.00  0.00    -0.274 OA
HETATM   34  N   UNK N   1      20.689  13.352   2.526  0.00  0.00    -0.361 N 
HETATM   35  H   UNK N   1      21.505  13.058   2.990  0.00  0.00     0.162 HD
BRANCH  34  36
HETATM   36  C   UNK N   1      20.812  13.980   1.241  0.00  0.00     0.122 C 
BRANCH  36  37
HETATM   37  C   UNK N   1      21.922  13.283   0.493  0.00  0.00     0.020 C 
BRANCH  37  38
HETATM   38  C   UNK N   1      23.154  13.185   1.371  0.00  0.00     0.003 C 
BRANCH  38  39
HETATM   39  C   UNK N   1      24.070  14.368   1.121  0.00  0.00     0.022 C 
BRANCH  39  40
HETATM   40  C   UNK N   1      25.133  14.433   2.216  0.00  0.00     0.159 C 
BRANCH  40  41
HETATM   41  N   UNK N   1      24.777  15.101   3.462  0.00  0.00    -0.229 N 
HETATM   42  C   UNK N   1      25.280  14.779   4.694  0.00  0.00     0.239 C 
HETATM   43  O   UNK N   1      26.082  13.870   4.841  0.00  0.00    -0.272 OA
HETATM   44  C   UNK N   1      24.859  15.555   5.899  0.00  0.00     0.119 C 
BRANCH  41  45
HETATM   45  O   UNK N   1      23.911  16.122   3.373  0.00  0.00    -0.285 OA
HETATM   46  H   UNK N   1      23.557  16.530   4.178  0.00  0.00     0.245 HD
ENDBRANCH  41  45
ENDBRANCH  40  41
ENDBRANCH  39  40
ENDBRANCH  38  39
ENDBRANCH  37  38
ENDBRANCH  36  37
ENDBRANCH  34  36
ENDBRANCH  31  32
ENDBRANCH  30  31
ENDBRANCH  26  30
ENDBRANCH  24  25
ENDBRANCH   1  24
TORSDOF 27
ENDMDL
