MODEL 1
REMARK VINA RESULT:      -6.5      0.000      0.000
REMARK  5 active torsions:
REMARK  status: ('A' for Active; 'I' for Inactive)
REMARK    1  A    between atoms: O_2  and  C_17 
REMARK    2  A    between atoms: C_5  and  C_9 
REMARK    3  A    between atoms: C_5  and  C_10 
REMARK    4  A    between atoms: C_10  and  C_17 
REMARK    5  A    between atoms: C_14  and  C_18 
ROOT
HETATM    1  O   UNK N   1      30.019  22.987  -5.865  0.00  0.00    -0.373 OA
HETATM    2  N   UNK N   1      28.192  25.457  -3.882  0.00  0.00    -0.355 N 
HETATM    3  C   UNK N   1      29.755  23.523  -4.568  0.00  0.00     0.112 C 
HETATM    4  C   UNK N   1      28.514  24.392  -4.658  0.00  0.00     0.052 A 
HETATM    5  C   UNK N   1      27.626  24.259  -5.702  0.00  0.00    -0.018 A 
HETATM    6  C   UNK N   1      27.753  23.212  -6.756  0.00  0.00     0.068 C 
HETATM    7  C   UNK N   1      26.718  25.272  -5.568  0.00  0.00    -0.001 A 
HETATM    8  C   UNK N   1      28.896  22.267  -6.355  0.00  0.00     0.174 C 
HETATM    9  C   UNK N   1      27.090  25.993  -4.461  0.00  0.00     0.049 A 
HETATM   10  C   UNK N   1      26.405  27.147  -4.075  0.00  0.00    -0.031 A 
HETATM   11  C   UNK N   1      25.628  25.632  -6.356  0.00  0.00     0.014 A 
HETATM   12  C   UNK N   1      25.294  27.537  -4.859  0.00  0.00     0.009 A 
HETATM   13  C   UNK N   1      24.905  26.778  -5.985  0.00  0.00     0.002 A 
HETATM   14  H   UNK N   1      28.658  25.772  -3.074  0.00  0.00     0.166 HD
ENDROOT
BRANCH   3  15
HETATM   15  C   UNK N   1      30.960  24.407  -4.196  0.00  0.00     0.040 C 
HETATM   16  C   UNK N   1      32.306  23.783  -4.557  0.00  0.00     0.008 C 
ENDBRANCH   3  15
BRANCH   3  17
HETATM   17  C   UNK N   1      29.614  22.391  -3.528  0.00  0.00     0.154 C 
BRANCH  17  18
HETATM   18  C   UNK N   1      29.387  22.927  -2.139  0.00  0.00     0.142 C 
HETATM   19  O   UNK N   1      30.333  23.125  -1.392  0.00  0.00    -0.650 OA
BRANCH  18  20
HETATM   20  O   UNK N   1      28.138  23.202  -1.721  0.00  0.00    -0.776 OA
HETATM   21  H   UNK N   1      27.401  22.965  -2.249  0.00  0.00     0.167 HD
ENDBRANCH  18  20
ENDBRANCH  17  18
ENDBRANCH   3  17
BRANCH  10  22
HETATM   22  C   UNK N   1      26.876  27.951  -2.894  0.00  0.00     0.036 C 
HETATM   23  C   UNK N   1      26.990  29.443  -3.176  0.00  0.00     0.010 C 
ENDBRANCH  10  22
TORSDOF 5
ENDMDL
MODEL 2
REMARK VINA RESULT:      -6.3     10.738     12.663
REMARK  5 active torsions:
REMARK  status: ('A' for Active; 'I' for Inactive)
REMARK    1  A    between atoms: O_2  and  C_17 
REMARK    2  A    between atoms: C_5  and  C_9 
REMARK    3  A    between atoms: C_5  and  C_10 
REMARK    4  A    between atoms: C_10  and  C_17 
REMARK    5  A    between atoms: C_14  and  C_18 
ROOT
HETATM    1  O   UNK N   1      32.238  15.443   4.937  0.00  0.00    -0.373 OA
HETATM    2  N   UNK N   1      29.696  18.067   4.776  0.00  0.00    -0.355 N 
HETATM    3  C   UNK N   1      31.903  16.804   5.210  0.00  0.00     0.112 C 
HETATM    4  C   UNK N   1      30.396  16.951   5.103  0.00  0.00     0.052 A 
HETATM    5  C   UNK N   1      29.566  15.856   5.184  0.00  0.00    -0.018 A 
HETATM    6  C   UNK N   1      30.056  14.478   5.473  0.00  0.00     0.068 C 
HETATM    7  C   UNK N   1      28.306  16.305   4.904  0.00  0.00    -0.001 A 
HETATM    8  C   UNK N   1      31.550  14.564   5.817  0.00  0.00     0.174 C 
HETATM    9  C   UNK N   1      28.412  17.650   4.648  0.00  0.00     0.049 A 
HETATM   10  C   UNK N   1      27.308  18.411   4.260  0.00  0.00    -0.031 A 
HETATM   11  C   UNK N   1      27.092  15.627   4.814  0.00  0.00     0.014 A 
HETATM   12  C   UNK N   1      26.063  17.747   4.160  0.00  0.00     0.009 A 
HETATM   13  C   UNK N   1      25.957  16.368   4.445  0.00  0.00     0.002 A 
HETATM   14  H   UNK N   1      30.044  18.979   4.657  0.00  0.00     0.166 HD
ENDROOT
BRANCH   3  15
HETATM   15  C   UNK N   1      32.568  17.657   4.113  0.00  0.00     0.040 C 
HETATM   16  C   UNK N   1      32.553  16.995   2.736  0.00  0.00     0.008 C 
ENDBRANCH   3  15
BRANCH   3  17
HETATM   17  C   UNK N   1      32.446  17.233   6.589  0.00  0.00     0.154 C 
BRANCH  17  18
HETATM   18  C   UNK N   1      33.951  17.299   6.605  0.00  0.00     0.142 C 
HETATM   19  O   UNK N   1      34.521  18.282   7.052  0.00  0.00    -0.650 OA
BRANCH  18  20
HETATM   20  O   UNK N   1      34.673  16.265   6.136  0.00  0.00    -0.776 OA
HETATM   21  H   UNK N   1      34.461  15.878   5.310  0.00  0.00     0.167 HD
ENDBRANCH  18  20
ENDBRANCH  17  18
ENDBRANCH   3  17
BRANCH  10  22
HETATM   22  C   UNK N   1      27.469  19.869   3.925  0.00  0.00     0.036 C 
HETATM   23  C   UNK N   1      27.113  20.803   5.072  0.00  0.00     0.010 C 
ENDBRANCH  10  22
TORSDOF 5
ENDMDL
MODEL 3
REMARK VINA RESULT:      -6.3      9.734     12.190
REMARK  5 active torsions:
REMARK  status: ('A' for Active; 'I' for Inactive)
REMARK    1  A    between atoms: O_2  and  C_17 
REMARK    2  A    between atoms: C_5  and  C_9 
REMARK    3  A    between atoms: C_5  and  C_10 
REMARK    4  A    between atoms: C_10  and  C_17 
REMARK    5  A    between atoms: C_14  and  C_18 
ROOT
HETATM    1  O   UNK N   1      30.359  15.811   5.751  0.00  0.00    -0.373 OA
HETATM    2  N   UNK N   1      28.623  18.610   4.163  0.00  0.00    -0.355 N 
HETATM    3  C   UNK N   1      30.275  16.684   4.623  0.00  0.00     0.112 C 
HETATM    4  C   UNK N   1      29.381  17.852   4.995  0.00  0.00     0.052 A 
HETATM    5  C   UNK N   1      29.127  18.165   6.311  0.00  0.00    -0.018 A 
HETATM    6  C   UNK N   1      29.769  17.460   7.458  0.00  0.00     0.068 C 
HETATM    7  C   UNK N   1      28.184  19.154   6.299  0.00  0.00    -0.001 A 
HETATM    8  C   UNK N   1      30.834  16.506   6.896  0.00  0.00     0.174 C 
HETATM    9  C   UNK N   1      27.885  19.400   4.981  0.00  0.00     0.049 A 
HETATM   10  C   UNK N   1      26.901  20.319   4.613  0.00  0.00    -0.031 A 
HETATM   11  C   UNK N   1      27.543  19.819   7.340  0.00  0.00     0.014 A 
HETATM   12  C   UNK N   1      26.233  21.008   5.651  0.00  0.00     0.009 A 
HETATM   13  C   UNK N   1      26.560  20.766   7.004  0.00  0.00     0.002 A 
HETATM   14  H   UNK N   1      28.611  18.591   3.179  0.00  0.00     0.166 HD
ENDROOT
BRANCH   3  15
HETATM   15  C   UNK N   1      29.609  15.884   3.489  0.00  0.00     0.040 C 
HETATM   16  C   UNK N   1      28.597  14.852   3.985  0.00  0.00     0.008 C 
ENDBRANCH   3  15
BRANCH   3  17
HETATM   17  C   UNK N   1      31.682  17.130   4.174  0.00  0.00     0.154 C 
BRANCH  17  18
HETATM   18  C   UNK N   1      32.490  15.981   3.629  0.00  0.00     0.142 C 
HETATM   19  O   UNK N   1      32.979  16.047   2.511  0.00  0.00    -0.650 OA
BRANCH  18  20
HETATM   20  O   UNK N   1      32.684  14.882   4.379  0.00  0.00    -0.776 OA
HETATM   21  H   UNK N   1      33.145  14.146   4.026  0.00  0.00     0.167 HD
ENDBRANCH  18  20
ENDBRANCH  17  18
ENDBRANCH   3  17
BRANCH  10  22
HETATM   22  C   UNK N   1      26.552  20.519   3.163  0.00  0.00     0.036 C 
HETATM   23  C   UNK N   1      25.061  20.418   2.873  0.00  0.00     0.010 C 
ENDBRANCH  10  22
TORSDOF 5
ENDMDL
MODEL 4
REMARK VINA RESULT:      -6.3     11.978     14.459
REMARK  5 active torsions:
REMARK  status: ('A' for Active; 'I' for Inactive)
REMARK    1  A    between atoms: O_2  and  C_17 
REMARK    2  A    between atoms: C_5  and  C_9 
REMARK    3  A    between atoms: C_5  and  C_10 
REMARK    4  A    between atoms: C_10  and  C_17 
REMARK    5  A    between atoms: C_14  and  C_18 
ROOT
HETATM    1  O   UNK N   1      27.839  18.451   8.209  0.00  0.00    -0.373 OA
HETATM    2  N   UNK N   1      30.213  17.379   5.644  0.00  0.00    -0.355 N 
HETATM    3  C   UNK N   1      28.036  17.768   6.970  0.00  0.00     0.112 C 
HETATM    4  C   UNK N   1      29.522  17.510   6.804  0.00  0.00     0.052 A 
HETATM    5  C   UNK N   1      30.376  17.542   7.883  0.00  0.00    -0.018 A 
HETATM    6  C   UNK N   1      29.913  17.734   9.287  0.00  0.00     0.068 C 
HETATM    7  C   UNK N   1      31.641  17.422   7.379  0.00  0.00    -0.001 A 
HETATM    8  C   UNK N   1      28.377  17.705   9.292  0.00  0.00     0.174 C 
HETATM    9  C   UNK N   1      31.516  17.335   6.014  0.00  0.00     0.049 A 
HETATM   10  C   UNK N   1      32.634  17.268   5.180  0.00  0.00    -0.031 A 
HETATM   11  C   UNK N   1      32.881  17.425   8.011  0.00  0.00     0.014 A 
HETATM   12  C   UNK N   1      33.907  17.270   5.796  0.00  0.00     0.009 A 
HETATM   13  C   UNK N   1      34.027  17.338   7.202  0.00  0.00     0.002 A 
HETATM   14  H   UNK N   1      29.848  17.327   4.731  0.00  0.00     0.166 HD
ENDROOT
BRANCH   3  15
HETATM   15  C   UNK N   1      27.565  18.720   5.856  0.00  0.00     0.040 C 
HETATM   16  C   UNK N   1      27.385  20.163   6.324  0.00  0.00     0.008 C 
ENDBRANCH   3  15
BRANCH   3  17
HETATM   17  C   UNK N   1      27.198  16.473   6.923  0.00  0.00     0.154 C 
BRANCH  17  18
HETATM   18  C   UNK N   1      26.833  16.091   5.512  0.00  0.00     0.142 C 
HETATM   19  O   UNK N   1      25.683  16.211   5.118  0.00  0.00    -0.650 OA
BRANCH  18  20
HETATM   20  O   UNK N   1      27.779  15.626   4.676  0.00  0.00    -0.776 OA
HETATM   21  H   UNK N   1      28.306  14.891   4.923  0.00  0.00     0.167 HD
ENDBRANCH  18  20
ENDBRANCH  17  18
ENDBRANCH   3  17
BRANCH  10  22
HETATM   22  C   UNK N   1      32.466  17.238   3.685  0.00  0.00     0.036 C 
HETATM   23  C   UNK N   1      33.219  16.102   3.007  0.00  0.00     0.010 C 
ENDBRANCH  10  22
TORSDOF 5
ENDMDL
MODEL 5
REMARK VINA RESULT:      -6.2      2.094      3.230
REMARK  5 active torsions:
REMARK  status: ('A' for Active; 'I' for Inactive)
REMARK    1  A    between atoms: O_2  and  C_17 
REMARK    2  A    between atoms: C_5  and  C_9 
REMARK    3  A    between atoms: C_5  and  C_10 
REMARK    4  A    between atoms: C_10  and  C_17 
REMARK    5  A    between atoms: C_14  and  C_18 
ROOT
HETATM    1  O   UNK N   1      31.454  21.843  -5.539  0.00  0.00    -0.373 OA
HETATM    2  N   UNK N   1      28.175  23.463  -5.517  0.00  0.00    -0.355 N 
HETATM    3  C   UNK N   1      30.450  22.506  -4.767  0.00  0.00     0.112 C 
HETATM    4  C   UNK N   1      29.174  22.547  -5.587  0.00  0.00     0.052 A 
HETATM    5  C   UNK N   1      28.980  21.690  -6.647  0.00  0.00    -0.018 A 
HETATM    6  C   UNK N   1      29.942  20.611  -7.013  0.00  0.00     0.068 C 
HETATM    7  C   UNK N   1      27.820  22.082  -7.254  0.00  0.00    -0.001 A 
HETATM    8  C   UNK N   1      31.023  20.545  -5.924  0.00  0.00     0.174 C 
HETATM    9  C   UNK N   1      27.355  23.169  -6.555  0.00  0.00     0.049 A 
HETATM   10  C   UNK N   1      26.210  23.860  -6.954  0.00  0.00    -0.031 A 
HETATM   11  C   UNK N   1      27.168  21.594  -8.384  0.00  0.00     0.014 A 
HETATM   12  C   UNK N   1      25.529  23.386  -8.099  0.00  0.00     0.009 A 
HETATM   13  C   UNK N   1      26.001  22.255  -8.801  0.00  0.00     0.002 A 
HETATM   14  H   UNK N   1      28.070  24.184  -4.856  0.00  0.00     0.166 HD
ENDROOT
BRANCH   3  15
HETATM   15  C   UNK N   1      30.943  23.946  -4.536  0.00  0.00     0.040 C 
HETATM   16  C   UNK N   1      32.443  24.120  -4.771  0.00  0.00     0.008 C 
ENDBRANCH   3  15
BRANCH   3  17
HETATM   17  C   UNK N   1      30.260  21.807  -3.405  0.00  0.00     0.154 C 
BRANCH  17  18
HETATM   18  C   UNK N   1      29.781  22.763  -2.344  0.00  0.00     0.142 C 
HETATM   19  O   UNK N   1      30.519  23.087  -1.427  0.00  0.00    -0.650 OA
BRANCH  18  20
HETATM   20  O   UNK N   1      28.538  23.273  -2.412  0.00  0.00    -0.776 OA
HETATM   21  H   UNK N   1      28.091  23.531  -1.630  0.00  0.00     0.167 HD
ENDBRANCH  18  20
ENDBRANCH  17  18
ENDBRANCH   3  17
BRANCH  10  22
HETATM   22  C   UNK N   1      25.762  25.086  -6.204  0.00  0.00     0.036 C 
HETATM   23  C   UNK N   1      25.846  26.367  -7.021  0.00  0.00     0.010 C 
ENDBRANCH  10  22
TORSDOF 5
ENDMDL
MODEL 6
REMARK VINA RESULT:      -6.1     14.913     17.144
REMARK  5 active torsions:
REMARK  status: ('A' for Active; 'I' for Inactive)
REMARK    1  A    between atoms: O_2  and  C_17 
REMARK    2  A    between atoms: C_5  and  C_9 
REMARK    3  A    between atoms: C_5  and  C_10 
REMARK    4  A    between atoms: C_10  and  C_17 
REMARK    5  A    between atoms: C_14  and  C_18 
ROOT
HETATM    1  O   UNK N   1      20.296  13.488   8.864  0.00  0.00    -0.373 OA
HETATM    2  N   UNK N   1      23.096  14.787   6.904  0.00  0.00    -0.355 N 
HETATM    3  C   UNK N   1      21.704  13.463   8.624  0.00  0.00     0.112 C 
HETATM    4  C   UNK N   1      22.060  14.667   7.772  0.00  0.00     0.052 A 
HETATM    5  C   UNK N   1      21.220  15.754   7.688  0.00  0.00    -0.018 A 
HETATM    6  C   UNK N   1      19.964  15.880   8.482  0.00  0.00     0.068 C 
HETATM    7  C   UNK N   1      21.753  16.581   6.739  0.00  0.00    -0.001 A 
HETATM    8  C   UNK N   1      19.907  14.711   9.476  0.00  0.00     0.174 C 
HETATM    9  C   UNK N   1      22.887  15.967   6.269  0.00  0.00     0.049 A 
HETATM   10  C   UNK N   1      23.644  16.519   5.235  0.00  0.00    -0.031 A 
HETATM   11  C   UNK N   1      21.304  17.798   6.231  0.00  0.00     0.014 A 
HETATM   12  C   UNK N   1      23.210  17.754   4.699  0.00  0.00     0.009 A 
HETATM   13  C   UNK N   1      22.053  18.392   5.202  0.00  0.00     0.002 A 
HETATM   14  H   UNK N   1      23.838  14.155   6.764  0.00  0.00     0.166 HD
ENDROOT
BRANCH   3  15
HETATM   15  C   UNK N   1      21.997  12.179   7.826  0.00  0.00     0.040 C 
HETATM   16  C   UNK N   1      21.039  11.957   6.657  0.00  0.00     0.008 C 
ENDBRANCH   3  15
BRANCH   3  17
HETATM   17  C   UNK N   1      22.483  13.424   9.956  0.00  0.00     0.154 C 
BRANCH  17  18
HETATM   18  C   UNK N   1      22.239  12.146  10.714  0.00  0.00     0.142 C 
HETATM   19  O   UNK N   1      23.134  11.325  10.844  0.00  0.00    -0.650 OA
BRANCH  18  20
HETATM   20  O   UNK N   1      21.033  11.910  11.262  0.00  0.00    -0.776 OA
HETATM   21  H   UNK N   1      20.967  11.462  12.082  0.00  0.00     0.167 HD
ENDBRANCH  18  20
ENDBRANCH  17  18
ENDBRANCH   3  17
BRANCH  10  22
HETATM   22  C   UNK N   1      24.845  15.790   4.698  0.00  0.00     0.036 C 
HETATM   23  C   UNK N   1      25.219  16.188   3.278  0.00  0.00     0.010 C 
ENDBRANCH  10  22
TORSDOF 5
ENDMDL
MODEL 7
REMARK VINA RESULT:      -6.0      3.295      5.437
REMARK  5 active torsions:
REMARK  status: ('A' for Active; 'I' for Inactive)
REMARK    1  A    between atoms: O_2  and  C_17 
REMARK    2  A    between atoms: C_5  and  C_9 
REMARK    3  A    between atoms: C_5  and  C_10 
REMARK    4  A    between atoms: C_10  and  C_17 
REMARK    5  A    between atoms: C_14  and  C_18 
ROOT
HETATM    1  O   UNK N   1      27.608  26.620  -3.905  0.00  0.00    -0.373 OA
HETATM    2  N   UNK N   1      26.233  26.524  -7.292  0.00  0.00    -0.355 N 
HETATM    3  C   UNK N   1      26.950  27.336  -4.951  0.00  0.00     0.112 C 
HETATM    4  C   UNK N   1      26.439  26.329  -5.965  0.00  0.00     0.052 A 
HETATM    5  C   UNK N   1      26.277  25.003  -5.633  0.00  0.00    -0.018 A 
HETATM    6  C   UNK N   1      26.492  24.473  -4.256  0.00  0.00     0.068 C 
HETATM    7  C   UNK N   1      25.954  24.351  -6.790  0.00  0.00    -0.001 A 
HETATM    8  C   UNK N   1      26.736  25.664  -3.317  0.00  0.00     0.174 C 
HETATM    9  C   UNK N   1      25.944  25.296  -7.787  0.00  0.00     0.049 A 
HETATM   10  C   UNK N   1      25.712  24.950  -9.120  0.00  0.00    -0.031 A 
HETATM   11  C   UNK N   1      25.712  23.003  -7.043  0.00  0.00     0.014 A 
HETATM   12  C   UNK N   1      25.465  23.588  -9.405  0.00  0.00     0.009 A 
HETATM   13  C   UNK N   1      25.456  22.624  -8.372  0.00  0.00     0.002 A 
HETATM   14  H   UNK N   1      26.282  27.373  -7.788  0.00  0.00     0.166 HD
ENDROOT
BRANCH   3  15
HETATM   15  C   UNK N   1      28.013  28.226  -5.621  0.00  0.00     0.040 C 
HETATM   16  C   UNK N   1      29.445  27.763  -5.360  0.00  0.00     0.008 C 
ENDBRANCH   3  15
BRANCH   3  17
HETATM   17  C   UNK N   1      25.826  28.227  -4.379  0.00  0.00     0.154 C 
BRANCH  17  18
HETATM   18  C   UNK N   1      26.369  29.315  -3.490  0.00  0.00     0.142 C 
HETATM   19  O   UNK N   1      26.168  30.489  -3.760  0.00  0.00    -0.650 OA
BRANCH  18  20
HETATM   20  O   UNK N   1      27.069  28.995  -2.387  0.00  0.00    -0.776 OA
HETATM   21  H   UNK N   1      26.871  28.210  -1.915  0.00  0.00     0.167 HD
ENDBRANCH  18  20
ENDBRANCH  17  18
ENDBRANCH   3  17
BRANCH  10  22
HETATM   22  C   UNK N   1      25.771  25.999 -10.197  0.00  0.00     0.036 C 
HETATM   23  C   UNK N   1      24.447  26.212 -10.916  0.00  0.00     0.010 C 
ENDBRANCH  10  22
TORSDOF 5
ENDMDL
MODEL 8
REMARK VINA RESULT:      -5.9      1.939      2.776
REMARK  5 active torsions:
REMARK  status: ('A' for Active; 'I' for Inactive)
REMARK    1  A    between atoms: O_2  and  C_17 
REMARK    2  A    between atoms: C_5  and  C_9 
REMARK    3  A    between atoms: C_5  and  C_10 
REMARK    4  A    between atoms: C_10  and  C_17 
REMARK    5  A    between atoms: C_14  and  C_18 
ROOT
HETATM    1  O   UNK N   1      31.763  22.142  -5.823  0.00  0.00    -0.373 OA
HETATM    2  N   UNK N   1      28.909  23.762  -4.211  0.00  0.00    -0.355 N 
HETATM    3  C   UNK N   1      31.136  22.521  -4.597  0.00  0.00     0.112 C 
HETATM    4  C   UNK N   1      29.697  22.897  -4.898  0.00  0.00     0.052 A 
HETATM    5  C   UNK N   1      29.080  22.483  -6.056  0.00  0.00    -0.018 A 
HETATM    6  C   UNK N   1      29.724  21.573  -7.046  0.00  0.00     0.068 C 
HETATM    7  C   UNK N   1      27.864  23.107  -6.090  0.00  0.00    -0.001 A 
HETATM    8  C   UNK N   1      31.053  21.084  -6.451  0.00  0.00     0.174 C 
HETATM    9  C   UNK N   1      27.788  23.888  -4.963  0.00  0.00     0.049 A 
HETATM   10  C   UNK N   1      26.691  24.717  -4.720  0.00  0.00    -0.031 A 
HETATM   11  C   UNK N   1      26.848  23.078  -7.042  0.00  0.00     0.014 A 
HETATM   12  C   UNK N   1      25.645  24.707  -5.671  0.00  0.00     0.009 A 
HETATM   13  C   UNK N   1      25.720  23.886  -6.818  0.00  0.00     0.002 A 
HETATM   14  H   UNK N   1      29.107  24.203  -3.354  0.00  0.00     0.166 HD
ENDROOT
BRANCH   3  15
HETATM   15  C   UNK N   1      31.882  23.764  -4.079  0.00  0.00     0.040 C 
HETATM   16  C   UNK N   1      32.530  24.591  -5.189  0.00  0.00     0.008 C 
ENDBRANCH   3  15
BRANCH   3  17
HETATM   17  C   UNK N   1      31.250  21.388  -3.555  0.00  0.00     0.154 C 
BRANCH  17  18
HETATM   18  C   UNK N   1      32.671  21.182  -3.101  0.00  0.00     0.142 C 
HETATM   19  O   UNK N   1      32.968  21.317  -1.923  0.00  0.00    -0.650 OA
BRANCH  18  20
HETATM   20  O   UNK N   1      33.617  20.835  -3.992  0.00  0.00    -0.776 OA
HETATM   21  H   UNK N   1      33.423  20.832  -4.908  0.00  0.00     0.167 HD
ENDBRANCH  18  20
ENDBRANCH  17  18
ENDBRANCH   3  17
BRANCH  10  22
HETATM   22  C   UNK N   1      26.667  25.608  -3.508  0.00  0.00     0.036 C 
HETATM   23  C   UNK N   1      26.147  27.010  -3.791  0.00  0.00     0.010 C 
ENDBRANCH  10  22
TORSDOF 5
ENDMDL
MODEL 9
REMARK VINA RESULT:      -5.9     11.560     13.889
REMARK  5 active torsions:
REMARK  status: ('A' for Active; 'I' for Inactive)
REMARK    1  A    between atoms: O_2  and  C_17 
REMARK    2  A    between atoms: C_5  and  C_9 
REMARK    3  A    between atoms: C_5  and  C_10 
REMARK    4  A    between atoms: C_10  and  C_17 
REMARK    5  A    between atoms: C_14  and  C_18 
ROOT
HETATM    1  O   UNK N   1      30.943  16.985   9.044  0.00  0.00    -0.373 OA
HETATM    2  N   UNK N   1      30.458  16.798   5.425  0.00  0.00    -0.355 N 
HETATM    3  C   UNK N   1      31.555  16.913   7.756  0.00  0.00     0.112 C 
HETATM    4  C   UNK N   1      30.499  17.225   6.712  0.00  0.00     0.052 A 
HETATM    5  C   UNK N   1      29.338  17.885   7.048  0.00  0.00    -0.018 A 
HETATM    6  C   UNK N   1      29.068  18.421   8.412  0.00  0.00     0.068 C 
HETATM    7  C   UNK N   1      28.550  17.872   5.931  0.00  0.00    -0.001 A 
HETATM    8  C   UNK N   1      30.343  18.256   9.252  0.00  0.00     0.174 C 
HETATM    9  C   UNK N   1      29.248  17.196   4.961  0.00  0.00     0.049 A 
HETATM   10  C   UNK N   1      28.696  16.945   3.704  0.00  0.00    -0.031 A 
HETATM   11  C   UNK N   1      27.265  18.365   5.713  0.00  0.00     0.014 A 
HETATM   12  C   UNK N   1      27.392  17.432   3.456  0.00  0.00     0.009 A 
HETATM   13  C   UNK N   1      26.688  18.146   4.451  0.00  0.00     0.002 A 
HETATM   14  H   UNK N   1      31.154  16.306   4.934  0.00  0.00     0.166 HD
ENDROOT
BRANCH   3  15
HETATM   15  C   UNK N   1      32.033  15.462   7.568  0.00  0.00     0.040 C 
HETATM   16  C   UNK N   1      32.450  14.785   8.873  0.00  0.00     0.008 C 
ENDBRANCH   3  15
BRANCH   3  17
HETATM   17  C   UNK N   1      32.769  17.864   7.677  0.00  0.00     0.154 C 
BRANCH  17  18
HETATM   18  C   UNK N   1      33.701  17.493   6.553  0.00  0.00     0.142 C 
HETATM   19  O   UNK N   1      33.460  17.849   5.410  0.00  0.00    -0.650 OA
BRANCH  18  20
HETATM   20  O   UNK N   1      34.810  16.777   6.809  0.00  0.00    -0.776 OA
HETATM   21  H   UNK N   1      34.949  16.410   7.660  0.00  0.00     0.167 HD
ENDBRANCH  18  20
ENDBRANCH  17  18
ENDBRANCH   3  17
BRANCH  10  22
HETATM   22  C   UNK N   1      29.461  16.145   2.684  0.00  0.00     0.036 C 
HETATM   23  C   UNK N   1      28.748  14.876   2.242  0.00  0.00     0.010 C 
ENDBRANCH  10  22
TORSDOF 5
ENDMDL
