REMARK  5 active torsions:
REMARK  status: ('A' for Active; 'I' for Inactive)
REMARK    1  A    between atoms: O_2  and  C_17 
REMARK    2  A    between atoms: C_5  and  C_9 
REMARK    3  A    between atoms: C_5  and  C_10 
REMARK    4  A    between atoms: C_10  and  C_17 
REMARK    5  A    between atoms: C_14  and  C_18 
ROOT
HETATM    1  O   UNK N   1       6.984  -1.015  -1.062  0.00  0.00    -0.373 OA
HETATM    2  N   UNK N   1       3.921   0.628   0.073  0.00  0.00    -0.355 N 
HETATM    3  C   UNK N   1       6.405   0.086  -0.360  0.00  0.00     0.112 C 
HETATM    4  C   UNK N   1       4.950  -0.243  -0.082  0.00  0.00     0.052 A 
HETATM    5  C   UNK N   1       4.493  -1.541  -0.119  0.00  0.00    -0.018 A 
HETATM    6  C   UNK N   1       5.385  -2.716  -0.335  0.00  0.00     0.068 C 
HETATM    7  C   UNK N   1       3.135  -1.477   0.023  0.00  0.00    -0.001 A 
HETATM    8  C   UNK N   1       6.839  -2.221  -0.324  0.00  0.00     0.174 C 
HETATM    9  C   UNK N   1       2.810  -0.147   0.127  0.00  0.00     0.049 A 
HETATM   10  C   UNK N   1       1.483   0.277   0.219  0.00  0.00    -0.031 A 
HETATM   11  C   UNK N   1       2.168  -2.479   0.026  0.00  0.00     0.014 A 
HETATM   12  C   UNK N   1       0.480  -0.720   0.223  0.00  0.00     0.009 A 
HETATM   13  C   UNK N   1       0.823  -2.088   0.137  0.00  0.00     0.002 A 
HETATM   14  H   UNK N   1       3.970   1.609   0.133  0.00  0.00     0.166 HD
ENDROOT
BRANCH   3  15
HETATM   15  C   UNK N   1       6.473   1.302  -1.302  0.00  0.00     0.040 C 
HETATM   16  C   UNK N   1       6.013   2.604  -0.648  0.00  0.00     0.008 C 
ENDBRANCH   3  15
BRANCH   3  17
HETATM   17  C   UNK N   1       7.202   0.392   0.926  0.00  0.00     0.154 C 
BRANCH  17  18
HETATM   18  C   UNK N   1       8.672   0.568   0.648  0.00  0.00     0.142 C 
HETATM   19  O   UNK N   1       9.354  -0.387   0.309  0.00  0.00    -0.650 OA
BRANCH  18  20
HETATM   20  O   UNK N   1       9.236   1.784   0.761  0.00  0.00    -0.776 OA
HETATM   21  H   UNK N   1      10.166   1.867   0.840  0.00  0.00     0.167 HD
ENDBRANCH  18  20
ENDBRANCH  17  18
ENDBRANCH   3  17
BRANCH  10  22
HETATM   22  C   UNK N   1       1.156   1.745   0.267  0.00  0.00     0.036 C 
HETATM   23  C   UNK N   1      -0.335   2.042   0.192  0.00  0.00     0.010 C 
ENDBRANCH  10  22
TORSDOF 5
