MODEL 1
REMARK VINA RESULT:      -7.2      0.000      0.000
REMARK  0 active torsions:
REMARK  status: ('A' for Active; 'I' for Inactive)
REMARK       I    between atoms: N_4  and  C_12 
ROOT
HETATM    1  N   UNK N   1      35.730  13.005  13.710  0.00  0.00    -0.173 N 
HETATM    2  N   UNK N   1      36.862  14.866  14.310  0.00  0.00    -0.224 N 
ATOM      3  HN  UNK N   1      37.348  15.758  14.215  1.00  0.00     0.177 HD
HETATM    4  N   UNK N   1      36.435  14.716  12.010  0.00  0.00    -0.235 N 
HETATM    5  C   UNK N   1      35.892  12.914  15.139  0.00  0.00     0.160 A 
HETATM    6  C   UNK N   1      35.460  11.879  16.133  0.00  0.00    -0.026 A 
HETATM    7  C   UNK N   1      36.665  14.180  15.565  0.00  0.00     0.169 A 
HETATM    8  C   UNK N   1      35.087  12.102  12.788  0.00  0.00     0.059 A 
HETATM    9  C   UNK N   1      34.755  10.700  15.830  0.00  0.00    -0.045 A 
HETATM   10  C   UNK N   1      34.308  10.257  14.493  0.00  0.00     0.080 A 
HETATM   11  C   UNK N   1      34.454  10.876  13.151  0.00  0.00    -0.026 A 
HETATM   12  C   UNK N   1      36.356  14.222  13.334  0.00  0.00     0.675 A 
HETATM   13  C   UNK N   1      35.800  12.128  17.476  0.00  0.00     0.010 A 
HETATM   14  C   UNK N   1      34.414   9.817  16.862  0.00  0.00     0.008 A 
HETATM   15  C   UNK N   1      35.078  12.450  11.421  0.00  0.00     0.031 A 
HETATM   16  C   UNK N   1      33.864  10.089  12.152  0.00  0.00     0.010 A 
HETATM   17  C   UNK N   1      35.454  11.239  18.493  0.00  0.00     0.001 A 
HETATM   18  C   UNK N   1      34.757  10.078  18.184  0.00  0.00     0.001 A 
HETATM   19  C   UNK N   1      34.485  11.651  10.449  0.00  0.00     0.002 A 
HETATM   20  C   UNK N   1      33.876  10.465  10.816  0.00  0.00     0.001 A 
HETATM   21  H   UNK N   1      36.887  15.571  11.830  0.00  0.00     0.174 HD
HETATM   22  H   UNK N   1      36.037  14.203  11.269  0.00  0.00     0.174 HD
ENDROOT
TORSDOF 0
ENDMDL
MODEL 2
REMARK VINA RESULT:      -6.9     16.262     18.523
REMARK  0 active torsions:
REMARK  status: ('A' for Active; 'I' for Inactive)
REMARK       I    between atoms: N_4  and  C_12 
ROOT
HETATM    1  N   UNK N   1      20.937  18.630   3.256  0.00  0.00    -0.173 N 
HETATM    2  N   UNK N   1      20.219  20.172   1.769  0.00  0.00    -0.224 N 
ATOM      3  HN  UNK N   1      19.586  20.670   1.143  1.00  0.00     0.177 HD
HETATM    4  N   UNK N   1      18.575  18.624   2.398  0.00  0.00    -0.235 N 
HETATM    5  C   UNK N   1      22.074  19.476   3.000  0.00  0.00     0.160 A 
HETATM    6  C   UNK N   1      23.477  19.458   3.527  0.00  0.00    -0.026 A 
HETATM    7  C   UNK N   1      21.599  20.537   1.984  0.00  0.00     0.169 A 
HETATM    8  C   UNK N   1      20.808  17.483   4.120  0.00  0.00     0.059 A 
HETATM    9  C   UNK N   1      23.990  18.530   4.451  0.00  0.00    -0.045 A 
HETATM   10  C   UNK N   1      23.257  17.408   5.075  0.00  0.00     0.080 A 
HETATM   11  C   UNK N   1      21.854  16.946   4.929  0.00  0.00    -0.026 A 
HETATM   12  C   UNK N   1      19.886  19.152   2.458  0.00  0.00     0.675 A 
HETATM   13  C   UNK N   1      24.335  20.463   3.042  0.00  0.00     0.010 A 
HETATM   14  C   UNK N   1      25.326  18.631   4.859  0.00  0.00     0.008 A 
HETATM   15  C   UNK N   1      19.556  16.836   4.177  0.00  0.00     0.031 A 
HETATM   16  C   UNK N   1      21.594  15.822   5.726  0.00  0.00     0.010 A 
HETATM   17  C   UNK N   1      25.663  20.551   3.458  0.00  0.00     0.001 A 
HETATM   18  C   UNK N   1      26.160  19.630   4.371  0.00  0.00     0.001 A 
HETATM   19  C   UNK N   1      19.324  15.721   4.977  0.00  0.00     0.002 A 
HETATM   20  C   UNK N   1      20.348  15.213   5.755  0.00  0.00     0.001 A 
HETATM   21  H   UNK N   1      17.901  19.044   1.818  0.00  0.00     0.174 HD
HETATM   22  H   UNK N   1      18.338  17.835   2.938  0.00  0.00     0.174 HD
ENDROOT
TORSDOF 0
ENDMDL
MODEL 3
REMARK VINA RESULT:      -6.9     21.931     24.815
REMARK  0 active torsions:
REMARK  status: ('A' for Active; 'I' for Inactive)
REMARK       I    between atoms: N_4  and  C_12 
ROOT
HETATM    1  N   UNK N   1      26.912  24.053  -6.439  0.00  0.00    -0.173 N 
HETATM    2  N   UNK N   1      26.851  22.485  -8.063  0.00  0.00    -0.224 N 
ATOM      3  HN  UNK N   1      26.539  21.990  -8.899  1.00  0.00     0.177 HD
HETATM    4  N   UNK N   1      25.190  24.127  -8.267  0.00  0.00    -0.235 N 
HETATM    5  C   UNK N   1      27.994  23.150  -6.142  0.00  0.00     0.160 A 
HETATM    6  C   UNK N   1      29.011  23.129  -5.041  0.00  0.00    -0.026 A 
HETATM    7  C   UNK N   1      27.965  22.070  -7.245  0.00  0.00     0.169 A 
HETATM    8  C   UNK N   1      26.475  25.239  -5.744  0.00  0.00     0.059 A 
HETATM    9  C   UNK N   1      29.107  24.071  -4.000  0.00  0.00    -0.045 A 
HETATM   10  C   UNK N   1      28.238  25.247  -3.792  0.00  0.00     0.080 A 
HETATM   11  C   UNK N   1      27.077  25.763  -4.561  0.00  0.00    -0.026 A 
HETATM   12  C   UNK N   1      26.303  23.545  -7.615  0.00  0.00     0.675 A 
HETATM   13  C   UNK N   1      29.937  22.069  -5.070  0.00  0.00     0.010 A 
HETATM   14  C   UNK N   1      30.110  23.929  -3.033  0.00  0.00     0.008 A 
HETATM   15  C   UNK N   1      25.370  25.941  -6.267  0.00  0.00     0.031 A 
HETATM   16  C   UNK N   1      26.551  26.928  -3.985  0.00  0.00     0.010 A 
HETATM   17  C   UNK N   1      30.930  21.941  -4.101  0.00  0.00     0.001 A 
HETATM   18  C   UNK N   1      31.017  22.876  -3.078  0.00  0.00     0.001 A 
HETATM   19  C   UNK N   1      24.867  27.096  -5.676  0.00  0.00     0.002 A 
HETATM   20  C   UNK N   1      25.461  27.592  -4.529  0.00  0.00     0.001 A 
HETATM   21  H   UNK N   1      24.825  23.712  -9.081  0.00  0.00     0.174 HD
HETATM   22  H   UNK N   1      24.781  24.946  -7.905  0.00  0.00     0.174 HD
ENDROOT
TORSDOF 0
ENDMDL
MODEL 4
REMARK VINA RESULT:      -6.9      9.274     12.077
REMARK  0 active torsions:
REMARK  status: ('A' for Active; 'I' for Inactive)
REMARK       I    between atoms: N_4  and  C_12 
ROOT
HETATM    1  N   UNK N   1      30.082  17.285   7.612  0.00  0.00    -0.173 N 
HETATM    2  N   UNK N   1      29.888  17.804   9.802  0.00  0.00    -0.224 N 
ATOM      3  HN  UNK N   1      30.054  17.770  10.808  1.00  0.00     0.177 HD
HETATM    4  N   UNK N   1      31.432  16.095   9.366  0.00  0.00    -0.235 N 
HETATM    5  C   UNK N   1      29.102  18.339   7.672  0.00  0.00     0.160 A 
HETATM    6  C   UNK N   1      28.309  19.034   6.607  0.00  0.00    -0.026 A 
HETATM    7  C   UNK N   1      28.958  18.706   9.165  0.00  0.00     0.169 A 
HETATM    8  C   UNK N   1      30.604  16.566   6.477  0.00  0.00     0.059 A 
HETATM    9  C   UNK N   1      28.380  18.762   5.229  0.00  0.00    -0.045 A 
HETATM   10  C   UNK N   1      29.237  17.754   4.570  0.00  0.00     0.080 A 
HETATM   11  C   UNK N   1      30.218  16.785   5.120  0.00  0.00    -0.026 A 
HETATM   12  C   UNK N   1      30.477  17.055   8.956  0.00  0.00     0.675 A 
HETATM   13  C   UNK N   1      27.426  20.038   7.046  0.00  0.00     0.010 A 
HETATM   14  C   UNK N   1      27.578  19.490   4.341  0.00  0.00     0.008 A 
HETATM   15  C   UNK N   1      31.572  15.568   6.715  0.00  0.00     0.031 A 
HETATM   16  C   UNK N   1      30.806  16.013   4.109  0.00  0.00     0.010 A 
HETATM   17  C   UNK N   1      26.634  20.755   6.150  0.00  0.00     0.001 A 
HETATM   18  C   UNK N   1      26.711  20.480   4.791  0.00  0.00     0.001 A 
HETATM   19  C   UNK N   1      32.140  14.815   5.693  0.00  0.00     0.002 A 
HETATM   20  C   UNK N   1      31.756  15.039   4.383  0.00  0.00     0.001 A 
HETATM   21  H   UNK N   1      31.651  15.996  10.320  0.00  0.00     0.174 HD
HETATM   22  H   UNK N   1      31.876  15.526   8.697  0.00  0.00     0.174 HD
ENDROOT
TORSDOF 0
ENDMDL
MODEL 5
REMARK VINA RESULT:      -6.8      9.704     11.494
REMARK  0 active torsions:
REMARK  status: ('A' for Active; 'I' for Inactive)
REMARK       I    between atoms: N_4  and  C_12 
ROOT
HETATM    1  N   UNK N   1      28.773  16.767   6.464  0.00  0.00    -0.173 N 
HETATM    2  N   UNK N   1      27.693  17.182   8.404  0.00  0.00    -0.224 N 
ATOM      3  HN  UNK N   1      26.922  17.262   9.068  1.00  0.00     0.177 HD
HETATM    4  N   UNK N   1      26.288  16.453   6.674  0.00  0.00    -0.235 N 
HETATM    5  C   UNK N   1      29.792  17.197   7.387  0.00  0.00     0.160 A 
HETATM    6  C   UNK N   1      31.272  17.377   7.235  0.00  0.00    -0.026 A 
HETATM    7  C   UNK N   1      29.068  17.485   8.720  0.00  0.00     0.169 A 
HETATM    8  C   UNK N   1      28.879  16.371   5.081  0.00  0.00     0.059 A 
HETATM    9  C   UNK N   1      32.007  17.138   6.060  0.00  0.00    -0.045 A 
HETATM   10  C   UNK N   1      31.472  16.671   4.764  0.00  0.00     0.080 A 
HETATM   11  C   UNK N   1      30.093  16.333   4.332  0.00  0.00    -0.026 A 
HETATM   12  C   UNK N   1      27.557  16.801   7.195  0.00  0.00     0.675 A 
HETATM   13  C   UNK N   1      31.963  17.822   8.377  0.00  0.00     0.010 A 
HETATM   14  C   UNK N   1      33.392  17.348   6.059  0.00  0.00     0.008 A 
HETATM   15  C   UNK N   1      27.698  15.992   4.410  0.00  0.00     0.031 A 
HETATM   16  C   UNK N   1      30.056  15.927   2.990  0.00  0.00     0.010 A 
HETATM   17  C   UNK N   1      33.342  18.027   8.361  0.00  0.00     0.001 A 
HETATM   18  C   UNK N   1      34.059  17.789   7.196  0.00  0.00     0.001 A 
HETATM   19  C   UNK N   1      27.688  15.594   3.078  0.00  0.00     0.002 A 
HETATM   20  C   UNK N   1      28.873  15.561   2.364  0.00  0.00     0.001 A 
HETATM   21  H   UNK N   1      25.491  16.502   7.247  0.00  0.00     0.174 HD
HETATM   22  H   UNK N   1      26.205  16.161   5.738  0.00  0.00     0.174 HD
ENDROOT
TORSDOF 0
ENDMDL
MODEL 6
REMARK VINA RESULT:      -6.8      1.778      2.450
REMARK  0 active torsions:
REMARK  status: ('A' for Active; 'I' for Inactive)
REMARK       I    between atoms: N_4  and  C_12 
ROOT
HETATM    1  N   UNK N   1      36.391  12.120  13.660  0.00  0.00    -0.173 N 
HETATM    2  N   UNK N   1      36.829  14.147  12.766  0.00  0.00    -0.224 N 
ATOM      3  HN  UNK N   1      37.081  14.847  12.067  1.00  0.00     0.177 HD
HETATM    4  N   UNK N   1      37.036  12.376  11.245  0.00  0.00    -0.235 N 
HETATM    5  C   UNK N   1      36.213  13.061  14.735  0.00  0.00     0.160 A 
HETATM    6  C   UNK N   1      35.826  12.882  16.172  0.00  0.00    -0.026 A 
HETATM    7  C   UNK N   1      36.509  14.454  14.139  0.00  0.00     0.169 A 
HETATM    8  C   UNK N   1      36.246  10.685  13.647  0.00  0.00     0.059 A 
HETATM    9  C   UNK N   1      35.540  11.652  16.793  0.00  0.00    -0.045 A 
HETATM   10  C   UNK N   1      35.564  10.317  16.160  0.00  0.00     0.080 A 
HETATM   11  C   UNK N   1      35.876   9.890  14.773  0.00  0.00    -0.026 A 
HETATM   12  C   UNK N   1      36.760  12.897  12.531  0.00  0.00     0.675 A 
HETATM   13  C   UNK N   1      35.749  14.055  16.946  0.00  0.00     0.010 A 
HETATM   14  C   UNK N   1      35.190  11.630  18.149  0.00  0.00     0.008 A 
HETATM   15  C   UNK N   1      36.487  10.008  12.434  0.00  0.00     0.031 A 
HETATM   16  C   UNK N   1      35.771   8.500  14.623  0.00  0.00     0.010 A 
HETATM   17  C   UNK N   1      35.399  14.017  18.295  0.00  0.00     0.001 A 
HETATM   18  C   UNK N   1      35.119  12.799  18.899  0.00  0.00     0.001 A 
HETATM   19  C   UNK N   1      36.376   8.627  12.312  0.00  0.00     0.002 A 
HETATM   20  C   UNK N   1      36.016   7.869  13.412  0.00  0.00     0.001 A 
HETATM   21  H   UNK N   1      37.287  12.982  10.512  0.00  0.00     0.174 HD
HETATM   22  H   UNK N   1      36.978  11.407  11.084  0.00  0.00     0.174 HD
ENDROOT
TORSDOF 0
ENDMDL
MODEL 7
REMARK VINA RESULT:      -6.8     14.719     17.466
REMARK  0 active torsions:
REMARK  status: ('A' for Active; 'I' for Inactive)
REMARK       I    between atoms: N_4  and  C_12 
ROOT
HETATM    1  N   UNK N   1      24.165  17.592   4.950  0.00  0.00    -0.173 N 
HETATM    2  N   UNK N   1      23.129  15.807   5.866  0.00  0.00    -0.224 N 
ATOM      3  HN  UNK N   1      23.007  14.943   6.396  1.00  0.00     0.177 HD
HETATM    4  N   UNK N   1      25.424  15.912   6.331  0.00  0.00    -0.235 N 
HETATM    5  C   UNK N   1      22.784  17.705   4.556  0.00  0.00     0.160 A 
HETATM    6  C   UNK N   1      22.057  18.722   3.729  0.00  0.00    -0.026 A 
HETATM    7  C   UNK N   1      22.061  16.490   5.175  0.00  0.00     0.169 A 
HETATM    8  C   UNK N   1      25.288  18.448   4.657  0.00  0.00     0.059 A 
HETATM    9  C   UNK N   1      22.638  19.854   3.131  0.00  0.00    -0.045 A 
HETATM   10  C   UNK N   1      24.058  20.258   3.199  0.00  0.00     0.080 A 
HETATM   11  C   UNK N   1      25.227  19.638   3.871  0.00  0.00    -0.026 A 
HETATM   12  C   UNK N   1      24.243  16.411   5.733  0.00  0.00     0.675 A 
HETATM   13  C   UNK N   1      20.678  18.504   3.550  0.00  0.00     0.010 A 
HETATM   14  C   UNK N   1      21.837  20.725   2.381  0.00  0.00     0.008 A 
HETATM   15  C   UNK N   1      26.547  18.089   5.181  0.00  0.00     0.031 A 
HETATM   16  C   UNK N   1      26.398  20.381   3.662  0.00  0.00     0.010 A 
HETATM   17  C   UNK N   1      19.893  19.380   2.801  0.00  0.00     0.001 A 
HETATM   18  C   UNK N   1      20.476  20.495   2.214  0.00  0.00     0.001 A 
HETATM   19  C   UNK N   1      27.695  18.843   4.959  0.00  0.00     0.002 A 
HETATM   20  C   UNK N   1      27.619  19.995   4.196  0.00  0.00     0.001 A 
HETATM   21  H   UNK N   1      25.395  15.083   6.860  0.00  0.00     0.174 HD
HETATM   22  H   UNK N   1      26.275  16.393   6.216  0.00  0.00     0.174 HD
ENDROOT
TORSDOF 0
ENDMDL
MODEL 8
REMARK VINA RESULT:      -6.7     21.630     24.809
REMARK  0 active torsions:
REMARK  status: ('A' for Active; 'I' for Inactive)
REMARK       I    between atoms: N_4  and  C_12 
ROOT
HETATM    1  N   UNK N   1      27.940  23.159  -6.263  0.00  0.00    -0.173 N 
HETATM    2  N   UNK N   1      27.074  22.638  -8.283  0.00  0.00    -0.224 N 
ATOM      3  HN  UNK N   1      26.935  22.136  -9.161  1.00  0.00     0.177 HD
HETATM    4  N   UNK N   1      28.777  21.189  -7.581  0.00  0.00    -0.235 N 
HETATM    5  C   UNK N   1      26.925  24.150  -6.513  0.00  0.00     0.160 A 
HETATM    6  C   UNK N   1      26.443  25.318  -5.708  0.00  0.00    -0.026 A 
HETATM    7  C   UNK N   1      26.322  23.807  -7.893  0.00  0.00     0.169 A 
HETATM    8  C   UNK N   1      28.818  22.993  -5.132  0.00  0.00     0.059 A 
HETATM    9  C   UNK N   1      26.936  25.698  -4.446  0.00  0.00    -0.045 A 
HETATM   10  C   UNK N   1      28.009  25.031  -3.680  0.00  0.00     0.080 A 
HETATM   11  C   UNK N   1      28.839  23.838  -3.982  0.00  0.00    -0.026 A 
HETATM   12  C   UNK N   1      27.931  22.310  -7.400  0.00  0.00     0.675 A 
HETATM   13  C   UNK N   1      25.411  26.084  -6.281  0.00  0.00     0.010 A 
HETATM   14  C   UNK N   1      26.392  26.817  -3.803  0.00  0.00     0.008 A 
HETATM   15  C   UNK N   1      29.729  21.917  -5.154  0.00  0.00     0.031 A 
HETATM   16  C   UNK N   1      29.747  23.564  -2.948  0.00  0.00     0.010 A 
HETATM   17  C   UNK N   1      24.879  27.196  -5.629  0.00  0.00     0.001 A 
HETATM   18  C   UNK N   1      25.372  27.564  -4.384  0.00  0.00     0.001 A 
HETATM   19  C   UNK N   1      30.620  21.667  -4.116  0.00  0.00     0.002 A 
HETATM   20  C   UNK N   1      30.629  22.495  -3.007  0.00  0.00     0.001 A 
HETATM   21  H   UNK N   1      28.709  20.649  -8.400  0.00  0.00     0.174 HD
HETATM   22  H   UNK N   1      29.433  20.952  -6.887  0.00  0.00     0.174 HD
ENDROOT
TORSDOF 0
ENDMDL
MODEL 9
REMARK VINA RESULT:      -6.7     20.972     23.377
REMARK  0 active torsions:
REMARK  status: ('A' for Active; 'I' for Inactive)
REMARK       I    between atoms: N_4  and  C_12 
ROOT
HETATM    1  N   UNK N   1      29.955  22.045  -4.535  0.00  0.00    -0.173 N 
HETATM    2  N   UNK N   1      30.883  22.470  -2.520  0.00  0.00    -0.224 N 
ATOM      3  HN  UNK N   1      31.521  22.388  -1.728  1.00  0.00     0.177 HD
HETATM    4  N   UNK N   1      31.947  20.754  -3.711  0.00  0.00    -0.235 N 
HETATM    5  C   UNK N   1      29.172  23.113  -3.969  0.00  0.00     0.160 A 
HETATM    6  C   UNK N   1      27.984  23.868  -4.483  0.00  0.00    -0.026 A 
HETATM    7  C   UNK N   1      29.794  23.415  -2.589  0.00  0.00     0.169 A 
HETATM    8  C   UNK N   1      29.824  21.367  -5.801  0.00  0.00     0.059 A 
HETATM    9  C   UNK N   1      27.357  23.656  -5.725  0.00  0.00    -0.045 A 
HETATM   10  C   UNK N   1      27.741  22.663  -6.749  0.00  0.00     0.080 A 
HETATM   11  C   UNK N   1      28.829  21.653  -6.784  0.00  0.00    -0.026 A 
HETATM   12  C   UNK N   1      30.951  21.749  -3.568  0.00  0.00     0.675 A 
HETATM   13  C   UNK N   1      27.469  24.868  -3.637  0.00  0.00     0.010 A 
HETATM   14  C   UNK N   1      26.251  24.438  -6.080  0.00  0.00     0.008 A 
HETATM   15  C   UNK N   1      30.745  20.342  -6.100  0.00  0.00     0.031 A 
HETATM   16  C   UNK N   1      28.814  20.916  -7.976  0.00  0.00     0.010 A 
HETATM   17  C   UNK N   1      26.367  25.638  -4.004  0.00  0.00     0.001 A 
HETATM   18  C   UNK N   1      25.755  25.422  -5.232  0.00  0.00     0.001 A 
HETATM   19  C   UNK N   1      30.709  19.626  -7.292  0.00  0.00     0.002 A 
HETATM   20  C   UNK N   1      29.738  19.914  -8.234  0.00  0.00     0.001 A 
HETATM   21  H   UNK N   1      32.604  20.609  -2.993  0.00  0.00     0.174 HD
HETATM   22  H   UNK N   1      31.983  20.207  -4.528  0.00  0.00     0.174 HD
ENDROOT
TORSDOF 0
ENDMDL
