MODEL 1
REMARK VINA RESULT:      -6.6      0.000      0.000
REMARK  6 active torsions:
REMARK  status: ('A' for Active; 'I' for Inactive)
REMARK    1  A    between atoms: O_1  and  C_22 
REMARK    2  A    between atoms: C_6  and  C_11 
REMARK    3  A    between atoms: C_13  and  C_14 
REMARK    4  A    between atoms: C_16  and  C_17 
REMARK    5  A    between atoms: C_18  and  C_19 
REMARK    6  A    between atoms: C_21  and  C_22 
ROOT
HETATM    1  C   UNK N   1      34.149   7.508  19.186  0.00  0.00    -0.062 C 
HETATM    2  C   UNK N   1      35.378   6.682  19.322  0.00  0.00     0.048 C 
HETATM    3  C   UNK N   1      33.005   6.964  19.620  0.00  0.00     0.007 C 
ENDROOT
BRANCH   1   4
HETATM    4  C   UNK N   1      34.319   8.853  18.596  0.00  0.00     0.007 C 
HETATM    5  C   UNK N   1      35.457   9.516  18.377  0.00  0.00     0.009 C 
BRANCH   5   6
HETATM    6  C   UNK N   1      35.438  10.878  17.746  0.00  0.00    -0.048 C 
HETATM    7  C   UNK N   1      35.576  11.026  16.216  0.00  0.00    -0.020 C 
HETATM    8  C   UNK N   1      35.681  12.479  15.747  0.00  0.00     0.014 C 
HETATM    9  C   UNK N   1      34.380  10.384  15.530  0.00  0.00     0.020 C 
HETATM   10  C   UNK N   1      36.843  10.346  15.725  0.00  0.00     0.020 C 
HETATM   11  C   UNK N   1      34.738  13.372  16.519  0.00  0.00     0.005 C 
HETATM   12  C   UNK N   1      35.192  13.369  17.970  0.00  0.00     0.034 C 
HETATM   13  C   UNK N   1      35.273  11.974  18.539  0.00  0.00    -0.077 C 
HETATM   14  C   UNK N   1      35.141  11.839  20.024  0.00  0.00     0.044 C 
ENDBRANCH   5   6
ENDBRANCH   1   4
BRANCH   3  15
HETATM   15  C   UNK N   1      31.654   7.546  19.619  0.00  0.00     0.001 C 
HETATM   16  C   UNK N   1      31.195   8.283  20.654  0.00  0.00     0.007 C 
BRANCH  16  17
HETATM   17  C   UNK N   1      31.929   8.597  21.921  0.00  0.00    -0.056 C 
HETATM   18  C   UNK N   1      31.981   7.620  23.060  0.00  0.00     0.048 C 
HETATM   19  C   UNK N   1      32.543   9.790  22.018  0.00  0.00     0.087 C 
BRANCH  19  20
HETATM   20  C   UNK N   1      33.327  10.277  23.187  0.00  0.00     0.165 C 
HETATM   21  O   UNK N   1      32.794  10.867  24.113  0.00  0.00    -0.647 OA
BRANCH  20  22
HETATM   22  O   UNK N   1      34.654  10.054  23.225  0.00  0.00    -0.773 OA
HETATM   23  H   UNK N   1      35.032   9.588  23.945  0.00  0.00     0.167 HD
ENDBRANCH  20  22
ENDBRANCH  19  20
ENDBRANCH  16  17
ENDBRANCH   3  15
TORSDOF 6
ENDMDL
MODEL 2
REMARK VINA RESULT:      -6.6     14.920     17.974
REMARK  6 active torsions:
REMARK  status: ('A' for Active; 'I' for Inactive)
REMARK    1  A    between atoms: O_1  and  C_22 
REMARK    2  A    between atoms: C_6  and  C_11 
REMARK    3  A    between atoms: C_13  and  C_14 
REMARK    4  A    between atoms: C_16  and  C_17 
REMARK    5  A    between atoms: C_18  and  C_19 
REMARK    6  A    between atoms: C_21  and  C_22 
ROOT
HETATM    1  C   UNK N   1      26.790  20.529   6.141  0.00  0.00    -0.062 C 
HETATM    2  C   UNK N   1      26.359  21.410   7.258  0.00  0.00     0.048 C 
HETATM    3  C   UNK N   1      26.107  20.631   4.993  0.00  0.00     0.007 C 
ENDROOT
BRANCH   1   4
HETATM    4  C   UNK N   1      27.939  19.637   6.407  0.00  0.00     0.007 C 
HETATM    5  C   UNK N   1      27.922  18.419   6.956  0.00  0.00     0.009 C 
BRANCH   5   6
HETATM    6  C   UNK N   1      29.196  17.645   7.135  0.00  0.00    -0.048 C 
HETATM    7  C   UNK N   1      29.725  16.748   5.996  0.00  0.00    -0.020 C 
HETATM    8  C   UNK N   1      30.951  15.920   6.386  0.00  0.00     0.014 C 
HETATM    9  C   UNK N   1      30.087  17.607   4.794  0.00  0.00     0.020 C 
HETATM   10  C   UNK N   1      28.669  15.740   5.575  0.00  0.00     0.020 C 
HETATM   11  C   UNK N   1      31.910  16.727   7.231  0.00  0.00     0.005 C 
HETATM   12  C   UNK N   1      31.200  17.061   8.533  0.00  0.00     0.034 C 
HETATM   13  C   UNK N   1      29.887  17.766   8.303  0.00  0.00    -0.077 C 
HETATM   14  C   UNK N   1      29.380  18.633   9.413  0.00  0.00     0.044 C 
ENDBRANCH   5   6
ENDBRANCH   1   4
BRANCH   3  15
HETATM   15  C   UNK N   1      26.314  19.899   3.734  0.00  0.00     0.001 C 
HETATM   16  C   UNK N   1      25.656  18.751   3.460  0.00  0.00     0.007 C 
BRANCH  16  17
HETATM   17  C   UNK N   1      24.679  18.048   4.350  0.00  0.00    -0.056 C 
HETATM   18  C   UNK N   1      25.079  16.853   5.167  0.00  0.00     0.048 C 
HETATM   19  C   UNK N   1      23.418  18.515   4.398  0.00  0.00     0.087 C 
BRANCH  19  20
HETATM   20  C   UNK N   1      22.312  17.960   5.227  0.00  0.00     0.165 C 
HETATM   21  O   UNK N   1      21.562  17.099   4.797  0.00  0.00    -0.647 OA
BRANCH  20  22
HETATM   22  O   UNK N   1      22.141  18.415   6.483  0.00  0.00    -0.773 OA
HETATM   23  H   UNK N   1      21.469  19.040   6.670  0.00  0.00     0.167 HD
ENDBRANCH  20  22
ENDBRANCH  19  20
ENDBRANCH  16  17
ENDBRANCH   3  15
TORSDOF 6
ENDMDL
MODEL 3
REMARK VINA RESULT:      -6.4     26.458     29.892
REMARK  6 active torsions:
REMARK  status: ('A' for Active; 'I' for Inactive)
REMARK    1  A    between atoms: O_1  and  C_22 
REMARK    2  A    between atoms: C_6  and  C_11 
REMARK    3  A    between atoms: C_13  and  C_14 
REMARK    4  A    between atoms: C_16  and  C_17 
REMARK    5  A    between atoms: C_18  and  C_19 
REMARK    6  A    between atoms: C_21  and  C_22 
ROOT
HETATM    1  C   UNK N   1      27.802  23.292  -6.827  0.00  0.00    -0.062 C 
HETATM    2  C   UNK N   1      26.516  22.565  -6.993  0.00  0.00     0.048 C 
HETATM    3  C   UNK N   1      28.921  22.611  -7.107  0.00  0.00     0.007 C 
ENDROOT
BRANCH   1   4
HETATM    4  C   UNK N   1      27.715  24.699  -6.380  0.00  0.00     0.007 C 
HETATM    5  C   UNK N   1      26.994  25.687  -6.917  0.00  0.00     0.009 C 
BRANCH   5   6
HETATM    6  C   UNK N   1      27.014  27.061  -6.314  0.00  0.00    -0.048 C 
HETATM    7  C   UNK N   1      26.087  27.401  -5.127  0.00  0.00    -0.020 C 
HETATM    8  C   UNK N   1      26.124  28.876  -4.722  0.00  0.00     0.014 C 
HETATM    9  C   UNK N   1      26.471  26.560  -3.919  0.00  0.00     0.020 C 
HETATM   10  C   UNK N   1      24.637  27.111  -5.482  0.00  0.00     0.020 C 
HETATM   11  C   UNK N   1      27.533  29.421  -4.771  0.00  0.00     0.005 C 
HETATM   12  C   UNK N   1      27.990  29.375  -6.220  0.00  0.00     0.034 C 
HETATM   13  C   UNK N   1      27.877  27.991  -6.810  0.00  0.00    -0.077 C 
HETATM   14  C   UNK N   1      28.779  27.669  -7.962  0.00  0.00     0.044 C 
ENDBRANCH   5   6
ENDBRANCH   1   4
BRANCH   3  15
HETATM   15  C   UNK N   1      30.316  23.071  -7.043  0.00  0.00     0.001 C 
HETATM   16  C   UNK N   1      31.034  23.014  -5.900  0.00  0.00     0.007 C 
BRANCH  16  17
HETATM   17  C   UNK N   1      30.554  22.526  -4.568  0.00  0.00    -0.056 C 
HETATM   18  C   UNK N   1      30.481  21.061  -4.248  0.00  0.00     0.048 C 
HETATM   19  C   UNK N   1      30.180  23.442  -3.655  0.00  0.00     0.087 C 
BRANCH  19  20
HETATM   20  C   UNK N   1      29.688  23.155  -2.280  0.00  0.00     0.165 C 
HETATM   21  O   UNK N   1      30.457  23.015  -1.343  0.00  0.00    -0.647 OA
BRANCH  20  22
HETATM   22  O   UNK N   1      28.363  23.055  -2.064  0.00  0.00    -0.773 OA
HETATM   23  H   UNK N   1      28.008  23.244  -1.218  0.00  0.00     0.167 HD
ENDBRANCH  20  22
ENDBRANCH  19  20
ENDBRANCH  16  17
ENDBRANCH   3  15
TORSDOF 6
ENDMDL
MODEL 4
REMARK VINA RESULT:      -6.2     14.348     17.630
REMARK  6 active torsions:
REMARK  status: ('A' for Active; 'I' for Inactive)
REMARK    1  A    between atoms: O_1  and  C_22 
REMARK    2  A    between atoms: C_6  and  C_11 
REMARK    3  A    between atoms: C_13  and  C_14 
REMARK    4  A    between atoms: C_16  and  C_17 
REMARK    5  A    between atoms: C_18  and  C_19 
REMARK    6  A    between atoms: C_21  and  C_22 
ROOT
HETATM    1  C   UNK N   1      26.772  20.698   6.397  0.00  0.00    -0.062 C 
HETATM    2  C   UNK N   1      26.167  21.394   7.563  0.00  0.00     0.048 C 
HETATM    3  C   UNK N   1      26.189  20.896   5.207  0.00  0.00     0.007 C 
ENDROOT
BRANCH   1   4
HETATM    4  C   UNK N   1      27.964  19.866   6.668  0.00  0.00     0.007 C 
HETATM    5  C   UNK N   1      28.002  18.591   7.063  0.00  0.00     0.009 C 
BRANCH   5   6
HETATM    6  C   UNK N   1      29.316  17.897   7.274  0.00  0.00    -0.048 C 
HETATM    7  C   UNK N   1      29.926  17.803   8.689  0.00  0.00    -0.020 C 
HETATM    8  C   UNK N   1      31.328  17.193   8.714  0.00  0.00     0.014 C 
HETATM    9  C   UNK N   1      29.021  16.968   9.583  0.00  0.00     0.020 C 
HETATM   10  C   UNK N   1      30.072  19.187   9.301  0.00  0.00     0.020 C 
HETATM   11  C   UNK N   1      31.434  16.027   7.758  0.00  0.00     0.005 C 
HETATM   12  C   UNK N   1      31.241  16.571   6.352  0.00  0.00     0.034 C 
HETATM   13  C   UNK N   1      29.946  17.330   6.207  0.00  0.00    -0.077 C 
HETATM   14  C   UNK N   1      29.361  17.417   4.831  0.00  0.00     0.044 C 
ENDBRANCH   5   6
ENDBRANCH   1   4
BRANCH   3  15
HETATM   15  C   UNK N   1      26.571  20.349   3.896  0.00  0.00     0.001 C 
HETATM   16  C   UNK N   1      26.131  19.145   3.470  0.00  0.00     0.007 C 
BRANCH  16  17
HETATM   17  C   UNK N   1      25.250  18.198   4.225  0.00  0.00    -0.056 C 
HETATM   18  C   UNK N   1      23.825  18.543   4.553  0.00  0.00     0.048 C 
HETATM   19  C   UNK N   1      25.772  17.019   4.611  0.00  0.00     0.087 C 
BRANCH  19  20
HETATM   20  C   UNK N   1      25.055  15.948   5.356  0.00  0.00     0.165 C 
HETATM   21  O   UNK N   1      24.388  15.105   4.778  0.00  0.00    -0.647 OA
BRANCH  20  22
HETATM   22  O   UNK N   1      25.152  15.905   6.698  0.00  0.00    -0.773 OA
HETATM   23  H   UNK N   1      25.813  15.379   7.105  0.00  0.00     0.167 HD
ENDBRANCH  20  22
ENDBRANCH  19  20
ENDBRANCH  16  17
ENDBRANCH   3  15
TORSDOF 6
ENDMDL
MODEL 5
REMARK VINA RESULT:      -6.1     12.773     16.076
REMARK  6 active torsions:
REMARK  status: ('A' for Active; 'I' for Inactive)
REMARK    1  A    between atoms: O_1  and  C_22 
REMARK    2  A    between atoms: C_6  and  C_11 
REMARK    3  A    between atoms: C_13  and  C_14 
REMARK    4  A    between atoms: C_16  and  C_17 
REMARK    5  A    between atoms: C_18  and  C_19 
REMARK    6  A    between atoms: C_21  and  C_22 
ROOT
HETATM    1  C   UNK N   1      29.751  18.011   8.502  0.00  0.00    -0.062 C 
HETATM    2  C   UNK N   1      29.382  18.609   9.812  0.00  0.00     0.048 C 
HETATM    3  C   UNK N   1      30.955  17.429   8.422  0.00  0.00     0.007 C 
ENDROOT
BRANCH   1   4
HETATM    4  C   UNK N   1      28.745  18.109   7.423  0.00  0.00     0.007 C 
HETATM    5  C   UNK N   1      28.929  18.509   6.162  0.00  0.00     0.009 C 
BRANCH   5   6
HETATM    6  C   UNK N   1      27.785  18.528   5.192  0.00  0.00    -0.048 C 
HETATM    7  C   UNK N   1      27.400  17.246   4.422  0.00  0.00    -0.020 C 
HETATM    8  C   UNK N   1      26.310  17.466   3.371  0.00  0.00     0.014 C 
HETATM    9  C   UNK N   1      26.920  16.185   5.400  0.00  0.00     0.020 C 
HETATM   10  C   UNK N   1      28.597  16.700   3.660  0.00  0.00     0.020 C 
HETATM   11  C   UNK N   1      25.238  18.400   3.882  0.00  0.00     0.005 C 
HETATM   12  C   UNK N   1      25.884  19.758   4.103  0.00  0.00     0.034 C 
HETATM   13  C   UNK N   1      27.078  19.680   5.021  0.00  0.00    -0.077 C 
HETATM   14  C   UNK N   1      27.446  20.927   5.763  0.00  0.00     0.044 C 
ENDBRANCH   5   6
ENDBRANCH   1   4
BRANCH   3  15
HETATM   15  C   UNK N   1      31.574  16.757   7.270  0.00  0.00     0.001 C 
HETATM   16  C   UNK N   1      32.908  16.557   7.193  0.00  0.00     0.007 C 
BRANCH  16  17
HETATM   17  C   UNK N   1      33.934  16.985   8.196  0.00  0.00    -0.056 C 
HETATM   18  C   UNK N   1      34.539  18.360   8.164  0.00  0.00     0.048 C 
HETATM   19  C   UNK N   1      34.309  16.097   9.136  0.00  0.00     0.087 C 
BRANCH  19  20
HETATM   20  C   UNK N   1      35.301  16.339  10.219  0.00  0.00     0.165 C 
HETATM   21  O   UNK N   1      36.440  15.906  10.151  0.00  0.00    -0.647 OA
BRANCH  20  22
HETATM   22  O   UNK N   1      34.935  17.059  11.296  0.00  0.00    -0.773 OA
HETATM   23  H   UNK N   1      34.110  17.504  11.306  0.00  0.00     0.167 HD
ENDBRANCH  20  22
ENDBRANCH  19  20
ENDBRANCH  16  17
ENDBRANCH   3  15
TORSDOF 6
ENDMDL
MODEL 6
REMARK VINA RESULT:      -6.1     26.218     29.702
REMARK  6 active torsions:
REMARK  status: ('A' for Active; 'I' for Inactive)
REMARK    1  A    between atoms: O_1  and  C_22 
REMARK    2  A    between atoms: C_6  and  C_11 
REMARK    3  A    between atoms: C_13  and  C_14 
REMARK    4  A    between atoms: C_16  and  C_17 
REMARK    5  A    between atoms: C_18  and  C_19 
REMARK    6  A    between atoms: C_21  and  C_22 
ROOT
HETATM    1  C   UNK N   1      27.483  26.809  -6.602  0.00  0.00    -0.062 C 
HETATM    2  C   UNK N   1      28.268  27.118  -7.826  0.00  0.00     0.048 C 
HETATM    3  C   UNK N   1      26.294  27.414  -6.480  0.00  0.00     0.007 C 
ENDROOT
BRANCH   1   4
HETATM    4  C   UNK N   1      28.090  25.855  -5.650  0.00  0.00     0.007 C 
HETATM    5  C   UNK N   1      27.922  24.531  -5.595  0.00  0.00     0.009 C 
BRANCH   5   6
HETATM    6  C   UNK N   1      28.639  23.713  -4.561  0.00  0.00    -0.048 C 
HETATM    7  C   UNK N   1      29.858  22.855  -4.960  0.00  0.00    -0.020 C 
HETATM    8  C   UNK N   1      30.386  21.974  -3.825  0.00  0.00     0.014 C 
HETATM    9  C   UNK N   1      30.987  23.757  -5.434  0.00  0.00     0.020 C 
HETATM   10  C   UNK N   1      29.494  21.898  -6.084  0.00  0.00     0.020 C 
HETATM   11  C   UNK N   1      30.370  22.713  -2.507  0.00  0.00     0.005 C 
HETATM   12  C   UNK N   1      28.918  23.006  -2.166  0.00  0.00     0.034 C 
HETATM   13  C   UNK N   1      28.214  23.760  -3.267  0.00  0.00    -0.077 C 
HETATM   14  C   UNK N   1      27.032  24.589  -2.873  0.00  0.00     0.044 C 
ENDBRANCH   5   6
ENDBRANCH   1   4
BRANCH   3  15
HETATM   15  C   UNK N   1      25.310  27.293  -5.393  0.00  0.00     0.001 C 
HETATM   16  C   UNK N   1      25.446  27.967  -4.230  0.00  0.00     0.007 C 
BRANCH  16  17
HETATM   17  C   UNK N   1      26.570  28.882  -3.854  0.00  0.00    -0.056 C 
HETATM   18  C   UNK N   1      26.626  30.299  -4.346  0.00  0.00     0.048 C 
HETATM   19  C   UNK N   1      27.542  28.397  -3.060  0.00  0.00     0.087 C 
BRANCH  19  20
HETATM   20  C   UNK N   1      28.729  29.151  -2.571  0.00  0.00     0.165 C 
HETATM   21  O   UNK N   1      28.701  29.778  -1.525  0.00  0.00    -0.647 OA
BRANCH  20  22
HETATM   22  O   UNK N   1      29.862  29.135  -3.299  0.00  0.00    -0.773 OA
HETATM   23  H   UNK N   1      30.051  28.407  -3.858  0.00  0.00     0.167 HD
ENDBRANCH  20  22
ENDBRANCH  19  20
ENDBRANCH  16  17
ENDBRANCH   3  15
TORSDOF 6
ENDMDL
MODEL 7
REMARK VINA RESULT:      -6.1     15.327     18.152
REMARK  6 active torsions:
REMARK  status: ('A' for Active; 'I' for Inactive)
REMARK    1  A    between atoms: O_1  and  C_22 
REMARK    2  A    between atoms: C_6  and  C_11 
REMARK    3  A    between atoms: C_13  and  C_14 
REMARK    4  A    between atoms: C_16  and  C_17 
REMARK    5  A    between atoms: C_18  and  C_19 
REMARK    6  A    between atoms: C_21  and  C_22 
ROOT
HETATM    1  C   UNK N   1      27.129  16.115   3.891  0.00  0.00    -0.062 C 
HETATM    2  C   UNK N   1      27.731  15.793   2.571  0.00  0.00     0.048 C 
HETATM    3  C   UNK N   1      25.793  16.212   3.937  0.00  0.00     0.007 C 
ENDROOT
BRANCH   1   4
HETATM    4  C   UNK N   1      28.065  16.284   5.023  0.00  0.00     0.007 C 
HETATM    5  C   UNK N   1      28.901  17.301   5.252  0.00  0.00     0.009 C 
BRANCH   5   6
HETATM    6  C   UNK N   1      29.773  17.311   6.473  0.00  0.00    -0.048 C 
HETATM    7  C   UNK N   1      31.133  16.580   6.462  0.00  0.00    -0.020 C 
HETATM    8  C   UNK N   1      31.833  16.566   7.822  0.00  0.00     0.014 C 
HETATM    9  C   UNK N   1      32.060  17.237   5.450  0.00  0.00     0.020 C 
HETATM   10  C   UNK N   1      30.951  15.120   6.080  0.00  0.00     0.020 C 
HETATM   11  C   UNK N   1      31.686  17.894   8.527  0.00  0.00     0.005 C 
HETATM   12  C   UNK N   1      30.208  18.094   8.821  0.00  0.00     0.034 C 
HETATM   13  C   UNK N   1      29.361  17.995   7.577  0.00  0.00    -0.077 C 
HETATM   14  C   UNK N   1      28.043  18.706   7.596  0.00  0.00     0.044 C 
ENDBRANCH   5   6
ENDBRANCH   1   4
BRANCH   3  15
HETATM   15  C   UNK N   1      24.935  16.507   5.095  0.00  0.00     0.001 C 
HETATM   16  C   UNK N   1      24.479  17.754   5.346  0.00  0.00     0.007 C 
BRANCH  16  17
HETATM   17  C   UNK N   1      24.774  18.988   4.551  0.00  0.00    -0.056 C 
HETATM   18  C   UNK N   1      26.067  19.735   4.712  0.00  0.00     0.048 C 
HETATM   19  C   UNK N   1      23.841  19.420   3.683  0.00  0.00     0.087 C 
BRANCH  19  20
HETATM   20  C   UNK N   1      23.954  20.614   2.801  0.00  0.00     0.165 C 
HETATM   21  O   UNK N   1      23.183  21.555   2.898  0.00  0.00    -0.647 OA
BRANCH  20  22
HETATM   22  O   UNK N   1      24.936  20.660   1.881  0.00  0.00    -0.773 OA
HETATM   23  H   UNK N   1      25.373  19.873   1.620  0.00  0.00     0.167 HD
ENDBRANCH  20  22
ENDBRANCH  19  20
ENDBRANCH  16  17
ENDBRANCH   3  15
TORSDOF 6
ENDMDL
MODEL 8
REMARK VINA RESULT:      -6.0     13.890     16.920
REMARK  6 active torsions:
REMARK  status: ('A' for Active; 'I' for Inactive)
REMARK    1  A    between atoms: O_1  and  C_22 
REMARK    2  A    between atoms: C_6  and  C_11 
REMARK    3  A    between atoms: C_13  and  C_14 
REMARK    4  A    between atoms: C_16  and  C_17 
REMARK    5  A    between atoms: C_18  and  C_19 
REMARK    6  A    between atoms: C_21  and  C_22 
ROOT
HETATM    1  C   UNK N   1      29.301  15.422   5.145  0.00  0.00    -0.062 C 
HETATM    2  C   UNK N   1      28.710  14.058   5.174  0.00  0.00     0.048 C 
HETATM    3  C   UNK N   1      30.614  15.516   5.391  0.00  0.00     0.007 C 
ENDROOT
BRANCH   1   4
HETATM    4  C   UNK N   1      28.380  16.537   4.835  0.00  0.00     0.007 C 
HETATM    5  C   UNK N   1      27.435  17.062   5.619  0.00  0.00     0.009 C 
BRANCH   5   6
HETATM    6  C   UNK N   1      26.598  18.212   5.140  0.00  0.00    -0.048 C 
HETATM    7  C   UNK N   1      27.092  19.663   5.330  0.00  0.00    -0.020 C 
HETATM    8  C   UNK N   1      26.065  20.719   4.919  0.00  0.00     0.014 C 
HETATM    9  C   UNK N   1      28.360  19.882   4.518  0.00  0.00     0.020 C 
HETATM   10  C   UNK N   1      27.397  19.937   6.794  0.00  0.00     0.020 C 
HETATM   11  C   UNK N   1      25.343  20.317   3.653  0.00  0.00     0.005 C 
HETATM   12  C   UNK N   1      24.547  19.060   3.962  0.00  0.00     0.034 C 
HETATM   13  C   UNK N   1      25.414  17.957   4.516  0.00  0.00    -0.077 C 
HETATM   14  C   UNK N   1      24.928  16.553   4.330  0.00  0.00     0.044 C 
ENDBRANCH   5   6
ENDBRANCH   1   4
BRANCH   3  15
HETATM   15  C   UNK N   1      31.459  16.720   5.419  0.00  0.00     0.001 C 
HETATM   16  C   UNK N   1      31.611  17.458   6.540  0.00  0.00     0.007 C 
BRANCH  16  17
HETATM   17  C   UNK N   1      30.962  17.210   7.867  0.00  0.00    -0.056 C 
HETATM   18  C   UNK N   1      31.472  16.154   8.805  0.00  0.00     0.048 C 
HETATM   19  C   UNK N   1      29.897  17.962   8.200  0.00  0.00     0.087 C 
BRANCH  19  20
HETATM   20  C   UNK N   1      29.128  17.873   9.472  0.00  0.00     0.165 C 
HETATM   21  O   UNK N   1      28.063  17.281   9.535  0.00  0.00    -0.647 OA
BRANCH  20  22
HETATM   22  O   UNK N   1      29.625  18.454  10.581  0.00  0.00    -0.773 OA
HETATM   23  H   UNK N   1      30.445  18.169  10.934  0.00  0.00     0.167 HD
ENDBRANCH  20  22
ENDBRANCH  19  20
ENDBRANCH  16  17
ENDBRANCH   3  15
TORSDOF 6
ENDMDL
MODEL 9
REMARK VINA RESULT:      -6.0      5.348      8.711
REMARK  6 active torsions:
REMARK  status: ('A' for Active; 'I' for Inactive)
REMARK    1  A    between atoms: O_1  and  C_22 
REMARK    2  A    between atoms: C_6  and  C_11 
REMARK    3  A    between atoms: C_13  and  C_14 
REMARK    4  A    between atoms: C_16  and  C_17 
REMARK    5  A    between atoms: C_18  and  C_19 
REMARK    6  A    between atoms: C_21  and  C_22 
ROOT
HETATM    1  C   UNK N   1      36.538  13.377  13.157  0.00  0.00    -0.062 C 
HETATM    2  C   UNK N   1      36.214  14.828  13.111  0.00  0.00     0.048 C 
HETATM    3  C   UNK N   1      36.963  12.819  12.016  0.00  0.00     0.007 C 
ENDROOT
BRANCH   1   4
HETATM    4  C   UNK N   1      36.367  12.702  14.461  0.00  0.00     0.007 C 
HETATM    5  C   UNK N   1      35.450  12.948  15.399  0.00  0.00     0.009 C 
BRANCH   5   6
HETATM    6  C   UNK N   1      35.417  12.143  16.665  0.00  0.00    -0.048 C 
HETATM    7  C   UNK N   1      35.477  10.602  16.606  0.00  0.00    -0.020 C 
HETATM    8  C   UNK N   1      35.291   9.928  17.967  0.00  0.00     0.014 C 
HETATM    9  C   UNK N   1      36.815  10.163  16.030  0.00  0.00     0.020 C 
HETATM   10  C   UNK N   1      34.365  10.057  15.724  0.00  0.00     0.020 C 
HETATM   11  C   UNK N   1      36.023  10.679  19.054  0.00  0.00     0.005 C 
HETATM   12  C   UNK N   1      35.377  12.050  19.176  0.00  0.00     0.034 C 
HETATM   13  C   UNK N   1      35.359  12.791  17.862  0.00  0.00    -0.077 C 
HETATM   14  C   UNK N   1      35.299  14.286  17.928  0.00  0.00     0.044 C 
ENDBRANCH   5   6
ENDBRANCH   1   4
BRANCH   3  15
HETATM   15  C   UNK N   1      37.360  11.424  11.770  0.00  0.00     0.001 C 
HETATM   16  C   UNK N   1      36.474  10.495  11.346  0.00  0.00     0.007 C 
BRANCH  16  17
HETATM   17  C   UNK N   1      35.013  10.705  11.093  0.00  0.00    -0.056 C 
HETATM   18  C   UNK N   1      34.007  10.647  12.207  0.00  0.00     0.048 C 
HETATM   19  C   UNK N   1      34.618  10.945   9.829  0.00  0.00     0.087 C 
BRANCH  19  20
HETATM   20  C   UNK N   1      33.219  11.188   9.383  0.00  0.00     0.165 C 
HETATM   21  O   UNK N   1      32.499  10.276   9.010  0.00  0.00    -0.647 OA
BRANCH  20  22
HETATM   22  O   UNK N   1      32.734  12.444   9.399  0.00  0.00    -0.773 OA
HETATM   23  H   UNK N   1      32.849  12.983  10.156  0.00  0.00     0.167 HD
ENDBRANCH  20  22
ENDBRANCH  19  20
ENDBRANCH  16  17
ENDBRANCH   3  15
TORSDOF 6
ENDMDL
