MODEL 1
REMARK VINA RESULT:      -8.6      0.000      0.000
REMARK  6 active torsions:
REMARK  status: ('A' for Active; 'I' for Inactive)
REMARK    1  A    between atoms: O_1  and  C_22 
REMARK    2  A    between atoms: O_1  and  C_39 
REMARK    3  A    between atoms: C_27  and  O_4 
REMARK    4  A    between atoms: N_7  and  C_12 
REMARK       I    between atoms: N_8  and  C_22 
REMARK    5  A    between atoms: C_27  and  C_34 
REMARK    6  A    between atoms: C_30  and  C_38 
ROOT
HETATM    1  O   UNK N   1      25.053  17.107   3.854  0.00  0.00    -0.314 OA
HETATM    2  O   UNK N   1      27.621  13.766   3.854  0.00  0.00    -0.267 OA
HETATM    3  O   UNK N   1      24.672  19.201   4.501  0.00  0.00    -0.261 OA
HETATM    4  N   UNK N   1      29.308  14.957   4.766  0.00  0.00    -0.307 N 
HETATM    5  N   UNK N   1      31.647  17.088   6.285  0.00  0.00    -0.353 N 
ATOM      6  HN  UNK N   1      31.282  18.036   6.201  1.00  0.00     0.166 HD
HETATM    7  C   UNK N   1      29.738  16.142   5.202  0.00  0.00     0.065 A 
HETATM    8  C   UNK N   1      31.418  14.775   5.720  0.00  0.00    -0.004 A 
HETATM    9  C   UNK N   1      30.362  13.927   4.991  0.00  0.00     0.174 A 
HETATM   10  C   UNK N   1      27.658  17.195   4.849  0.00  0.00     0.002 A 
HETATM   11  C   UNK N   1      26.811  18.419   5.068  0.00  0.00     0.173 C 
HETATM   12  C   UNK N   1      31.001  16.066   5.722  0.00  0.00     0.068 A 
HETATM   13  C   UNK N   1      27.171  15.989   4.291  0.00  0.00     0.044 A 
HETATM   14  C   UNK N   1      32.600  14.455   6.420  0.00  0.00    -0.036 A 
HETATM   15  C   UNK N   1      28.957  17.252   5.287  0.00  0.00     0.043 A 
HETATM   16  C   UNK N   1      28.026  14.839   4.269  0.00  0.00     0.257 A 
HETATM   17  C   UNK N   1      33.276  15.530   7.095  0.00  0.00     0.000 A 
HETATM   18  C   UNK N   1      25.762  15.915   3.786  0.00  0.00     0.224 C 
HETATM   19  C   UNK N   1      32.775  16.859   6.959  0.00  0.00     0.043 A 
HETATM   20  C   UNK N   1      25.454  18.264   4.445  0.00  0.00     0.298 C 
HETATM   21  C   UNK N   1      34.966  16.445   8.576  0.00  0.00     0.082 A 
HETATM   22  C   UNK N   1      34.384  15.335   7.932  0.00  0.00     0.051 A 
HETATM   23  C   UNK N   1      33.385  17.937   7.569  0.00  0.00     0.033 A 
HETATM   24  C   UNK N   1      34.481  17.736   8.365  0.00  0.00     0.040 A 
ENDROOT
BRANCH  21  25
HETATM   25  O   UNK N   1      36.004  16.283   9.402  0.00  0.00    -0.261 OA
BRANCH  25  26
HETATM   26  C   UNK N   1      35.778  16.124  10.723  0.00  0.00     0.368 C 
HETATM   27  O   UNK N   1      34.938  16.807  11.288  0.00  0.00    -0.238 OA
HETATM   28  N   UNK N   1      36.438  15.137  11.380  0.00  0.00    -0.328 N 
HETATM   29  C   UNK N   1      37.200  14.188  10.615  0.00  0.00     0.130 C 
HETATM   30  C   UNK N   1      35.981  14.696  12.663  0.00  0.00     0.130 C 
HETATM   31  C   UNK N   1      36.179  13.182  10.107  0.00  0.00     0.056 C 
HETATM   32  C   UNK N   1      35.368  12.603  11.285  0.00  0.00     0.226 C 
HETATM   33  C   UNK N   1      34.921  13.641  12.364  0.00  0.00     0.056 C 
BRANCH  32  34
HETATM   34  N   UNK N   1      36.033  11.401  11.807  0.00  0.00     0.093 N 
HETATM   35  C   UNK N   1      36.013  10.377  10.751  0.00  0.00     0.273 C 
HETATM   36  C   UNK N   1      34.579   9.953  10.404  0.00  0.00     0.030 C 
HETATM   37  C   UNK N   1      33.882   9.425  11.652  0.00  0.00     0.003 C 
HETATM   38  C   UNK N   1      33.951  10.447  12.778  0.00  0.00     0.030 C 
HETATM   39  C   UNK N   1      35.406  10.856  13.022  0.00  0.00     0.273 C 
ENDBRANCH  32  34
ENDBRANCH  25  26
ENDBRANCH  21  25
BRANCH  14  40
HETATM   40  C   UNK N   1      33.057  13.030   6.512  0.00  0.00     0.036 C 
HETATM   41  C   UNK N   1      33.911  12.652   5.314  0.00  0.00     0.010 C 
ENDBRANCH  14  40
BRANCH  11  42
HETATM   42  O   UNK N   1      26.633  18.592   6.446  0.00  0.00    -0.375 OA
HETATM   43  H   UNK N   1      26.882  18.797   7.361  0.00  0.00     0.211 HD
ENDBRANCH  11  42
BRANCH  11  44
HETATM   44  C   UNK N   1      27.492  19.681   4.495  0.00  0.00     0.049 C 
HETATM   45  C   UNK N   1      27.533  20.849   5.487  0.00  0.00     0.009 C 
ENDBRANCH  11  44
TORSDOF 6
ENDMDL
MODEL 2
REMARK VINA RESULT:      -8.4      1.436      2.161
REMARK  6 active torsions:
REMARK  status: ('A' for Active; 'I' for Inactive)
REMARK    1  A    between atoms: O_1  and  C_22 
REMARK    2  A    between atoms: O_1  and  C_39 
REMARK    3  A    between atoms: C_27  and  O_4 
REMARK    4  A    between atoms: N_7  and  C_12 
REMARK       I    between atoms: N_8  and  C_22 
REMARK    5  A    between atoms: C_27  and  C_34 
REMARK    6  A    between atoms: C_30  and  C_38 
ROOT
HETATM    1  O   UNK N   1      25.788  17.746   3.230  0.00  0.00    -0.314 OA
HETATM    2  O   UNK N   1      28.776  14.897   2.388  0.00  0.00    -0.267 OA
HETATM    3  O   UNK N   1      25.035  19.362   4.560  0.00  0.00    -0.261 OA
HETATM    4  N   UNK N   1      30.145  15.739   3.974  0.00  0.00    -0.307 N 
HETATM    5  N   UNK N   1      31.940  17.240   6.590  0.00  0.00    -0.353 N 
ATOM      6  HN  UNK N   1      31.461  18.110   6.817  1.00  0.00     0.166 HD
HETATM    7  C   UNK N   1      30.343  16.674   4.905  0.00  0.00     0.065 A 
HETATM    8  C   UNK N   1      32.114  15.345   5.141  0.00  0.00    -0.004 A 
HETATM    9  C   UNK N   1      31.294  14.789   3.964  0.00  0.00     0.174 A 
HETATM   10  C   UNK N   1      28.200  17.619   4.626  0.00  0.00     0.002 A 
HETATM   11  C   UNK N   1      27.169  18.581   5.148  0.00  0.00     0.173 C 
HETATM   12  C   UNK N   1      31.524  16.489   5.569  0.00  0.00     0.068 A 
HETATM   13  C   UNK N   1      27.966  16.710   3.566  0.00  0.00     0.044 A 
HETATM   14  C   UNK N   1      33.226  14.859   5.859  0.00  0.00    -0.036 A 
HETATM   15  C   UNK N   1      29.409  17.592   5.274  0.00  0.00     0.043 A 
HETATM   16  C   UNK N   1      28.968  15.737   3.252  0.00  0.00     0.257 A 
HETATM   17  C   UNK N   1      33.650  15.615   7.007  0.00  0.00     0.000 A 
HETATM   18  C   UNK N   1      26.660  16.741   2.831  0.00  0.00     0.224 C 
HETATM   19  C   UNK N   1      32.990  16.843   7.310  0.00  0.00     0.043 A 
HETATM   20  C   UNK N   1      25.942  18.591   4.285  0.00  0.00     0.298 C 
HETATM   21  C   UNK N   1      34.984  15.975   9.001  0.00  0.00     0.082 A 
HETATM   22  C   UNK N   1      34.654  15.182   7.884  0.00  0.00     0.051 A 
HETATM   23  C   UNK N   1      33.357  17.624   8.388  0.00  0.00     0.033 A 
HETATM   24  C   UNK N   1      34.356  17.200   9.225  0.00  0.00     0.040 A 
ENDROOT
BRANCH  21  25
HETATM   25  O   UNK N   1      35.916  15.571   9.869  0.00  0.00    -0.261 OA
BRANCH  25  26
HETATM   26  C   UNK N   1      36.498  14.366   9.700  0.00  0.00     0.368 C 
HETATM   27  O   UNK N   1      37.632  14.291   9.250  0.00  0.00    -0.238 OA
HETATM   28  N   UNK N   1      35.833  13.259  10.117  0.00  0.00    -0.328 N 
HETATM   29  C   UNK N   1      34.632  13.426  10.888  0.00  0.00     0.130 C 
HETATM   30  C   UNK N   1      36.533  12.023  10.293  0.00  0.00     0.130 C 
HETATM   31  C   UNK N   1      35.108  13.689  12.308  0.00  0.00     0.056 C 
HETATM   32  C   UNK N   1      36.055  12.562  12.771  0.00  0.00     0.226 C 
HETATM   33  C   UNK N   1      37.098  12.086  11.708  0.00  0.00     0.056 C 
BRANCH  32  34
HETATM   34  N   UNK N   1      35.282  11.492  13.415  0.00  0.00     0.093 N 
HETATM   35  C   UNK N   1      34.547  12.081  14.545  0.00  0.00     0.273 C 
HETATM   36  C   UNK N   1      35.502  12.621  15.619  0.00  0.00     0.030 C 
HETATM   37  C   UNK N   1      36.406  11.499  16.116  0.00  0.00     0.003 C 
HETATM   38  C   UNK N   1      37.125  10.834  14.951  0.00  0.00     0.030 C 
HETATM   39  C   UNK N   1      36.107  10.375  13.904  0.00  0.00     0.273 C 
ENDBRANCH  32  34
ENDBRANCH  25  26
ENDBRANCH  21  25
BRANCH  14  40
HETATM   40  C   UNK N   1      33.863  13.558   5.470  0.00  0.00     0.036 C 
HETATM   41  C   UNK N   1      33.103  12.380   6.056  0.00  0.00     0.010 C 
ENDBRANCH  14  40
BRANCH  11  42
HETATM   42  O   UNK N   1      26.788  18.166   6.430  0.00  0.00    -0.375 OA
HETATM   43  H   UNK N   1      26.822  17.646   7.249  0.00  0.00     0.211 HD
ENDBRANCH  11  42
BRANCH  11  44
HETATM   44  C   UNK N   1      27.736  20.014   5.241  0.00  0.00     0.049 C 
HETATM   45  C   UNK N   1      27.364  20.729   6.545  0.00  0.00     0.009 C 
ENDBRANCH  11  44
TORSDOF 6
ENDMDL
MODEL 3
REMARK VINA RESULT:      -8.4      3.215      6.325
REMARK  6 active torsions:
REMARK  status: ('A' for Active; 'I' for Inactive)
REMARK    1  A    between atoms: O_1  and  C_22 
REMARK    2  A    between atoms: O_1  and  C_39 
REMARK    3  A    between atoms: C_27  and  O_4 
REMARK    4  A    between atoms: N_7  and  C_12 
REMARK       I    between atoms: N_8  and  C_22 
REMARK    5  A    between atoms: C_27  and  C_34 
REMARK    6  A    between atoms: C_30  and  C_38 
ROOT
HETATM    1  O   UNK N   1      19.684  17.059   2.087  0.00  0.00    -0.314 OA
HETATM    2  O   UNK N   1      22.049  20.372   3.175  0.00  0.00    -0.267 OA
HETATM    3  O   UNK N   1      19.505  14.853   1.864  0.00  0.00    -0.261 OA
HETATM    4  N   UNK N   1      23.648  19.047   4.060  0.00  0.00    -0.307 N 
HETATM    5  N   UNK N   1      25.960  16.678   5.228  0.00  0.00    -0.353 N 
ATOM      6  HN  UNK N   1      25.482  15.777   5.236  1.00  0.00     0.166 HD
HETATM    7  C   UNK N   1      24.044  17.807   4.352  0.00  0.00     0.065 A 
HETATM    8  C   UNK N   1      25.811  19.043   4.909  0.00  0.00    -0.004 A 
HETATM    9  C   UNK N   1      24.717  20.016   4.437  0.00  0.00     0.174 A 
HETATM   10  C   UNK N   1      22.170  16.807   3.327  0.00  0.00     0.002 A 
HETATM   11  C   UNK N   1      21.522  15.535   2.852  0.00  0.00     0.173 C 
HETATM   12  C   UNK N   1      25.296  17.788   4.901  0.00  0.00     0.068 A 
HETATM   13  C   UNK N   1      21.654  18.100   3.070  0.00  0.00     0.044 A 
HETATM   14  C   UNK N   1      27.175  19.203   5.226  0.00  0.00    -0.036 A 
HETATM   15  C   UNK N   1      23.367  16.685   3.986  0.00  0.00     0.043 A 
HETATM   16  C   UNK N   1      22.433  19.244   3.437  0.00  0.00     0.257 A 
HETATM   17  C   UNK N   1      27.928  18.012   5.514  0.00  0.00     0.000 A 
HETATM   18  C   UNK N   1      20.337  18.252   2.371  0.00  0.00     0.224 C 
HETATM   19  C   UNK N   1      27.253  16.755   5.544  0.00  0.00     0.043 A 
HETATM   20  C   UNK N   1      20.173  15.801   2.250  0.00  0.00     0.298 C 
HETATM   21  C   UNK N   1      29.975  16.789   5.964  0.00  0.00     0.082 A 
HETATM   22  C   UNK N   1      29.315  18.010   5.716  0.00  0.00     0.051 A 
HETATM   23  C   UNK N   1      27.913  15.576   5.828  0.00  0.00     0.033 A 
HETATM   24  C   UNK N   1      29.266  15.591   6.047  0.00  0.00     0.040 A 
ENDROOT
BRANCH  21  25
HETATM   25  O   UNK N   1      31.300  16.756   6.131  0.00  0.00    -0.261 OA
BRANCH  25  26
HETATM   26  C   UNK N   1      31.837  17.265   7.258  0.00  0.00     0.368 C 
HETATM   27  O   UNK N   1      31.112  17.654   8.161  0.00  0.00    -0.238 OA
HETATM   28  N   UNK N   1      33.188  17.255   7.397  0.00  0.00    -0.328 N 
HETATM   29  C   UNK N   1      33.975  16.537   6.434  0.00  0.00     0.130 C 
HETATM   30  C   UNK N   1      33.779  17.441   8.688  0.00  0.00     0.130 C 
HETATM   31  C   UNK N   1      33.907  15.083   6.874  0.00  0.00     0.056 C 
HETATM   32  C   UNK N   1      34.355  14.950   8.345  0.00  0.00     0.226 C 
HETATM   33  C   UNK N   1      33.811  16.051   9.312  0.00  0.00     0.056 C 
BRANCH  32  34
HETATM   34  N   UNK N   1      35.804  14.719   8.408  0.00  0.00     0.093 N 
HETATM   35  C   UNK N   1      36.096  13.470   7.687  0.00  0.00     0.273 C 
HETATM   36  C   UNK N   1      35.443  12.259   8.370  0.00  0.00     0.030 C 
HETATM   37  C   UNK N   1      35.932  12.155   9.810  0.00  0.00     0.003 C 
HETATM   38  C   UNK N   1      35.698  13.463  10.552  0.00  0.00     0.030 C 
HETATM   39  C   UNK N   1      36.332  14.622   9.779  0.00  0.00     0.273 C 
ENDBRANCH  32  34
ENDBRANCH  25  26
ENDBRANCH  21  25
BRANCH  14  40
HETATM   40  C   UNK N   1      27.806  20.563   5.172  0.00  0.00     0.036 C 
HETATM   41  C   UNK N   1      27.438  21.386   6.394  0.00  0.00     0.010 C 
ENDBRANCH  14  40
BRANCH  11  42
HETATM   42  O   UNK N   1      22.331  14.972   1.858  0.00  0.00    -0.375 OA
HETATM   43  H   UNK N   1      23.146  14.635   1.453  0.00  0.00     0.211 HD
ENDBRANCH  11  42
BRANCH  11  44
HETATM   44  C   UNK N   1      21.373  14.519   4.004  0.00  0.00     0.049 C 
HETATM   45  C   UNK N   1      20.431  14.996   5.115  0.00  0.00     0.009 C 
ENDBRANCH  11  44
TORSDOF 6
ENDMDL
MODEL 4
REMARK VINA RESULT:      -8.3      6.801     13.840
REMARK  6 active torsions:
REMARK  status: ('A' for Active; 'I' for Inactive)
REMARK    1  A    between atoms: O_1  and  C_22 
REMARK    2  A    between atoms: O_1  and  C_39 
REMARK    3  A    between atoms: C_27  and  O_4 
REMARK    4  A    between atoms: N_7  and  C_12 
REMARK       I    between atoms: N_8  and  C_22 
REMARK    5  A    between atoms: C_27  and  C_34 
REMARK    6  A    between atoms: C_30  and  C_38 
ROOT
HETATM    1  O   UNK N   1      32.480   6.376  22.655  0.00  0.00    -0.314 OA
HETATM    2  O   UNK N   1      34.675   9.972  22.583  0.00  0.00    -0.267 OA
HETATM    3  O   UNK N   1      31.320   4.844  21.534  0.00  0.00    -0.261 OA
HETATM    4  N   UNK N   1      34.708  10.006  20.326  0.00  0.00    -0.307 N 
HETATM    5  N   UNK N   1      34.455   9.780  16.832  0.00  0.00    -0.353 N 
ATOM      6  HN  UNK N   1      34.112   8.844  16.620  1.00  0.00     0.166 HD
HETATM    7  C   UNK N   1      34.376   9.391  19.189  0.00  0.00     0.065 A 
HETATM    8  C   UNK N   1      35.238  11.321  18.486  0.00  0.00    -0.004 A 
HETATM    9  C   UNK N   1      35.363  11.309  20.019  0.00  0.00     0.174 A 
HETATM   10  C   UNK N   1      33.214   7.659  20.289  0.00  0.00     0.002 A 
HETATM   11  C   UNK N   1      32.293   6.476  20.157  0.00  0.00     0.173 C 
HETATM   12  C   UNK N   1      34.726  10.128  18.091  0.00  0.00     0.068 A 
HETATM   13  C   UNK N   1      33.613   8.214  21.529  0.00  0.00     0.044 A 
HETATM   14  C   UNK N   1      35.450  12.313  17.506  0.00  0.00    -0.036 A 
HETATM   15  C   UNK N   1      33.622   8.261  19.126  0.00  0.00     0.043 A 
HETATM   16  C   UNK N   1      34.368   9.431  21.534  0.00  0.00     0.257 A 
HETATM   17  C   UNK N   1      35.098  11.985  16.151  0.00  0.00     0.000 A 
HETATM   18  C   UNK N   1      33.195   7.557  22.810  0.00  0.00     0.224 C 
HETATM   19  C   UNK N   1      34.637  10.668  15.853  0.00  0.00     0.043 A 
HETATM   20  C   UNK N   1      32.016   5.848  21.491  0.00  0.00     0.298 C 
HETATM   21  C   UNK N   1      34.743  12.511  13.809  0.00  0.00     0.082 A 
HETATM   22  C   UNK N   1      35.134  12.914  15.102  0.00  0.00     0.051 A 
HETATM   23  C   UNK N   1      34.297  10.284  14.571  0.00  0.00     0.033 A 
HETATM   24  C   UNK N   1      34.359  11.195  13.551  0.00  0.00     0.040 A 
ENDROOT
BRANCH  21  25
HETATM   25  O   UNK N   1      34.739  13.384  12.798  0.00  0.00    -0.261 OA
BRANCH  25  26
HETATM   26  C   UNK N   1      35.823  13.474  11.999  0.00  0.00     0.368 C 
HETATM   27  O   UNK N   1      36.622  12.552  11.944  0.00  0.00    -0.238 OA
HETATM   28  N   UNK N   1      35.954  14.567  11.203  0.00  0.00    -0.328 N 
HETATM   29  C   UNK N   1      34.852  15.483  11.102  0.00  0.00     0.130 C 
HETATM   30  C   UNK N   1      36.866  14.547  10.100  0.00  0.00     0.130 C 
HETATM   31  C   UNK N   1      33.904  14.849  10.096  0.00  0.00     0.056 C 
HETATM   32  C   UNK N   1      34.650  14.543   8.780  0.00  0.00     0.226 C 
HETATM   33  C   UNK N   1      36.079  13.934   8.947  0.00  0.00     0.056 C 
BRANCH  32  34
HETATM   34  N   UNK N   1      34.561  15.697   7.874  0.00  0.00     0.093 N 
HETATM   35  C   UNK N   1      33.146  16.088   7.777  0.00  0.00     0.273 C 
HETATM   36  C   UNK N   1      32.297  14.980   7.138  0.00  0.00     0.030 C 
HETATM   37  C   UNK N   1      32.840  14.648   5.753  0.00  0.00     0.003 C 
HETATM   38  C   UNK N   1      34.322  14.305   5.827  0.00  0.00     0.030 C 
HETATM   39  C   UNK N   1      35.085  15.434   6.524  0.00  0.00     0.273 C 
ENDBRANCH  32  34
ENDBRANCH  25  26
ENDBRANCH  21  25
BRANCH  14  40
HETATM   40  C   UNK N   1      35.940  13.673  17.906  0.00  0.00     0.036 C 
HETATM   41  C   UNK N   1      34.803  14.528  18.439  0.00  0.00     0.010 C 
ENDBRANCH  14  40
BRANCH  11  42
HETATM   42  O   UNK N   1      31.075   6.922  19.631  0.00  0.00    -0.375 OA
HETATM   43  H   UNK N   1      30.199   6.852  19.218  0.00  0.00     0.211 HD
ENDBRANCH  11  42
BRANCH  11  44
HETATM   44  C   UNK N   1      32.882   5.412  19.207  0.00  0.00     0.049 C 
HETATM   45  C   UNK N   1      31.844   4.816  18.249  0.00  0.00     0.009 C 
ENDBRANCH  11  44
TORSDOF 6
ENDMDL
MODEL 5
REMARK VINA RESULT:      -8.2      2.865      4.724
REMARK  6 active torsions:
REMARK  status: ('A' for Active; 'I' for Inactive)
REMARK    1  A    between atoms: O_1  and  C_22 
REMARK    2  A    between atoms: O_1  and  C_39 
REMARK    3  A    between atoms: C_27  and  O_4 
REMARK    4  A    between atoms: N_7  and  C_12 
REMARK       I    between atoms: N_8  and  C_22 
REMARK    5  A    between atoms: C_27  and  C_34 
REMARK    6  A    between atoms: C_30  and  C_38 
ROOT
HETATM    1  O   UNK N   1      20.571  15.547   3.553  0.00  0.00    -0.314 OA
HETATM    2  O   UNK N   1      24.325  14.732   1.823  0.00  0.00    -0.267 OA
HETATM    3  O   UNK N   1      19.414  16.322   5.288  0.00  0.00    -0.261 OA
HETATM    4  N   UNK N   1      25.414  15.844   3.459  0.00  0.00    -0.307 N 
HETATM    5  N   UNK N   1      26.758  17.547   6.218  0.00  0.00    -0.353 N 
ATOM      6  HN  UNK N   1      25.982  18.014   6.686  1.00  0.00     0.166 HD
HETATM    7  C   UNK N   1      25.325  16.576   4.571  0.00  0.00     0.065 A 
HETATM    8  C   UNK N   1      27.519  16.270   4.344  0.00  0.00    -0.004 A 
HETATM    9  C   UNK N   1      26.849  15.600   3.133  0.00  0.00     0.174 A 
HETATM   10  C   UNK N   1      22.978  16.379   4.691  0.00  0.00     0.002 A 
HETATM   11  C   UNK N   1      21.734  16.601   5.508  0.00  0.00     0.173 C 
HETATM   12  C   UNK N   1      26.557  16.881   5.080  0.00  0.00     0.068 A 
HETATM   13  C   UNK N   1      23.000  15.674   3.463  0.00  0.00     0.044 A 
HETATM   14  C   UNK N   1      28.840  16.275   4.838  0.00  0.00    -0.036 A 
HETATM   15  C   UNK N   1      24.158  16.835   5.221  0.00  0.00     0.043 A 
HETATM   16  C   UNK N   1      24.262  15.391   2.848  0.00  0.00     0.257 A 
HETATM   17  C   UNK N   1      29.069  16.927   6.099  0.00  0.00     0.000 A 
HETATM   18  C   UNK N   1      21.718  15.188   2.858  0.00  0.00     0.224 C 
HETATM   19  C   UNK N   1      27.985  17.597   6.740  0.00  0.00     0.043 A 
HETATM   20  C   UNK N   1      20.507  16.158   4.766  0.00  0.00     0.298 C 
HETATM   21  C   UNK N   1      30.425  17.539   8.015  0.00  0.00     0.082 A 
HETATM   22  C   UNK N   1      30.301  16.896   6.768  0.00  0.00     0.051 A 
HETATM   23  C   UNK N   1      28.140  18.254   7.945  0.00  0.00     0.033 A 
HETATM   24  C   UNK N   1      29.355  18.236   8.576  0.00  0.00     0.040 A 
ENDROOT
BRANCH  21  25
HETATM   25  O   UNK N   1      31.580  17.499   8.688  0.00  0.00    -0.261 OA
BRANCH  25  26
HETATM   26  C   UNK N   1      32.734  17.338   8.008  0.00  0.00     0.368 C 
HETATM   27  O   UNK N   1      33.395  18.313   7.684  0.00  0.00    -0.238 OA
HETATM   28  N   UNK N   1      33.179  16.077   7.774  0.00  0.00    -0.328 N 
HETATM   29  C   UNK N   1      32.511  14.979   8.417  0.00  0.00     0.130 C 
HETATM   30  C   UNK N   1      34.541  15.855   7.391  0.00  0.00     0.130 C 
HETATM   31  C   UNK N   1      33.089  14.935   9.822  0.00  0.00     0.056 C 
HETATM   32  C   UNK N   1      34.629  14.846   9.764  0.00  0.00     0.226 C 
HETATM   33  C   UNK N   1      35.312  15.769   8.704  0.00  0.00     0.056 C 
BRANCH  32  34
HETATM   34  N   UNK N   1      35.049  13.439   9.735  0.00  0.00     0.093 N 
HETATM   35  C   UNK N   1      34.608  12.809  10.989  0.00  0.00     0.273 C 
HETATM   36  C   UNK N   1      35.301  13.434  12.209  0.00  0.00     0.030 C 
HETATM   37  C   UNK N   1      36.813  13.304  12.065  0.00  0.00     0.003 C 
HETATM   38  C   UNK N   1      37.278  13.891  10.741  0.00  0.00     0.030 C 
HETATM   39  C   UNK N   1      36.502  13.255   9.586  0.00  0.00     0.273 C 
ENDBRANCH  32  34
ENDBRANCH  25  26
ENDBRANCH  21  25
BRANCH  14  40
HETATM   40  C   UNK N   1      29.923  15.547   4.098  0.00  0.00     0.036 C 
HETATM   41  C   UNK N   1      30.558  16.436   3.043  0.00  0.00     0.010 C 
ENDBRANCH  14  40
BRANCH  11  42
HETATM   42  O   UNK N   1      21.830  15.834   6.675  0.00  0.00    -0.375 OA
HETATM   43  H   UNK N   1      22.200  15.176   7.286  0.00  0.00     0.211 HD
ENDBRANCH  11  42
BRANCH  11  44
HETATM   44  C   UNK N   1      21.581  18.085   5.902  0.00  0.00     0.049 C 
HETATM   45  C   UNK N   1      21.410  19.017   4.697  0.00  0.00     0.009 C 
ENDBRANCH  11  44
TORSDOF 6
ENDMDL
MODEL 6
REMARK VINA RESULT:      -8.2      5.982     10.705
REMARK  6 active torsions:
REMARK  status: ('A' for Active; 'I' for Inactive)
REMARK    1  A    between atoms: O_1  and  C_22 
REMARK    2  A    between atoms: O_1  and  C_39 
REMARK    3  A    between atoms: C_27  and  O_4 
REMARK    4  A    between atoms: N_7  and  C_12 
REMARK       I    between atoms: N_8  and  C_22 
REMARK    5  A    between atoms: C_27  and  C_34 
REMARK    6  A    between atoms: C_30  and  C_38 
ROOT
HETATM    1  O   UNK N   1      34.385  13.903   8.287  0.00  0.00    -0.314 OA
HETATM    2  O   UNK N   1      35.759  10.321  10.028  0.00  0.00    -0.267 OA
HETATM    3  O   UNK N   1      33.580  15.957   8.568  0.00  0.00    -0.261 OA
HETATM    4  N   UNK N   1      35.786  11.235  12.092  0.00  0.00    -0.307 N 
HETATM    5  N   UNK N   1      35.590  12.956  15.145  0.00  0.00    -0.353 N 
ATOM      6  HN  UNK N   1      35.455  13.942  14.922  1.00  0.00     0.166 HD
HETATM    7  C   UNK N   1      35.594  12.323  12.841  0.00  0.00     0.065 A 
HETATM    8  C   UNK N   1      36.023  10.743  14.350  0.00  0.00    -0.004 A 
HETATM    9  C   UNK N   1      36.147  10.082  12.966  0.00  0.00     0.174 A 
HETATM   10  C   UNK N   1      34.828  13.620  11.026  0.00  0.00     0.002 A 
HETATM   11  C   UNK N   1      34.183  14.903  10.577  0.00  0.00     0.173 C 
HETATM   12  C   UNK N   1      35.780  12.065  14.171  0.00  0.00     0.068 A 
HETATM   13  C   UNK N   1      35.099  12.529  10.166  0.00  0.00     0.044 A 
HETATM   14  C   UNK N   1      36.019  10.235  15.666  0.00  0.00    -0.036 A 
HETATM   15  C   UNK N   1      35.100  13.498  12.365  0.00  0.00     0.043 A 
HETATM   16  C   UNK N   1      35.576  11.302  10.730  0.00  0.00     0.257 A 
HETATM   17  C   UNK N   1      35.747  11.165  16.729  0.00  0.00     0.000 A 
HETATM   18  C   UNK N   1      34.830  12.653   8.696  0.00  0.00     0.224 C 
HETATM   19  C   UNK N   1      35.579  12.547  16.415  0.00  0.00     0.043 A 
HETATM   20  C   UNK N   1      34.045  14.951   9.083  0.00  0.00     0.298 C 
HETATM   21  C   UNK N   1      35.289  11.755  19.037  0.00  0.00     0.082 A 
HETATM   22  C   UNK N   1      35.583  10.777  18.065  0.00  0.00     0.051 A 
HETATM   23  C   UNK N   1      35.329  13.493  17.389  0.00  0.00     0.033 A 
HETATM   24  C   UNK N   1      35.196  13.104  18.695  0.00  0.00     0.040 A 
ENDROOT
BRANCH  21  25
HETATM   25  O   UNK N   1      35.100  11.408  20.313  0.00  0.00    -0.261 OA
BRANCH  25  26
HETATM   26  C   UNK N   1      34.648  10.170  20.601  0.00  0.00     0.368 C 
HETATM   27  O   UNK N   1      33.609   9.765  20.104  0.00  0.00    -0.238 OA
HETATM   28  N   UNK N   1      35.415   9.364  21.380  0.00  0.00    -0.328 N 
HETATM   29  C   UNK N   1      36.749   9.786  21.706  0.00  0.00     0.130 C 
HETATM   30  C   UNK N   1      35.169   7.954  21.416  0.00  0.00     0.130 C 
HETATM   31  C   UNK N   1      37.586   9.425  20.488  0.00  0.00     0.056 C 
HETATM   32  C   UNK N   1      37.415   7.929  20.148  0.00  0.00     0.226 C 
HETATM   33  C   UNK N   1      35.953   7.384  20.239  0.00  0.00     0.056 C 
BRANCH  32  34
HETATM   34  N   UNK N   1      38.426   7.136  20.860  0.00  0.00     0.093 N 
HETATM   35  C   UNK N   1      39.754   7.599  20.427  0.00  0.00     0.273 C 
HETATM   36  C   UNK N   1      39.982   7.336  18.931  0.00  0.00     0.030 C 
HETATM   37  C   UNK N   1      39.832   5.847  18.642  0.00  0.00     0.003 C 
HETATM   38  C   UNK N   1      38.489   5.336  19.145  0.00  0.00     0.030 C 
HETATM   39  C   UNK N   1      38.319   5.687  20.625  0.00  0.00     0.273 C 
ENDBRANCH  32  34
ENDBRANCH  25  26
ENDBRANCH  21  25
BRANCH  14  40
HETATM   40  C   UNK N   1      36.206   8.767  15.907  0.00  0.00     0.036 C 
HETATM   41  C   UNK N   1      37.657   8.445  16.223  0.00  0.00     0.010 C 
ENDBRANCH  14  40
BRANCH  11  42
HETATM   42  O   UNK N   1      32.897  14.966  11.128  0.00  0.00    -0.375 OA
HETATM   43  H   UNK N   1      31.988  15.286  11.244  0.00  0.00     0.211 HD
ENDBRANCH  11  42
BRANCH  11  44
HETATM   44  C   UNK N   1      34.987  16.131  11.053  0.00  0.00     0.049 C 
HETATM   45  C   UNK N   1      36.471  16.066  10.676  0.00  0.00     0.009 C 
ENDBRANCH  11  44
TORSDOF 6
ENDMDL
MODEL 7
REMARK VINA RESULT:      -8.0      3.330     11.514
REMARK  6 active torsions:
REMARK  status: ('A' for Active; 'I' for Inactive)
REMARK    1  A    between atoms: O_1  and  C_22 
REMARK    2  A    between atoms: O_1  and  C_39 
REMARK    3  A    between atoms: C_27  and  O_4 
REMARK    4  A    between atoms: N_7  and  C_12 
REMARK       I    between atoms: N_8  and  C_22 
REMARK    5  A    between atoms: C_27  and  C_34 
REMARK    6  A    between atoms: C_30  and  C_38 
ROOT
HETATM    1  O   UNK N   1      37.566  13.720   9.997  0.00  0.00    -0.314 OA
HETATM    2  O   UNK N   1      35.314  17.254  10.437  0.00  0.00    -0.267 OA
HETATM    3  O   UNK N   1      37.726  11.672   9.144  0.00  0.00    -0.261 OA
HETATM    4  N   UNK N   1      33.815  16.593   8.885  0.00  0.00    -0.307 N 
HETATM    5  N   UNK N   1      31.637  15.185   6.519  0.00  0.00    -0.353 N 
ATOM      6  HN  UNK N   1      32.115  14.378   6.120  1.00  0.00     0.166 HD
HETATM    7  C   UNK N   1      33.453  15.665   7.997  0.00  0.00     0.065 A 
HETATM    8  C   UNK N   1      31.748  17.097   7.952  0.00  0.00    -0.004 A 
HETATM    9  C   UNK N   1      32.787  17.672   8.930  0.00  0.00     0.174 A 
HETATM   10  C   UNK N   1      35.217  14.210   8.574  0.00  0.00     0.002 A 
HETATM   11  C   UNK N   1      35.817  12.838   8.432  0.00  0.00     0.173 C 
HETATM   12  C   UNK N   1      32.262  15.970   7.398  0.00  0.00     0.068 A 
HETATM   13  C   UNK N   1      35.702  15.195   9.468  0.00  0.00     0.044 A 
HETATM   14  C   UNK N   1      30.422  17.453   7.631  0.00  0.00    -0.036 A 
HETATM   15  C   UNK N   1      34.092  14.475   7.835  0.00  0.00     0.043 A 
HETATM   16  C   UNK N   1      34.962  16.410   9.630  0.00  0.00     0.257 A 
HETATM   17  C   UNK N   1      29.704  16.582   6.739  0.00  0.00     0.000 A 
HETATM   18  C   UNK N   1      36.942  14.931  10.268  0.00  0.00     0.224 C 
HETATM   19  C   UNK N   1      30.382  15.465   6.166  0.00  0.00     0.043 A 
HETATM   20  C   UNK N   1      37.099  12.719   9.205  0.00  0.00     0.298 C 
HETATM   21  C   UNK N   1      27.715  15.823   5.576  0.00  0.00     0.082 A 
HETATM   22  C   UNK N   1      28.345  16.742   6.439  0.00  0.00     0.051 A 
HETATM   23  C   UNK N   1      29.756  14.599   5.292  0.00  0.00     0.033 A 
HETATM   24  C   UNK N   1      28.432  14.780   4.988  0.00  0.00     0.040 A 
ENDROOT
BRANCH  21  25
HETATM   25  O   UNK N   1      26.413  15.934   5.296  0.00  0.00    -0.261 OA
BRANCH  25  26
HETATM   26  C   UNK N   1      25.533  15.123   5.917  0.00  0.00     0.368 C 
HETATM   27  O   UNK N   1      25.500  15.073   7.137  0.00  0.00    -0.238 OA
HETATM   28  N   UNK N   1      24.638  14.437   5.161  0.00  0.00    -0.328 N 
HETATM   29  C   UNK N   1      24.538  14.744   3.761  0.00  0.00     0.130 C 
HETATM   30  C   UNK N   1      23.477  13.860   5.769  0.00  0.00     0.130 C 
HETATM   31  C   UNK N   1      23.663  15.985   3.691  0.00  0.00     0.056 C 
HETATM   32  C   UNK N   1      22.327  15.739   4.424  0.00  0.00     0.226 C 
HETATM   33  C   UNK N   1      22.442  14.980   5.786  0.00  0.00     0.056 C 
BRANCH  32  34
HETATM   34  N   UNK N   1      21.334  15.199   3.486  0.00  0.00     0.093 N 
HETATM   35  C   UNK N   1      21.289  16.085   2.313  0.00  0.00     0.273 C 
HETATM   36  C   UNK N   1      20.801  17.492   2.688  0.00  0.00     0.030 C 
HETATM   37  C   UNK N   1      19.419  17.405   3.324  0.00  0.00     0.003 C 
HETATM   38  C   UNK N   1      19.431  16.439   4.501  0.00  0.00     0.030 C 
HETATM   39  C   UNK N   1      19.981  15.082   4.056  0.00  0.00     0.273 C 
ENDBRANCH  32  34
ENDBRANCH  25  26
ENDBRANCH  21  25
BRANCH  14  40
HETATM   40  C   UNK N   1      29.786  18.647   8.279  0.00  0.00     0.036 C 
HETATM   41  C   UNK N   1      29.292  18.312   9.676  0.00  0.00     0.010 C 
ENDBRANCH  14  40
BRANCH  11  42
HETATM   42  O   UNK N   1      34.914  11.904   8.955  0.00  0.00    -0.375 OA
HETATM   43  H   UNK N   1      34.515  11.321   9.620  0.00  0.00     0.211 HD
ENDBRANCH  11  42
BRANCH  11  44
HETATM   44  C   UNK N   1      36.083  12.493   6.951  0.00  0.00     0.049 C 
HETATM   45  C   UNK N   1      37.145  13.389   6.303  0.00  0.00     0.009 C 
ENDBRANCH  11  44
TORSDOF 6
ENDMDL
MODEL 8
REMARK VINA RESULT:      -7.9      3.099     11.430
REMARK  6 active torsions:
REMARK  status: ('A' for Active; 'I' for Inactive)
REMARK    1  A    between atoms: O_1  and  C_22 
REMARK    2  A    between atoms: O_1  and  C_39 
REMARK    3  A    between atoms: C_27  and  O_4 
REMARK    4  A    between atoms: N_7  and  C_12 
REMARK       I    between atoms: N_8  and  C_22 
REMARK    5  A    between atoms: C_27  and  C_34 
REMARK    6  A    between atoms: C_30  and  C_38 
ROOT
HETATM    1  O   UNK N   1      37.883  13.381   8.992  0.00  0.00    -0.314 OA
HETATM    2  O   UNK N   1      35.104  16.069  10.667  0.00  0.00    -0.267 OA
HETATM    3  O   UNK N   1      38.479  12.102   7.272  0.00  0.00    -0.261 OA
HETATM    4  N   UNK N   1      34.000  16.280   8.709  0.00  0.00    -0.307 N 
HETATM    5  N   UNK N   1      32.481  16.266   5.545  0.00  0.00    -0.353 N 
ATOM      6  HN  UNK N   1      33.130  15.809   4.906  1.00  0.00     0.166 HD
HETATM    7  C   UNK N   1      33.931  15.951   7.417  0.00  0.00     0.065 A 
HETATM    8  C   UNK N   1      32.071  17.132   7.736  0.00  0.00    -0.004 A 
HETATM    9  C   UNK N   1      32.835  17.137   9.071  0.00  0.00     0.174 A 
HETATM   10  C   UNK N   1      35.763  14.470   7.543  0.00  0.00     0.002 A 
HETATM   11  C   UNK N   1      36.570  13.403   6.856  0.00  0.00     0.173 C 
HETATM   12  C   UNK N   1      32.828  16.487   6.814  0.00  0.00     0.068 A 
HETATM   13  C   UNK N   1      35.943  14.849   8.895  0.00  0.00     0.044 A 
HETATM   14  C   UNK N   1      30.780  17.560   7.360  0.00  0.00    -0.036 A 
HETATM   15  C   UNK N   1      34.753  15.050   6.816  0.00  0.00     0.043 A 
HETATM   16  C   UNK N   1      35.018  15.768   9.488  0.00  0.00     0.257 A 
HETATM   17  C   UNK N   1      30.357  17.269   6.016  0.00  0.00     0.000 A 
HETATM   18  C   UNK N   1      37.055  14.244   9.698  0.00  0.00     0.224 C 
HETATM   19  C   UNK N   1      31.276  16.648   5.119  0.00  0.00     0.043 A 
HETATM   20  C   UNK N   1      37.706  12.936   7.719  0.00  0.00     0.298 C 
HETATM   21  C   UNK N   1      28.725  17.175   4.224  0.00  0.00     0.082 A 
HETATM   22  C   UNK N   1      29.059  17.519   5.549  0.00  0.00     0.051 A 
HETATM   23  C   UNK N   1      30.938  16.356   3.812  0.00  0.00     0.033 A 
HETATM   24  C   UNK N   1      29.673  16.626   3.361  0.00  0.00     0.040 A 
ENDROOT
BRANCH  21  25
HETATM   25  O   UNK N   1      27.487  17.374   3.763  0.00  0.00    -0.261 OA
BRANCH  25  26
HETATM   26  C   UNK N   1      26.866  18.544   4.022  0.00  0.00     0.368 C 
HETATM   27  O   UNK N   1      27.239  19.570   3.476  0.00  0.00    -0.238 OA
HETATM   28  N   UNK N   1      25.774  18.534   4.828  0.00  0.00    -0.328 N 
HETATM   29  C   UNK N   1      25.214  17.270   5.217  0.00  0.00     0.130 C 
HETATM   30  C   UNK N   1      24.883  19.655   4.845  0.00  0.00     0.130 C 
HETATM   31  C   UNK N   1      24.359  16.837   4.036  0.00  0.00     0.056 C 
HETATM   32  C   UNK N   1      23.343  17.944   3.679  0.00  0.00     0.226 C 
HETATM   33  C   UNK N   1      23.907  19.401   3.700  0.00  0.00     0.056 C 
BRANCH  32  34
HETATM   34  N   UNK N   1      22.098  17.741   4.430  0.00  0.00     0.093 N 
HETATM   35  C   UNK N   1      21.549  16.429   4.052  0.00  0.00     0.273 C 
HETATM   36  C   UNK N   1      21.161  16.387   2.567  0.00  0.00     0.030 C 
HETATM   37  C   UNK N   1      20.143  17.481   2.269  0.00  0.00     0.003 C 
HETATM   38  C   UNK N   1      20.668  18.838   2.716  0.00  0.00     0.030 C 
HETATM   39  C   UNK N   1      21.082  18.778   4.188  0.00  0.00     0.273 C 
ENDBRANCH  32  34
ENDBRANCH  25  26
ENDBRANCH  21  25
BRANCH  14  40
HETATM   40  C   UNK N   1      29.878  18.208   8.368  0.00  0.00     0.036 C 
HETATM   41  C   UNK N   1      29.281  17.176   9.310  0.00  0.00     0.010 C 
ENDBRANCH  14  40
BRANCH  11  42
HETATM   42  O   UNK N   1      35.735  12.305   6.616  0.00  0.00    -0.375 OA
HETATM   43  H   UNK N   1      35.131  11.576   6.831  0.00  0.00     0.211 HD
ENDBRANCH  11  42
BRANCH  11  44
HETATM   44  C   UNK N   1      37.129  13.904   5.508  0.00  0.00     0.049 C 
HETATM   45  C   UNK N   1      36.768  12.995   4.328  0.00  0.00     0.009 C 
ENDBRANCH  11  44
TORSDOF 6
ENDMDL
MODEL 9
REMARK VINA RESULT:      -7.7      2.830     11.038
REMARK  6 active torsions:
REMARK  status: ('A' for Active; 'I' for Inactive)
REMARK    1  A    between atoms: O_1  and  C_22 
REMARK    2  A    between atoms: O_1  and  C_39 
REMARK    3  A    between atoms: C_27  and  O_4 
REMARK    4  A    between atoms: N_7  and  C_12 
REMARK       I    between atoms: N_8  and  C_22 
REMARK    5  A    between atoms: C_27  and  C_34 
REMARK    6  A    between atoms: C_30  and  C_38 
ROOT
HETATM    1  O   UNK N   1      36.528  13.877  13.398  0.00  0.00    -0.314 OA
HETATM    2  O   UNK N   1      35.552  17.189  10.984  0.00  0.00    -0.267 OA
HETATM    3  O   UNK N   1      36.396  11.684  13.747  0.00  0.00    -0.261 OA
HETATM    4  N   UNK N   1      34.767  15.863   9.335  0.00  0.00    -0.307 N 
HETATM    5  N   UNK N   1      33.536  13.499   7.051  0.00  0.00    -0.353 N 
ATOM      6  HN  UNK N   1      33.860  12.585   7.366  1.00  0.00     0.166 HD
HETATM    7  C   UNK N   1      34.562  14.620   8.895  0.00  0.00     0.065 A 
HETATM    8  C   UNK N   1      33.599  15.873   7.327  0.00  0.00    -0.004 A 
HETATM    9  C   UNK N   1      34.222  16.840   8.349  0.00  0.00     0.174 A 
HETATM   10  C   UNK N   1      35.334  13.626  10.890  0.00  0.00     0.002 A 
HETATM   11  C   UNK N   1      35.470  12.366  11.701  0.00  0.00     0.173 C 
HETATM   12  C   UNK N   1      33.920  14.606   7.688  0.00  0.00     0.068 A 
HETATM   13  C   UNK N   1      35.658  14.916  11.376  0.00  0.00     0.044 A 
HETATM   14  C   UNK N   1      32.737  16.056   6.226  0.00  0.00    -0.036 A 
HETATM   15  C   UNK N   1      34.797  13.502   9.634  0.00  0.00     0.043 A 
HETATM   16  C   UNK N   1      35.345  16.060  10.572  0.00  0.00     0.257 A 
HETATM   17  C   UNK N   1      32.252  14.873   5.567  0.00  0.00     0.000 A 
HETATM   18  C   UNK N   1      36.266  15.070  12.738  0.00  0.00     0.224 C 
HETATM   19  C   UNK N   1      32.724  13.597   5.997  0.00  0.00     0.043 A 
HETATM   20  C   UNK N   1      36.170  12.626  13.003  0.00  0.00     0.298 C 
HETATM   21  C   UNK N   1      30.854  13.688   3.977  0.00  0.00     0.082 A 
HETATM   22  C   UNK N   1      31.292  14.901   4.547  0.00  0.00     0.051 A 
HETATM   23  C   UNK N   1      32.310  12.423   5.399  0.00  0.00     0.033 A 
HETATM   24  C   UNK N   1      31.388  12.466   4.386  0.00  0.00     0.040 A 
ENDROOT
BRANCH  21  25
HETATM   25  O   UNK N   1      29.917  13.685   3.024  0.00  0.00    -0.261 OA
BRANCH  25  26
HETATM   26  C   UNK N   1      29.057  14.720   2.940  0.00  0.00     0.368 C 
HETATM   27  O   UNK N   1      29.364  15.723   2.314  0.00  0.00    -0.238 OA
HETATM   28  N   UNK N   1      27.822  14.585   3.489  0.00  0.00    -0.328 N 
HETATM   29  C   UNK N   1      27.417  13.291   3.966  0.00  0.00     0.130 C 
HETATM   30  C   UNK N   1      26.771  15.485   3.124  0.00  0.00     0.130 C 
HETATM   31  C   UNK N   1      26.960  12.540   2.726  0.00  0.00     0.056 C 
HETATM   32  C   UNK N   1      25.881  13.351   1.977  0.00  0.00     0.226 C 
HETATM   33  C   UNK N   1      26.158  14.885   1.863  0.00  0.00     0.056 C 
BRANCH  32  34
HETATM   34  N   UNK N   1      24.548  12.989   2.475  0.00  0.00     0.093 N 
HETATM   35  C   UNK N   1      24.281  11.596   2.085  0.00  0.00     0.273 C 
HETATM   36  C   UNK N   1      24.222  11.439   0.558  0.00  0.00     0.030 C 
HETATM   37  C   UNK N   1      23.144  12.353  -0.012  0.00  0.00     0.003 C 
HETATM   38  C   UNK N   1      23.367  13.790   0.438  0.00  0.00     0.030 C 
HETATM   39  C   UNK N   1      23.468  13.850   1.964  0.00  0.00     0.273 C 
ENDBRANCH  32  34
ENDBRANCH  25  26
ENDBRANCH  21  25
BRANCH  14  40
HETATM   40  C   UNK N   1      32.291  17.434   5.839  0.00  0.00     0.036 C 
HETATM   41  C   UNK N   1      33.061  17.938   4.630  0.00  0.00     0.010 C 
ENDBRANCH  14  40
BRANCH  11  42
HETATM   42  O   UNK N   1      34.187  11.888  11.992  0.00  0.00    -0.375 OA
HETATM   43  H   UNK N   1      33.424  11.652  12.544  0.00  0.00     0.211 HD
ENDBRANCH  11  42
BRANCH  11  44
HETATM   44  C   UNK N   1      36.238  11.279  10.919  0.00  0.00     0.049 C 
HETATM   45  C   UNK N   1      37.697  11.654  10.635  0.00  0.00     0.009 C 
ENDBRANCH  11  44
TORSDOF 6
ENDMDL
