REMARK  6 active torsions:
REMARK  status: ('A' for Active; 'I' for Inactive)
REMARK    1  A    between atoms: O_1  and  C_22 
REMARK    2  A    between atoms: O_1  and  C_39 
REMARK    3  A    between atoms: C_27  and  O_4 
REMARK    4  A    between atoms: N_7  and  C_12 
REMARK       I    between atoms: N_8  and  C_22 
REMARK    5  A    between atoms: C_27  and  C_34 
REMARK    6  A    between atoms: C_30  and  C_38 
ROOT
HETATM    1  O   UNK N   1       6.001   9.327  -0.167  0.00  0.00    -0.314 OA
HETATM    2  O   UNK N   1       2.363   7.204  -0.268  0.00  0.00    -0.267 OA
HETATM    3  O   UNK N   1       8.211   9.285   0.086  0.00  0.00    -0.261 OA
HETATM    4  N   UNK N   1       3.427   5.213  -0.251  0.00  0.00    -0.307 N 
HETATM    5  N   UNK N   1       5.415   2.324  -0.100  0.00  0.00    -0.353 N 
ATOM      6  HN  UNK N   1       6.377   2.617  -0.268  1.00  0.00     0.166 HD
HETATM    7  C   UNK N   1       4.592   4.562  -0.256  0.00  0.00     0.065 A 
HETATM    8  C   UNK N   1       3.101   2.924  -0.028  0.00  0.00    -0.004 A 
HETATM    9  C   UNK N   1       2.306   4.234  -0.162  0.00  0.00     0.174 A 
HETATM   10  C   UNK N   1       5.869   6.541  -0.130  0.00  0.00     0.002 A 
HETATM   11  C   UNK N   1       7.227   7.154   0.077  0.00  0.00     0.173 C 
HETATM   12  C   UNK N   1       4.419   3.208  -0.177  0.00  0.00     0.068 A 
HETATM   13  C   UNK N   1       4.670   7.289  -0.214  0.00  0.00     0.044 A 
HETATM   14  C   UNK N   1       2.736   1.601   0.297  0.00  0.00    -0.036 A 
HETATM   15  C   UNK N   1       5.805   5.171  -0.168  0.00  0.00     0.043 A 
HETATM   16  C   UNK N   1       3.419   6.593  -0.259  0.00  0.00     0.257 A 
HETATM   17  C   UNK N   1       3.799   0.645   0.455  0.00  0.00     0.000 A 
HETATM   18  C   UNK N   1       4.722   8.787  -0.197  0.00  0.00     0.224 C 
HETATM   19  C   UNK N   1       5.142   1.053   0.199  0.00  0.00     0.043 A 
HETATM   20  C   UNK N   1       7.171   8.651  -0.014  0.00  0.00     0.298 C 
HETATM   21  C   UNK N   1       4.698  -1.527   1.055  0.00  0.00     0.082 A 
HETATM   22  C   UNK N   1       3.592  -0.667   0.902  0.00  0.00     0.051 A 
HETATM   23  C   UNK N   1       6.207   0.182   0.318  0.00  0.00     0.033 A 
HETATM   24  C   UNK N   1       5.988  -1.105   0.733  0.00  0.00     0.040 A 
ENDROOT
BRANCH  21  25
HETATM   25  O   UNK N   1       4.532  -2.773   1.508  0.00  0.00    -0.261 OA
BRANCH  25  26
HETATM   26  C   UNK N   1       5.061  -3.803   0.816  0.00  0.00     0.368 C 
HETATM   27  O   UNK N   1       6.060  -4.371   1.230  0.00  0.00    -0.238 OA
HETATM   28  N   UNK N   1       4.412  -4.242  -0.293  0.00  0.00    -0.328 N 
HETATM   29  C   UNK N   1       3.102  -3.724  -0.576  0.00  0.00     0.130 C 
HETATM   30  C   UNK N   1       4.719  -5.527  -0.844  0.00  0.00     0.130 C 
HETATM   31  C   UNK N   1       2.161  -4.528   0.307  0.00  0.00     0.056 C 
HETATM   32  C   UNK N   1       2.357  -6.039   0.059  0.00  0.00     0.226 C 
HETATM   33  C   UNK N   1       3.842  -6.508  -0.073  0.00  0.00     0.056 C 
BRANCH  32  34
HETATM   34  N   UNK N   1       1.458  -6.491  -1.011  0.00  0.00     0.093 N 
HETATM   35  C   UNK N   1       0.109  -6.631  -0.441  0.00  0.00     0.273 C 
HETATM   36  C   UNK N   1       0.064  -7.720   0.641  0.00  0.00     0.030 C 
HETATM   37  C   UNK N   1       0.519  -9.050   0.052  0.00  0.00     0.003 C 
HETATM   38  C   UNK N   1       1.886  -8.907  -0.602  0.00  0.00     0.030 C 
HETATM   39  C   UNK N   1       1.859  -7.768  -1.624  0.00  0.00     0.273 C 
ENDBRANCH  32  34
ENDBRANCH  25  26
ENDBRANCH  21  25
BRANCH  14  40
HETATM   40  C   UNK N   1       1.298   1.257   0.548  0.00  0.00     0.036 C 
HETATM   41  C   UNK N   1       0.782   0.274  -0.489  0.00  0.00     0.010 C 
ENDBRANCH  14  40
BRANCH  11  42
HETATM   42  O   UNK N   1       7.671   6.819   1.362  0.00  0.00    -0.375 OA
HETATM   43  H   UNK N   1       7.625   6.437   2.253  0.00  0.00     0.211 HD
ENDBRANCH  11  42
BRANCH  11  44
HETATM   44  C   UNK N   1       8.245   6.620  -0.953  0.00  0.00     0.049 C 
HETATM   45  C   UNK N   1       8.701   5.185  -0.665  0.00  0.00     0.009 C 
ENDBRANCH  11  44
TORSDOF 6
