MODEL 1
REMARK VINA RESULT:      -6.0      0.000      0.000
REMARK  16 active torsions:
REMARK  status: ('A' for Active; 'I' for Inactive)
REMARK    1  A    between atoms: C_8  and  O_1 
REMARK    2  A    between atoms: C_17  and  O_3 
REMARK    3  A    between atoms: O_4  and  C_24 
REMARK    4  A    between atoms: C_6  and  C_10 
REMARK    5  A    between atoms: C_7  and  C_13 
REMARK    6  A    between atoms: C_10  and  C_12 
REMARK    7  A    between atoms: C_12  and  C_14 
REMARK    8  A    between atoms: C_14  and  C_16 
REMARK    9  A    between atoms: C_15  and  C_17 
REMARK   10  A    between atoms: C_16  and  C_19 
REMARK   11  A    between atoms: C_17  and  C_18 
REMARK   12  A    between atoms: C_18  and  C_20 
REMARK   13  A    between atoms: C_19  and  C_21 
REMARK   14  A    between atoms: C_20  and  C_22 
REMARK   15  A    between atoms: C_21  and  C_24 
REMARK   16  A    between atoms: C_22  and  C_23 
ROOT
HETATM    1  O   UNK N   1      20.946  18.604   7.035  0.00  0.00    -0.297 OA
HETATM    2  C   UNK N   1      21.364  16.273   7.295  0.00  0.00     0.065 C 
HETATM    3  C   UNK N   1      20.405  15.265   7.912  0.00  0.00     0.048 C 
HETATM    4  C   UNK N   1      19.730  16.023   9.044  0.00  0.00     0.133 C 
HETATM    5  C   UNK N   1      19.480  17.409   8.474  0.00  0.00     0.111 C 
HETATM    6  C   UNK N   1      20.617  17.536   7.526  0.00  0.00     0.134 C 
ENDROOT
BRANCH   2   7
HETATM    7  C   UNK N   1      21.539  15.985   5.816  0.00  0.00     0.013 C 
BRANCH   7   8
HETATM    8  C   UNK N   1      22.973  16.289   5.423  0.00  0.00     0.001 C 
BRANCH   8   9
HETATM    9  C   UNK N   1      23.014  16.934   4.051  0.00  0.00     0.000 C 
BRANCH   9  10
HETATM   10  C   UNK N   1      21.629  17.441   3.688  0.00  0.00     0.001 C 
BRANCH  10  11
HETATM   11  C   UNK N   1      21.645  18.952   3.602  0.00  0.00     0.010 C 
BRANCH  11  12
HETATM   12  C   UNK N   1      20.673  19.414   2.533  0.00  0.00     0.110 C 
BRANCH  12  13
HETATM   13  C   UNK N   1      21.203  20.626   1.844  0.00  0.00     0.139 C 
HETATM   14  O   UNK N   1      21.328  20.635   0.630  0.00  0.00    -0.650 OA
BRANCH  13  15
HETATM   15  O   UNK N   1      21.524  21.719   2.559  0.00  0.00    -0.776 OA
HETATM   16  H   UNK N   1      20.966  22.471   2.601  0.00  0.00     0.167 HD
ENDBRANCH  13  15
ENDBRANCH  12  13
ENDBRANCH  11  12
ENDBRANCH  10  11
ENDBRANCH   9  10
ENDBRANCH   8   9
ENDBRANCH   7   8
ENDBRANCH   2   7
BRANCH   3  17
HETATM   17  C   UNK N   1      21.087  14.018   8.375  0.00  0.00    -0.020 C 
HETATM   18  C   UNK N   1      21.305  13.809   9.674  0.00  0.00     0.001 C 
BRANCH  18  19
HETATM   19  C   UNK N   1      21.951  12.552  10.149  0.00  0.00     0.140 C 
BRANCH  19  20
HETATM   20  O   UNK N   1      22.514  12.768  11.407  0.00  0.00    -0.392 OA
HETATM   21  H   UNK N   1      22.038  12.618  12.239  0.00  0.00     0.210 HD
ENDBRANCH  19  20
BRANCH  19  22
HETATM   22  C   UNK N   1      23.026  12.088   9.180  0.00  0.00     0.036 C 
BRANCH  22  23
HETATM   23  C   UNK N   1      24.378  12.215   9.850  0.00  0.00     0.003 C 
BRANCH  23  24
HETATM   24  C   UNK N   1      25.134  13.400   9.294  0.00  0.00    -0.000 C 
BRANCH  24  25
HETATM   25  C   UNK N   1      24.803  13.532   7.822  0.00  0.00    -0.005 C 
HETATM   26  C   UNK N   1      25.572  14.694   7.230  0.00  0.00     0.005 C 
ENDBRANCH  24  25
ENDBRANCH  23  24
ENDBRANCH  22  23
ENDBRANCH  19  22
ENDBRANCH  18  19
ENDBRANCH   3  17
BRANCH   4  27
HETATM   27  O   UNK N   1      18.534  15.411   9.416  0.00  0.00    -0.394 OA
HETATM   28  H   UNK N   1      18.347  14.498   9.685  0.00  0.00     0.210 HD
ENDBRANCH   4  27
TORSDOF 16
ENDMDL
MODEL 2
REMARK VINA RESULT:      -5.8      8.446     12.413
REMARK  16 active torsions:
REMARK  status: ('A' for Active; 'I' for Inactive)
REMARK    1  A    between atoms: C_8  and  O_1 
REMARK    2  A    between atoms: C_17  and  O_3 
REMARK    3  A    between atoms: O_4  and  C_24 
REMARK    4  A    between atoms: C_6  and  C_10 
REMARK    5  A    between atoms: C_7  and  C_13 
REMARK    6  A    between atoms: C_10  and  C_12 
REMARK    7  A    between atoms: C_12  and  C_14 
REMARK    8  A    between atoms: C_14  and  C_16 
REMARK    9  A    between atoms: C_15  and  C_17 
REMARK   10  A    between atoms: C_16  and  C_19 
REMARK   11  A    between atoms: C_17  and  C_18 
REMARK   12  A    between atoms: C_18  and  C_20 
REMARK   13  A    between atoms: C_19  and  C_21 
REMARK   14  A    between atoms: C_20  and  C_22 
REMARK   15  A    between atoms: C_21  and  C_24 
REMARK   16  A    between atoms: C_22  and  C_23 
ROOT
HETATM    1  O   UNK N   1      34.307  17.399   6.472  0.00  0.00    -0.297 OA
HETATM    2  C   UNK N   1      31.964  17.073   6.194  0.00  0.00     0.065 C 
HETATM    3  C   UNK N   1      31.251  16.857   4.866  0.00  0.00     0.048 C 
HETATM    4  C   UNK N   1      31.992  17.750   3.885  0.00  0.00     0.133 C 
HETATM    5  C   UNK N   1      33.456  17.594   4.262  0.00  0.00     0.111 C 
HETATM    6  C   UNK N   1      33.348  17.335   5.720  0.00  0.00     0.134 C 
ENDROOT
BRANCH   2   7
HETATM    7  C   UNK N   1      31.885  15.814   7.036  0.00  0.00     0.013 C 
BRANCH   7   8
HETATM    8  C   UNK N   1      31.600  16.203   8.475  0.00  0.00     0.001 C 
BRANCH   8   9
HETATM    9  C   UNK N   1      32.392  15.322   9.422  0.00  0.00     0.000 C 
BRANCH   9  10
HETATM   10  C   UNK N   1      33.344  14.448   8.623  0.00  0.00     0.001 C 
BRANCH  10  11
HETATM   11  C   UNK N   1      34.759  14.644   9.124  0.00  0.00     0.010 C 
BRANCH  11  12
HETATM   12  C   UNK N   1      34.731  15.294  10.495  0.00  0.00     0.110 C 
BRANCH  12  13
HETATM   13  C   UNK N   1      35.783  16.347  10.587  0.00  0.00     0.139 C 
HETATM   14  O   UNK N   1      35.526  17.499  10.275  0.00  0.00    -0.650 OA
BRANCH  13  15
HETATM   15  O   UNK N   1      37.013  16.032  11.033  0.00  0.00    -0.776 OA
HETATM   16  H   UNK N   1      37.154  15.380  11.691  0.00  0.00     0.167 HD
ENDBRANCH  13  15
ENDBRANCH  12  13
ENDBRANCH  11  12
ENDBRANCH  10  11
ENDBRANCH   9  10
ENDBRANCH   8   9
ENDBRANCH   7   8
ENDBRANCH   2   7
BRANCH   3  17
HETATM   17  C   UNK N   1      29.788  17.156   4.932  0.00  0.00    -0.020 C 
HETATM   18  C   UNK N   1      29.290  17.875   5.938  0.00  0.00     0.001 C 
BRANCH  18  19
HETATM   19  C   UNK N   1      27.838  18.209   5.994  0.00  0.00     0.140 C 
BRANCH  19  20
HETATM   20  O   UNK N   1      27.160  17.210   6.694  0.00  0.00    -0.392 OA
HETATM   21  H   UNK N   1      27.535  16.744   7.458  0.00  0.00     0.210 HD
ENDBRANCH  19  20
BRANCH  19  22
HETATM   22  C   UNK N   1      27.251  18.343   4.598  0.00  0.00     0.036 C 
BRANCH  22  23
HETATM   23  C   UNK N   1      27.303  19.798   4.183  0.00  0.00     0.003 C 
BRANCH  23  24
HETATM   24  C   UNK N   1      26.294  20.607   4.966  0.00  0.00    -0.000 C 
BRANCH  24  25
HETATM   25  C   UNK N   1      27.041  21.477   5.956  0.00  0.00    -0.005 C 
HETATM   26  C   UNK N   1      26.250  21.578   7.243  0.00  0.00     0.005 C 
ENDBRANCH  24  25
ENDBRANCH  23  24
ENDBRANCH  22  23
ENDBRANCH  19  22
ENDBRANCH  18  19
ENDBRANCH   3  17
BRANCH   4  27
HETATM   27  O   UNK N   1      31.768  17.348   2.568  0.00  0.00    -0.394 OA
HETATM   28  H   UNK N   1      32.137  16.606   2.063  0.00  0.00     0.210 HD
ENDBRANCH   4  27
TORSDOF 16
ENDMDL
MODEL 3
REMARK VINA RESULT:      -5.8      8.547     12.438
REMARK  16 active torsions:
REMARK  status: ('A' for Active; 'I' for Inactive)
REMARK    1  A    between atoms: C_8  and  O_1 
REMARK    2  A    between atoms: C_17  and  O_3 
REMARK    3  A    between atoms: O_4  and  C_24 
REMARK    4  A    between atoms: C_6  and  C_10 
REMARK    5  A    between atoms: C_7  and  C_13 
REMARK    6  A    between atoms: C_10  and  C_12 
REMARK    7  A    between atoms: C_12  and  C_14 
REMARK    8  A    between atoms: C_14  and  C_16 
REMARK    9  A    between atoms: C_15  and  C_17 
REMARK   10  A    between atoms: C_16  and  C_19 
REMARK   11  A    between atoms: C_17  and  C_18 
REMARK   12  A    between atoms: C_18  and  C_20 
REMARK   13  A    between atoms: C_19  and  C_21 
REMARK   14  A    between atoms: C_20  and  C_22 
REMARK   15  A    between atoms: C_21  and  C_24 
REMARK   16  A    between atoms: C_22  and  C_23 
ROOT
HETATM    1  O   UNK N   1      34.997  16.755   6.752  0.00  0.00    -0.297 OA
HETATM    2  C   UNK N   1      32.758  17.417   6.277  0.00  0.00     0.065 C 
HETATM    3  C   UNK N   1      31.811  16.711   5.317  0.00  0.00     0.048 C 
HETATM    4  C   UNK N   1      32.699  16.247   4.175  0.00  0.00     0.133 C 
HETATM    5  C   UNK N   1      33.967  15.758   4.856  0.00  0.00     0.111 C 
HETATM    6  C   UNK N   1      34.003  16.637   6.053  0.00  0.00     0.134 C 
ENDROOT
BRANCH   2   7
HETATM    7  C   UNK N   1      32.254  17.277   7.701  0.00  0.00     0.013 C 
BRANCH   7   8
HETATM    8  C   UNK N   1      31.666  15.889   7.879  0.00  0.00     0.001 C 
BRANCH   8   9
HETATM    9  C   UNK N   1      32.179  15.264   9.162  0.00  0.00     0.000 C 
BRANCH   9  10
HETATM   10  C   UNK N   1      33.117  14.119   8.827  0.00  0.00     0.001 C 
BRANCH  10  11
HETATM   11  C   UNK N   1      34.508  14.432   9.338  0.00  0.00     0.010 C 
BRANCH  11  12
HETATM   12  C   UNK N   1      34.422  15.421  10.484  0.00  0.00     0.110 C 
BRANCH  12  13
HETATM   13  C   UNK N   1      35.449  16.489  10.321  0.00  0.00     0.139 C 
HETATM   14  O   UNK N   1      36.579  16.324  10.753  0.00  0.00    -0.650 OA
BRANCH  13  15
HETATM   15  O   UNK N   1      35.138  17.629   9.678  0.00  0.00    -0.776 OA
HETATM   16  H   UNK N   1      34.534  18.253  10.031  0.00  0.00     0.167 HD
ENDBRANCH  13  15
ENDBRANCH  12  13
ENDBRANCH  11  12
ENDBRANCH  10  11
ENDBRANCH   9  10
ENDBRANCH   8   9
ENDBRANCH   7   8
ENDBRANCH   2   7
BRANCH   3  17
HETATM   17  C   UNK N   1      30.686  17.582   4.860  0.00  0.00    -0.020 C 
HETATM   18  C   UNK N   1      29.428  17.141   4.907  0.00  0.00     0.001 C 
BRANCH  18  19
HETATM   19  C   UNK N   1      28.295  18.015   4.487  0.00  0.00     0.140 C 
BRANCH  19  20
HETATM   20  O   UNK N   1      28.781  19.287   4.181  0.00  0.00    -0.392 OA
HETATM   21  H   UNK N   1      28.481  20.095   4.626  0.00  0.00     0.210 HD
ENDBRANCH  19  20
BRANCH  19  22
HETATM   22  C   UNK N   1      27.245  18.118   5.581  0.00  0.00     0.036 C 
BRANCH  22  23
HETATM   23  C   UNK N   1      27.769  19.017   6.680  0.00  0.00     0.003 C 
BRANCH  23  24
HETATM   24  C   UNK N   1      28.120  18.204   7.905  0.00  0.00    -0.000 C 
BRANCH  24  25
HETATM   25  C   UNK N   1      29.271  18.884   8.619  0.00  0.00    -0.005 C 
HETATM   26  C   UNK N   1      29.482  18.240   9.972  0.00  0.00     0.005 C 
ENDBRANCH  24  25
ENDBRANCH  23  24
ENDBRANCH  22  23
ENDBRANCH  19  22
ENDBRANCH  18  19
ENDBRANCH   3  17
BRANCH   4  27
HETATM   27  O   UNK N   1      32.093  15.221   3.449  0.00  0.00    -0.394 OA
HETATM   28  H   UNK N   1      32.101  15.030   2.498  0.00  0.00     0.210 HD
ENDBRANCH   4  27
TORSDOF 16
ENDMDL
MODEL 4
REMARK VINA RESULT:      -5.7      1.629      2.528
REMARK  16 active torsions:
REMARK  status: ('A' for Active; 'I' for Inactive)
REMARK    1  A    between atoms: C_8  and  O_1 
REMARK    2  A    between atoms: C_17  and  O_3 
REMARK    3  A    between atoms: O_4  and  C_24 
REMARK    4  A    between atoms: C_6  and  C_10 
REMARK    5  A    between atoms: C_7  and  C_13 
REMARK    6  A    between atoms: C_10  and  C_12 
REMARK    7  A    between atoms: C_12  and  C_14 
REMARK    8  A    between atoms: C_14  and  C_16 
REMARK    9  A    between atoms: C_15  and  C_17 
REMARK   10  A    between atoms: C_16  and  C_19 
REMARK   11  A    between atoms: C_17  and  C_18 
REMARK   12  A    between atoms: C_18  and  C_20 
REMARK   13  A    between atoms: C_19  and  C_21 
REMARK   14  A    between atoms: C_20  and  C_22 
REMARK   15  A    between atoms: C_21  and  C_24 
REMARK   16  A    between atoms: C_22  and  C_23 
ROOT
HETATM    1  O   UNK N   1      20.751  18.663   7.119  0.00  0.00    -0.297 OA
HETATM    2  C   UNK N   1      21.871  16.586   6.796  0.00  0.00     0.065 C 
HETATM    3  C   UNK N   1      21.368  15.227   7.262  0.00  0.00     0.048 C 
HETATM    4  C   UNK N   1      20.702  15.504   8.599  0.00  0.00     0.133 C 
HETATM    5  C   UNK N   1      19.964  16.816   8.390  0.00  0.00     0.111 C 
HETATM    6  C   UNK N   1      20.837  17.475   7.385  0.00  0.00     0.134 C 
ENDROOT
BRANCH   2   7
HETATM    7  C   UNK N   1      21.871  16.647   5.280  0.00  0.00     0.013 C 
BRANCH   7   8
HETATM    8  C   UNK N   1      20.621  15.960   4.761  0.00  0.00     0.001 C 
BRANCH   8   9
HETATM    9  C   UNK N   1      19.791  16.930   3.944  0.00  0.00     0.000 C 
BRANCH   9  10
HETATM   10  C   UNK N   1      20.703  17.742   3.042  0.00  0.00     0.001 C 
BRANCH  10  11
HETATM   11  C   UNK N   1      19.879  18.712   2.222  0.00  0.00     0.010 C 
BRANCH  11  12
HETATM   12  C   UNK N   1      20.773  19.810   1.676  0.00  0.00     0.110 C 
BRANCH  12  13
HETATM   13  C   UNK N   1      21.166  20.744   2.770  0.00  0.00     0.139 C 
HETATM   14  O   UNK N   1      22.294  21.208   2.804  0.00  0.00    -0.650 OA
BRANCH  13  15
HETATM   15  O   UNK N   1      20.269  21.094   3.709  0.00  0.00    -0.776 OA
HETATM   16  H   UNK N   1      20.500  21.618   4.451  0.00  0.00     0.167 HD
ENDBRANCH  13  15
ENDBRANCH  12  13
ENDBRANCH  11  12
ENDBRANCH  10  11
ENDBRANCH   9  10
ENDBRANCH   8   9
ENDBRANCH   7   8
ENDBRANCH   2   7
BRANCH   3  17
HETATM   17  C   UNK N   1      22.452  14.202   7.356  0.00  0.00    -0.020 C 
HETATM   18  C   UNK N   1      22.223  12.940   6.989  0.00  0.00     0.001 C 
BRANCH  18  19
HETATM   19  C   UNK N   1      23.308  11.919   7.045  0.00  0.00     0.140 C 
BRANCH  19  20
HETATM   20  O   UNK N   1      22.745  10.643   6.986  0.00  0.00    -0.392 OA
HETATM   21  H   UNK N   1      23.184   9.850   7.329  0.00  0.00     0.210 HD
ENDBRANCH  19  20
BRANCH  19  22
HETATM   22  C   UNK N   1      24.128  12.058   8.317  0.00  0.00     0.036 C 
BRANCH  22  23
HETATM   23  C   UNK N   1      23.313  11.547   9.485  0.00  0.00     0.003 C 
BRANCH  23  24
HETATM   24  C   UNK N   1      23.887  12.048  10.790  0.00  0.00    -0.000 C 
BRANCH  24  25
HETATM   25  C   UNK N   1      22.785  12.052  11.829  0.00  0.00    -0.005 C 
HETATM   26  C   UNK N   1      21.440  12.168  11.144  0.00  0.00     0.005 C 
ENDBRANCH  24  25
ENDBRANCH  23  24
ENDBRANCH  22  23
ENDBRANCH  19  22
ENDBRANCH  18  19
ENDBRANCH   3  17
BRANCH   4  27
HETATM   27  O   UNK N   1      19.817  14.482   8.943  0.00  0.00    -0.394 OA
HETATM   28  H   UNK N   1      19.253  13.921   8.388  0.00  0.00     0.210 HD
ENDBRANCH   4  27
TORSDOF 16
ENDMDL
MODEL 5
REMARK VINA RESULT:      -5.7      5.567      7.592
REMARK  16 active torsions:
REMARK  status: ('A' for Active; 'I' for Inactive)
REMARK    1  A    between atoms: C_8  and  O_1 
REMARK    2  A    between atoms: C_17  and  O_3 
REMARK    3  A    between atoms: O_4  and  C_24 
REMARK    4  A    between atoms: C_6  and  C_10 
REMARK    5  A    between atoms: C_7  and  C_13 
REMARK    6  A    between atoms: C_10  and  C_12 
REMARK    7  A    between atoms: C_12  and  C_14 
REMARK    8  A    between atoms: C_14  and  C_16 
REMARK    9  A    between atoms: C_15  and  C_17 
REMARK   10  A    between atoms: C_16  and  C_19 
REMARK   11  A    between atoms: C_17  and  C_18 
REMARK   12  A    between atoms: C_18  and  C_20 
REMARK   13  A    between atoms: C_19  and  C_21 
REMARK   14  A    between atoms: C_20  and  C_22 
REMARK   15  A    between atoms: C_21  and  C_24 
REMARK   16  A    between atoms: C_22  and  C_23 
ROOT
HETATM    1  O   UNK N   1      27.593  20.656   4.751  0.00  0.00    -0.297 OA
HETATM    2  C   UNK N   1      28.449  18.540   5.432  0.00  0.00     0.065 C 
HETATM    3  C   UNK N   1      28.204  17.879   6.781  0.00  0.00     0.048 C 
HETATM    4  C   UNK N   1      28.204  19.027   7.776  0.00  0.00     0.133 C 
HETATM    5  C   UNK N   1      27.452  20.142   7.066  0.00  0.00     0.111 C 
HETATM    6  C   UNK N   1      27.787  19.852   5.648  0.00  0.00     0.134 C 
ENDROOT
BRANCH   2   7
HETATM    7  C   UNK N   1      27.774  17.742   4.333  0.00  0.00     0.013 C 
BRANCH   7   8
HETATM    8  C   UNK N   1      26.367  17.388   4.777  0.00  0.00     0.001 C 
BRANCH   8   9
HETATM    9  C   UNK N   1      25.591  16.779   3.625  0.00  0.00     0.000 C 
BRANCH   9  10
HETATM   10  C   UNK N   1      24.106  17.025   3.829  0.00  0.00     0.001 C 
BRANCH  10  11
HETATM   11  C   UNK N   1      23.896  18.384   4.462  0.00  0.00     0.010 C 
BRANCH  11  12
HETATM   12  C   UNK N   1      22.994  19.226   3.580  0.00  0.00     0.110 C 
BRANCH  12  13
HETATM   13  C   UNK N   1      23.739  20.409   3.061  0.00  0.00     0.139 C 
HETATM   14  O   UNK N   1      24.914  20.303   2.747  0.00  0.00    -0.650 OA
BRANCH  13  15
HETATM   15  O   UNK N   1      23.111  21.590   2.919  0.00  0.00    -0.776 OA
HETATM   16  H   UNK N   1      22.185  21.681   3.033  0.00  0.00     0.167 HD
ENDBRANCH  13  15
ENDBRANCH  12  13
ENDBRANCH  11  12
ENDBRANCH  10  11
ENDBRANCH   9  10
ENDBRANCH   8   9
ENDBRANCH   7   8
ENDBRANCH   2   7
BRANCH   3  17
HETATM   17  C   UNK N   1      29.215  16.828   7.109  0.00  0.00    -0.020 C 
HETATM   18  C   UNK N   1      30.433  17.170   7.530  0.00  0.00     0.001 C 
BRANCH  18  19
HETATM   19  C   UNK N   1      31.437  16.129   7.894  0.00  0.00     0.140 C 
BRANCH  19  20
HETATM   20  O   UNK N   1      31.497  16.010   9.283  0.00  0.00    -0.392 OA
HETATM   21  H   UNK N   1      32.093  16.536   9.839  0.00  0.00     0.210 HD
ENDBRANCH  19  20
BRANCH  19  22
HETATM   22  C   UNK N   1      32.813  16.479   7.351  0.00  0.00     0.036 C 
BRANCH  22  23
HETATM   23  C   UNK N   1      32.683  17.658   6.411  0.00  0.00     0.003 C 
BRANCH  23  24
HETATM   24  C   UNK N   1      33.267  17.323   5.058  0.00  0.00    -0.000 C 
BRANCH  24  25
HETATM   25  C   UNK N   1      32.243  17.660   3.995  0.00  0.00    -0.005 C 
HETATM   26  C   UNK N   1      31.233  16.538   3.887  0.00  0.00     0.005 C 
ENDBRANCH  24  25
ENDBRANCH  23  24
ENDBRANCH  22  23
ENDBRANCH  19  22
ENDBRANCH  18  19
ENDBRANCH   3  17
BRANCH   4  27
HETATM   27  O   UNK N   1      27.564  18.667   8.961  0.00  0.00    -0.394 OA
HETATM   28  H   UNK N   1      27.913  18.557   9.860  0.00  0.00     0.210 HD
ENDBRANCH   4  27
TORSDOF 16
ENDMDL
MODEL 6
REMARK VINA RESULT:      -5.6      5.165      7.347
REMARK  16 active torsions:
REMARK  status: ('A' for Active; 'I' for Inactive)
REMARK    1  A    between atoms: C_8  and  O_1 
REMARK    2  A    between atoms: C_17  and  O_3 
REMARK    3  A    between atoms: O_4  and  C_24 
REMARK    4  A    between atoms: C_6  and  C_10 
REMARK    5  A    between atoms: C_7  and  C_13 
REMARK    6  A    between atoms: C_10  and  C_12 
REMARK    7  A    between atoms: C_12  and  C_14 
REMARK    8  A    between atoms: C_14  and  C_16 
REMARK    9  A    between atoms: C_15  and  C_17 
REMARK   10  A    between atoms: C_16  and  C_19 
REMARK   11  A    between atoms: C_17  and  C_18 
REMARK   12  A    between atoms: C_18  and  C_20 
REMARK   13  A    between atoms: C_19  and  C_21 
REMARK   14  A    between atoms: C_20  and  C_22 
REMARK   15  A    between atoms: C_21  and  C_24 
REMARK   16  A    between atoms: C_22  and  C_23 
ROOT
HETATM    1  O   UNK N   1      26.730  20.510   3.295  0.00  0.00    -0.297 OA
HETATM    2  C   UNK N   1      27.970  19.402   5.001  0.00  0.00     0.065 C 
HETATM    3  C   UNK N   1      27.583  19.329   6.471  0.00  0.00     0.048 C 
HETATM    4  C   UNK N   1      26.965  20.684   6.773  0.00  0.00     0.133 C 
HETATM    5  C   UNK N   1      26.132  21.002   5.542  0.00  0.00     0.111 C 
HETATM    6  C   UNK N   1      26.908  20.305   4.485  0.00  0.00     0.134 C 
ENDROOT
BRANCH   2   7
HETATM    7  C   UNK N   1      27.892  18.023   4.374  0.00  0.00     0.013 C 
BRANCH   7   8
HETATM    8  C   UNK N   1      26.574  17.380   4.765  0.00  0.00     0.001 C 
BRANCH   8   9
HETATM    9  C   UNK N   1      25.807  16.962   3.526  0.00  0.00     0.000 C 
BRANCH   9  10
HETATM   10  C   UNK N   1      24.320  16.945   3.833  0.00  0.00     0.001 C 
BRANCH  10  11
HETATM   11  C   UNK N   1      24.090  17.380   5.265  0.00  0.00     0.010 C 
BRANCH  11  12
HETATM   12  C   UNK N   1      22.769  16.823   5.763  0.00  0.00     0.110 C 
BRANCH  12  13
HETATM   13  C   UNK N   1      21.711  17.872   5.700  0.00  0.00     0.139 C 
HETATM   14  O   UNK N   1      21.494  18.582   6.669  0.00  0.00    -0.650 OA
BRANCH  13  15
HETATM   15  O   UNK N   1      21.010  18.052   4.567  0.00  0.00    -0.776 OA
HETATM   16  H   UNK N   1      20.744  17.335   4.024  0.00  0.00     0.167 HD
ENDBRANCH  13  15
ENDBRANCH  12  13
ENDBRANCH  11  12
ENDBRANCH  10  11
ENDBRANCH   9  10
ENDBRANCH   8   9
ENDBRANCH   7   8
ENDBRANCH   2   7
BRANCH   3  17
HETATM   17  C   UNK N   1      28.737  19.006   7.365  0.00  0.00    -0.020 C 
HETATM   18  C   UNK N   1      28.644  18.022   8.260  0.00  0.00     0.001 C 
BRANCH  18  19
HETATM   19  C   UNK N   1      29.801  17.669   9.131  0.00  0.00     0.140 C 
BRANCH  19  20
HETATM   20  O   UNK N   1      29.896  18.593  10.172  0.00  0.00    -0.392 OA
HETATM   21  H   UNK N   1      30.596  19.262  10.231  0.00  0.00     0.210 HD
ENDBRANCH  19  20
BRANCH  19  22
HETATM   22  C   UNK N   1      31.099  17.654   8.340  0.00  0.00     0.036 C 
BRANCH  22  23
HETATM   23  C   UNK N   1      31.271  16.291   7.705  0.00  0.00     0.003 C 
BRANCH  23  24
HETATM   24  C   UNK N   1      32.076  16.400   6.430  0.00  0.00    -0.000 C 
BRANCH  24  25
HETATM   25  C   UNK N   1      31.269  17.187   5.419  0.00  0.00    -0.005 C 
HETATM   26  C   UNK N   1      32.165  17.622   4.280  0.00  0.00     0.005 C 
ENDBRANCH  24  25
ENDBRANCH  23  24
ENDBRANCH  22  23
ENDBRANCH  19  22
ENDBRANCH  18  19
ENDBRANCH   3  17
BRANCH   4  27
HETATM   27  O   UNK N   1      26.169  20.632   7.917  0.00  0.00    -0.394 OA
HETATM   28  H   UNK N   1      26.387  20.803   8.847  0.00  0.00     0.210 HD
ENDBRANCH   4  27
TORSDOF 16
ENDMDL
MODEL 7
REMARK VINA RESULT:      -5.6     14.605     16.398
REMARK  16 active torsions:
REMARK  status: ('A' for Active; 'I' for Inactive)
REMARK    1  A    between atoms: C_8  and  O_1 
REMARK    2  A    between atoms: C_17  and  O_3 
REMARK    3  A    between atoms: O_4  and  C_24 
REMARK    4  A    between atoms: C_6  and  C_10 
REMARK    5  A    between atoms: C_7  and  C_13 
REMARK    6  A    between atoms: C_10  and  C_12 
REMARK    7  A    between atoms: C_12  and  C_14 
REMARK    8  A    between atoms: C_14  and  C_16 
REMARK    9  A    between atoms: C_15  and  C_17 
REMARK   10  A    between atoms: C_16  and  C_19 
REMARK   11  A    between atoms: C_17  and  C_18 
REMARK   12  A    between atoms: C_18  and  C_20 
REMARK   13  A    between atoms: C_19  and  C_21 
REMARK   14  A    between atoms: C_20  and  C_22 
REMARK   15  A    between atoms: C_21  and  C_24 
REMARK   16  A    between atoms: C_22  and  C_23 
ROOT
HETATM    1  O   UNK N   1      26.700  24.798  -2.971  0.00  0.00    -0.297 OA
HETATM    2  C   UNK N   1      27.971  23.999  -4.822  0.00  0.00     0.065 C 
HETATM    3  C   UNK N   1      27.515  23.999  -6.274  0.00  0.00     0.048 C 
HETATM    4  C   UNK N   1      26.030  23.682  -6.209  0.00  0.00     0.133 C 
HETATM    5  C   UNK N   1      25.527  24.472  -5.012  0.00  0.00     0.111 C 
HETATM    6  C   UNK N   1      26.737  24.482  -4.150  0.00  0.00     0.134 C 
ENDROOT
BRANCH   2   7
HETATM    7  C   UNK N   1      29.126  24.965  -4.641  0.00  0.00     0.013 C 
BRANCH   7   8
HETATM    8  C   UNK N   1      29.191  25.884  -5.846  0.00  0.00     0.001 C 
BRANCH   8   9
HETATM    9  C   UNK N   1      28.914  27.315  -5.429  0.00  0.00     0.000 C 
BRANCH   9  10
HETATM   10  C   UNK N   1      27.864  27.916  -6.347  0.00  0.00     0.001 C 
BRANCH  10  11
HETATM   11  C   UNK N   1      26.531  27.970  -5.631  0.00  0.00     0.010 C 
BRANCH  11  12
HETATM   12  C   UNK N   1      26.533  29.110  -4.630  0.00  0.00     0.110 C 
BRANCH  12  13
HETATM   13  C   UNK N   1      26.358  28.580  -3.247  0.00  0.00     0.139 C 
HETATM   14  O   UNK N   1      25.415  27.851  -2.985  0.00  0.00    -0.650 OA
BRANCH  13  15
HETATM   15  O   UNK N   1      27.251  28.889  -2.291  0.00  0.00    -0.776 OA
HETATM   16  H   UNK N   1      27.282  29.737  -1.891  0.00  0.00     0.167 HD
ENDBRANCH  13  15
ENDBRANCH  12  13
ENDBRANCH  11  12
ENDBRANCH  10  11
ENDBRANCH   9  10
ENDBRANCH   8   9
ENDBRANCH   7   8
ENDBRANCH   2   7
BRANCH   3  17
HETATM   17  C   UNK N   1      28.276  23.035  -7.126  0.00  0.00    -0.020 C 
HETATM   18  C   UNK N   1      28.648  21.850  -6.639  0.00  0.00     0.001 C 
BRANCH  18  19
HETATM   19  C   UNK N   1      29.376  20.867  -7.492  0.00  0.00     0.140 C 
BRANCH  19  20
HETATM   20  O   UNK N   1      28.464  19.964  -8.039  0.00  0.00    -0.392 OA
HETATM   21  H   UNK N   1      28.505  19.653  -8.957  0.00  0.00     0.210 HD
ENDBRANCH  19  20
BRANCH  19  22
HETATM   22  C   UNK N   1      30.423  20.113  -6.689  0.00  0.00     0.036 C 
BRANCH  22  23
HETATM   23  C   UNK N   1      31.136  21.087  -5.776  0.00  0.00     0.003 C 
BRANCH  23  24
HETATM   24  C   UNK N   1      31.265  20.511  -4.384  0.00  0.00    -0.000 C 
BRANCH  24  25
HETATM   25  C   UNK N   1      30.385  21.313  -3.448  0.00  0.00    -0.005 C 
HETATM   26  C   UNK N   1      31.187  22.442  -2.838  0.00  0.00     0.005 C 
ENDBRANCH  24  25
ENDBRANCH  23  24
ENDBRANCH  22  23
ENDBRANCH  19  22
ENDBRANCH  18  19
ENDBRANCH   3  17
BRANCH   4  27
HETATM   27  O   UNK N   1      25.379  24.075  -7.378  0.00  0.00    -0.394 OA
HETATM   28  H   UNK N   1      24.516  24.499  -7.509  0.00  0.00     0.210 HD
ENDBRANCH   4  27
TORSDOF 16
ENDMDL
MODEL 8
REMARK VINA RESULT:      -5.6     14.660     17.446
REMARK  16 active torsions:
REMARK  status: ('A' for Active; 'I' for Inactive)
REMARK    1  A    between atoms: C_8  and  O_1 
REMARK    2  A    between atoms: C_17  and  O_3 
REMARK    3  A    between atoms: O_4  and  C_24 
REMARK    4  A    between atoms: C_6  and  C_10 
REMARK    5  A    between atoms: C_7  and  C_13 
REMARK    6  A    between atoms: C_10  and  C_12 
REMARK    7  A    between atoms: C_12  and  C_14 
REMARK    8  A    between atoms: C_14  and  C_16 
REMARK    9  A    between atoms: C_15  and  C_17 
REMARK   10  A    between atoms: C_16  and  C_19 
REMARK   11  A    between atoms: C_17  and  C_18 
REMARK   12  A    between atoms: C_18  and  C_20 
REMARK   13  A    between atoms: C_19  and  C_21 
REMARK   14  A    between atoms: C_20  and  C_22 
REMARK   15  A    between atoms: C_21  and  C_24 
REMARK   16  A    between atoms: C_22  and  C_23 
ROOT
HETATM    1  O   UNK N   1      30.166  23.079  -1.451  0.00  0.00    -0.297 OA
HETATM    2  C   UNK N   1      29.474  24.155  -3.461  0.00  0.00     0.065 C 
HETATM    3  C   UNK N   1      30.062  23.910  -4.843  0.00  0.00     0.048 C 
HETATM    4  C   UNK N   1      31.546  23.697  -4.595  0.00  0.00     0.133 C 
HETATM    5  C   UNK N   1      31.601  22.855  -3.331  0.00  0.00     0.111 C 
HETATM    6  C   UNK N   1      30.376  23.316  -2.629  0.00  0.00     0.134 C 
ENDROOT
BRANCH   2   7
HETATM    7  C   UNK N   1      28.041  23.661  -3.412  0.00  0.00     0.013 C 
BRANCH   7   8
HETATM    8  C   UNK N   1      27.123  24.843  -3.155  0.00  0.00     0.001 C 
BRANCH   8   9
HETATM    9  C   UNK N   1      26.073  24.936  -4.245  0.00  0.00     0.000 C 
BRANCH   9  10
HETATM   10  C   UNK N   1      26.248  23.782  -5.217  0.00  0.00     0.001 C 
BRANCH  10  11
HETATM   11  C   UNK N   1      26.199  24.300  -6.639  0.00  0.00     0.010 C 
BRANCH  11  12
HETATM   12  C   UNK N   1      26.361  23.146  -7.610  0.00  0.00     0.110 C 
BRANCH  12  13
HETATM   13  C   UNK N   1      25.184  23.073  -8.522  0.00  0.00     0.139 C 
HETATM   14  O   UNK N   1      24.242  22.345  -8.251  0.00  0.00    -0.650 OA
BRANCH  13  15
HETATM   15  O   UNK N   1      25.150  23.825  -9.637  0.00  0.00    -0.776 OA
HETATM   16  H   UNK N   1      25.906  24.277  -9.958  0.00  0.00     0.167 HD
ENDBRANCH  13  15
ENDBRANCH  12  13
ENDBRANCH  11  12
ENDBRANCH  10  11
ENDBRANCH   9  10
ENDBRANCH   8   9
ENDBRANCH   7   8
ENDBRANCH   2   7
BRANCH   3  17
HETATM   17  C   UNK N   1      29.789  25.025  -5.800  0.00  0.00    -0.020 C 
HETATM   18  C   UNK N   1      29.719  26.285  -5.369  0.00  0.00     0.001 C 
BRANCH  18  19
HETATM   19  C   UNK N   1      29.483  27.407  -6.321  0.00  0.00     0.140 C 
BRANCH  19  20
HETATM   20  O   UNK N   1      29.991  28.589  -5.780  0.00  0.00    -0.392 OA
HETATM   21  H   UNK N   1      29.760  28.914  -4.896  0.00  0.00     0.210 HD
ENDBRANCH  19  20
BRANCH  19  22
HETATM   22  C   UNK N   1      28.001  27.576  -6.615  0.00  0.00     0.036 C 
BRANCH  22  23
HETATM   23  C   UNK N   1      27.444  28.662  -5.720  0.00  0.00     0.003 C 
BRANCH  23  24
HETATM   24  C   UNK N   1      26.121  28.233  -5.128  0.00  0.00    -0.000 C 
BRANCH  24  25
HETATM   25  C   UNK N   1      26.108  28.607  -3.660  0.00  0.00    -0.005 C 
HETATM   26  C   UNK N   1      27.523  28.615  -3.124  0.00  0.00     0.005 C 
ENDBRANCH  24  25
ENDBRANCH  23  24
ENDBRANCH  22  23
ENDBRANCH  19  22
ENDBRANCH  18  19
ENDBRANCH   3  17
BRANCH   4  27
HETATM   27  O   UNK N   1      32.146  23.033  -5.665  0.00  0.00    -0.394 OA
HETATM   28  H   UNK N   1      32.034  23.147  -6.622  0.00  0.00     0.210 HD
ENDBRANCH   4  27
TORSDOF 16
ENDMDL
MODEL 9
REMARK VINA RESULT:      -5.5     14.836     16.917
REMARK  16 active torsions:
REMARK  status: ('A' for Active; 'I' for Inactive)
REMARK    1  A    between atoms: C_8  and  O_1 
REMARK    2  A    between atoms: C_17  and  O_3 
REMARK    3  A    between atoms: O_4  and  C_24 
REMARK    4  A    between atoms: C_6  and  C_10 
REMARK    5  A    between atoms: C_7  and  C_13 
REMARK    6  A    between atoms: C_10  and  C_12 
REMARK    7  A    between atoms: C_12  and  C_14 
REMARK    8  A    between atoms: C_14  and  C_16 
REMARK    9  A    between atoms: C_15  and  C_17 
REMARK   10  A    between atoms: C_16  and  C_19 
REMARK   11  A    between atoms: C_17  and  C_18 
REMARK   12  A    between atoms: C_18  and  C_20 
REMARK   13  A    between atoms: C_19  and  C_21 
REMARK   14  A    between atoms: C_20  and  C_22 
REMARK   15  A    between atoms: C_21  and  C_24 
REMARK   16  A    between atoms: C_22  and  C_23 
ROOT
HETATM    1  O   UNK N   1      28.406  25.358  -3.539  0.00  0.00    -0.297 OA
HETATM    2  C   UNK N   1      27.503  24.259  -5.450  0.00  0.00     0.065 C 
HETATM    3  C   UNK N   1      26.621  24.906  -6.508  0.00  0.00     0.048 C 
HETATM    4  C   UNK N   1      25.744  25.876  -5.734  0.00  0.00     0.133 C 
HETATM    5  C   UNK N   1      26.680  26.496  -4.709  0.00  0.00     0.111 C 
HETATM    6  C   UNK N   1      27.632  25.379  -4.482  0.00  0.00     0.134 C 
ENDROOT
BRANCH   2   7
HETATM    7  C   UNK N   1      28.842  23.877  -6.052  0.00  0.00     0.013 C 
BRANCH   7   8
HETATM    8  C   UNK N   1      29.053  22.385  -5.875  0.00  0.00     0.001 C 
BRANCH   8   9
HETATM    9  C   UNK N   1      30.514  22.035  -6.079  0.00  0.00     0.000 C 
BRANCH   9  10
HETATM   10  C   UNK N   1      30.861  20.810  -5.250  0.00  0.00     0.001 C 
BRANCH  10  11
HETATM   11  C   UNK N   1      30.457  21.038  -3.809  0.00  0.00     0.010 C 
BRANCH  11  12
HETATM   12  C   UNK N   1      31.491  21.906  -3.118  0.00  0.00     0.110 C 
BRANCH  12  13
HETATM   13  C   UNK N   1      30.832  23.077  -2.472  0.00  0.00     0.139 C 
HETATM   14  O   UNK N   1      30.274  22.948  -1.394  0.00  0.00    -0.650 OA
BRANCH  13  15
HETATM   15  O   UNK N   1      30.869  24.282  -3.068  0.00  0.00    -0.776 OA
HETATM   16  H   UNK N   1      30.106  24.678  -3.443  0.00  0.00     0.167 HD
ENDBRANCH  13  15
ENDBRANCH  12  13
ENDBRANCH  11  12
ENDBRANCH  10  11
ENDBRANCH   9  10
ENDBRANCH   8   9
ENDBRANCH   7   8
ENDBRANCH   2   7
BRANCH   3  17
HETATM   17  C   UNK N   1      25.829  23.912  -7.296  0.00  0.00    -0.020 C 
HETATM   18  C   UNK N   1      25.531  22.721  -6.778  0.00  0.00     0.001 C 
BRANCH  18  19
HETATM   19  C   UNK N   1      24.712  21.737  -7.542  0.00  0.00     0.140 C 
BRANCH  19  20
HETATM   20  O   UNK N   1      23.708  21.230  -6.716  0.00  0.00    -0.392 OA
HETATM   21  H   UNK N   1      23.012  21.779  -6.323  0.00  0.00     0.210 HD
ENDBRANCH  19  20
BRANCH  19  22
HETATM   22  C   UNK N   1      25.570  20.596  -8.063  0.00  0.00     0.036 C 
BRANCH  22  23
HETATM   23  C   UNK N   1      26.269  21.046  -9.328  0.00  0.00     0.003 C 
BRANCH  23  24
HETATM   24  C   UNK N   1      27.767  21.069  -9.125  0.00  0.00    -0.000 C 
BRANCH  24  25
HETATM   25  C   UNK N   1      28.383  21.946 -10.195  0.00  0.00    -0.005 C 
HETATM   26  C   UNK N   1      28.604  23.339  -9.646  0.00  0.00     0.005 C 
ENDBRANCH  24  25
ENDBRANCH  23  24
ENDBRANCH  22  23
ENDBRANCH  19  22
ENDBRANCH  18  19
ENDBRANCH   3  17
BRANCH   4  27
HETATM   27  O   UNK N   1      25.207  26.851  -6.575  0.00  0.00    -0.394 OA
HETATM   28  H   UNK N   1      25.450  27.782  -6.700  0.00  0.00     0.210 HD
ENDBRANCH   4  27
TORSDOF 16
ENDMDL
