REMARK  11 active torsions:
REMARK  status: ('A' for Active; 'I' for Inactive)
REMARK    1  A    between atoms: S_1  and  P_3 
REMARK    2  A    between atoms: S_1  and  C_10 
REMARK    3  A    between atoms: P_3  and  O_6 
REMARK    4  A    between atoms: P_3  and  O_7 
REMARK    5  A    between atoms: O_4  and  C_12 
REMARK    6  A    between atoms: O_4  and  C_14 
REMARK    7  A    between atoms: O_5  and  C_13 
REMARK    8  A    between atoms: O_5  and  C_15 
REMARK    9  A    between atoms: C_10  and  C_11 
REMARK   10  A    between atoms: C_10  and  C_12 
REMARK   11  A    between atoms: C_11  and  C_13 
ROOT
HETATM    1  C   UNK N   1       5.084   1.011   0.395  0.00  0.00     0.165 C 
ENDROOT
BRANCH   1   2
HETATM    2  S   UNK N   1       3.709   1.286   1.558  0.00  0.00    -0.059 SA
BRANCH   2   3
HETATM    3  P   UNK N   1       2.165   1.124   0.037  0.00  0.00     0.248 P 
HETATM    4  S   UNK N   1       2.504  -0.270  -1.006  0.00  0.00    -0.026 SA
BRANCH   3   5
HETATM    5  O   UNK N   1       0.591   0.794   0.723  0.00  0.00    -0.332 OA
HETATM    6  C   UNK N   1      -0.339   0.959  -0.308  0.00  0.00     0.211 C 
ENDBRANCH   3   5
BRANCH   3   7
HETATM    7  O   UNK N   1       2.061   2.503  -1.022  0.00  0.00    -0.332 OA
HETATM    8  C   UNK N   1       1.641   3.558  -0.211  0.00  0.00     0.211 C 
ENDBRANCH   3   7
ENDBRANCH   2   3
ENDBRANCH   1   2
BRANCH   1   9
HETATM    9  C   UNK N   1       5.970  -0.097   0.954  0.00  0.00     0.137 C 
BRANCH   9  10
HETATM   10  C   UNK N   1       6.291  -1.152  -0.056  0.00  0.00     0.260 C 
HETATM   11  O   UNK N   1       6.809  -0.847  -1.121  0.00  0.00    -0.265 OA
BRANCH  10  12
HETATM   12  O   UNK N   1       6.059  -2.450   0.258  0.00  0.00    -0.322 OA
BRANCH  12  13
HETATM   13  C   UNK N   1       6.410  -3.487  -0.576  0.00  0.00     0.174 C 
HETATM   14  C   UNK N   1       6.126  -4.804   0.116  0.00  0.00     0.034 C 
ENDBRANCH  12  13
ENDBRANCH  10  12
ENDBRANCH   9  10
ENDBRANCH   1   9
BRANCH   1  15
HETATM   15  C   UNK N   1       5.759   2.332   0.034  0.00  0.00     0.273 C 
HETATM   16  O   UNK N   1       5.042   3.246  -0.339  0.00  0.00    -0.264 OA
BRANCH  15  17
HETATM   17  O   UNK N   1       7.103   2.560   0.076  0.00  0.00    -0.321 OA
BRANCH  17  18
HETATM   18  C   UNK N   1       8.082   1.630   0.332  0.00  0.00     0.174 C 
HETATM   19  C   UNK N   1       9.444   2.266   0.156  0.00  0.00     0.034 C 
ENDBRANCH  17  18
ENDBRANCH  15  17
ENDBRANCH   1  15
TORSDOF 11
