MODEL 1
REMARK VINA RESULT:      -4.4      0.000      0.000
REMARK  11 active torsions:
REMARK  status: ('A' for Active; 'I' for Inactive)
REMARK    1  A    between atoms: S_1  and  P_3 
REMARK    2  A    between atoms: S_1  and  C_10 
REMARK    3  A    between atoms: P_3  and  O_6 
REMARK    4  A    between atoms: P_3  and  O_7 
REMARK    5  A    between atoms: O_4  and  C_12 
REMARK    6  A    between atoms: O_4  and  C_14 
REMARK    7  A    between atoms: O_5  and  C_13 
REMARK    8  A    between atoms: O_5  and  C_15 
REMARK    9  A    between atoms: C_10  and  C_11 
REMARK   10  A    between atoms: C_10  and  C_12 
REMARK   11  A    between atoms: C_11  and  C_13 
ROOT
HETATM    1  C   UNK N   1      32.049  17.032   6.951  0.00  0.00     0.165 C 
ENDROOT
BRANCH   1   2
HETATM    2  S   UNK N   1      32.578  15.292   7.062  0.00  0.00    -0.059 SA
BRANCH   2   3
HETATM    3  P   UNK N   1      33.917  15.413   5.354  0.00  0.00     0.248 P 
HETATM    4  S   UNK N   1      33.792  13.926   4.396  0.00  0.00    -0.026 SA
BRANCH   3   5
HETATM    5  O   UNK N   1      33.470  16.693   4.250  0.00  0.00    -0.332 OA
HETATM    6  C   UNK N   1      32.886  16.078   3.138  0.00  0.00     0.211 C 
ENDBRANCH   3   5
BRANCH   3   7
HETATM    7  O   UNK N   1      35.600  15.571   5.778  0.00  0.00    -0.332 OA
HETATM    8  C   UNK N   1      36.121  14.279   5.701  0.00  0.00     0.211 C 
ENDBRANCH   3   7
ENDBRANCH   2   3
ENDBRANCH   1   2
BRANCH   1   9
HETATM    9  C   UNK N   1      32.506  17.753   8.215  0.00  0.00     0.137 C 
BRANCH   9  10
HETATM   10  C   UNK N   1      33.989  17.936   8.278  0.00  0.00     0.260 C 
HETATM   11  O   UNK N   1      34.591  18.417   7.329  0.00  0.00    -0.265 OA
BRANCH  10  12
HETATM   12  O   UNK N   1      34.637  17.621   9.426  0.00  0.00    -0.322 OA
BRANCH  12  13
HETATM   13  C   UNK N   1      34.744  16.328   9.885  0.00  0.00     0.174 C 
HETATM   14  C   UNK N   1      35.805  16.266  10.964  0.00  0.00     0.034 C 
ENDBRANCH  12  13
ENDBRANCH  10  12
ENDBRANCH   9  10
ENDBRANCH   1   9
BRANCH   1  15
HETATM   15  C   UNK N   1      30.569  17.125   6.588  0.00  0.00     0.273 C 
HETATM   16  O   UNK N   1      30.290  17.476   5.453  0.00  0.00    -0.264 OA
BRANCH  15  17
HETATM   17  O   UNK N   1      29.537  16.866   7.441  0.00  0.00    -0.321 OA
BRANCH  17  18
HETATM   18  C   UNK N   1      28.295  17.455   7.423  0.00  0.00     0.174 C 
HETATM   19  C   UNK N   1      28.357  18.792   8.130  0.00  0.00     0.034 C 
ENDBRANCH  17  18
ENDBRANCH  15  17
ENDBRANCH   1  15
TORSDOF 11
ENDMDL
MODEL 2
REMARK VINA RESULT:      -4.4     13.157     15.477
REMARK  11 active torsions:
REMARK  status: ('A' for Active; 'I' for Inactive)
REMARK    1  A    between atoms: S_1  and  P_3 
REMARK    2  A    between atoms: S_1  and  C_10 
REMARK    3  A    between atoms: P_3  and  O_6 
REMARK    4  A    between atoms: P_3  and  O_7 
REMARK    5  A    between atoms: O_4  and  C_12 
REMARK    6  A    between atoms: O_4  and  C_14 
REMARK    7  A    between atoms: O_5  and  C_13 
REMARK    8  A    between atoms: O_5  and  C_15 
REMARK    9  A    between atoms: C_10  and  C_11 
REMARK   10  A    between atoms: C_10  and  C_12 
REMARK   11  A    between atoms: C_11  and  C_13 
ROOT
HETATM    1  C   UNK N   1      27.865  24.729  -4.720  0.00  0.00     0.165 C 
ENDROOT
BRANCH   1   2
HETATM    2  S   UNK N   1      29.405  25.636  -4.370  0.00  0.00    -0.059 SA
BRANCH   2   3
HETATM    3  P   UNK N   1      30.581  23.844  -4.011  0.00  0.00     0.248 P 
HETATM    4  S   UNK N   1      32.184  24.030  -4.746  0.00  0.00    -0.026 SA
BRANCH   3   5
HETATM    5  O   UNK N   1      30.898  23.589  -2.311  0.00  0.00    -0.332 OA
HETATM    6  C   UNK N   1      29.805  22.880  -1.801  0.00  0.00     0.211 C 
ENDBRANCH   3   5
BRANCH   3   7
HETATM    7  O   UNK N   1      29.901  22.396  -4.701  0.00  0.00    -0.332 OA
HETATM    8  C   UNK N   1      30.925  21.838  -5.466  0.00  0.00     0.211 C 
ENDBRANCH   3   7
ENDBRANCH   2   3
ENDBRANCH   1   2
BRANCH   1   9
HETATM    9  C   UNK N   1      27.407  25.088  -6.129  0.00  0.00     0.137 C 
BRANCH   9  10
HETATM   10  C   UNK N   1      26.266  24.245  -6.604  0.00  0.00     0.260 C 
HETATM   11  O   UNK N   1      25.290  24.767  -7.124  0.00  0.00    -0.265 OA
BRANCH  10  12
HETATM   12  O   UNK N   1      26.365  22.897  -6.508  0.00  0.00    -0.322 OA
BRANCH  12  13
HETATM   13  C   UNK N   1      26.594  22.092  -7.600  0.00  0.00     0.174 C 
HETATM   14  C   UNK N   1      25.369  21.238  -7.858  0.00  0.00     0.034 C 
ENDBRANCH  12  13
ENDBRANCH  10  12
ENDBRANCH   9  10
ENDBRANCH   1   9
BRANCH   1  15
HETATM   15  C   UNK N   1      26.858  24.916  -3.588  0.00  0.00     0.273 C 
HETATM   16  O   UNK N   1      26.815  24.053  -2.726  0.00  0.00    -0.264 OA
BRANCH  15  17
HETATM   17  O   UNK N   1      25.989  25.961  -3.479  0.00  0.00    -0.321 OA
BRANCH  17  18
HETATM   18  C   UNK N   1      26.303  27.251  -3.123  0.00  0.00     0.174 C 
HETATM   19  C   UNK N   1      25.686  28.215  -4.113  0.00  0.00     0.034 C 
ENDBRANCH  17  18
ENDBRANCH  15  17
ENDBRANCH   1  15
TORSDOF 11
ENDMDL
MODEL 3
REMARK VINA RESULT:      -4.4      2.698      5.530
REMARK  11 active torsions:
REMARK  status: ('A' for Active; 'I' for Inactive)
REMARK    1  A    between atoms: S_1  and  P_3 
REMARK    2  A    between atoms: S_1  and  C_10 
REMARK    3  A    between atoms: P_3  and  O_6 
REMARK    4  A    between atoms: P_3  and  O_7 
REMARK    5  A    between atoms: O_4  and  C_12 
REMARK    6  A    between atoms: O_4  and  C_14 
REMARK    7  A    between atoms: O_5  and  C_13 
REMARK    8  A    between atoms: O_5  and  C_15 
REMARK    9  A    between atoms: C_10  and  C_11 
REMARK   10  A    between atoms: C_10  and  C_12 
REMARK   11  A    between atoms: C_11  and  C_13 
ROOT
HETATM    1  C   UNK N   1      33.864  16.203   8.162  0.00  0.00     0.165 C 
ENDROOT
BRANCH   1   2
HETATM    2  S   UNK N   1      34.790  14.635   8.199  0.00  0.00    -0.059 SA
BRANCH   2   3
HETATM    3  P   UNK N   1      35.748  15.048  10.105  0.00  0.00     0.248 P 
HETATM    4  S   UNK N   1      35.307  16.677  10.650  0.00  0.00    -0.026 SA
BRANCH   3   5
HETATM    5  O   UNK N   1      35.184  13.986  11.375  0.00  0.00    -0.332 OA
HETATM    6  C   UNK N   1      35.811  14.401  12.554  0.00  0.00     0.211 C 
ENDBRANCH   3   5
BRANCH   3   7
HETATM    7  O   UNK N   1      37.489  15.014  10.049  0.00  0.00    -0.332 OA
HETATM    8  C   UNK N   1      37.810  13.901   9.272  0.00  0.00     0.211 C 
ENDBRANCH   3   7
ENDBRANCH   2   3
ENDBRANCH   1   2
BRANCH   1   9
HETATM    9  C   UNK N   1      32.375  15.883   8.241  0.00  0.00     0.137 C 
BRANCH   9  10
HETATM   10  C   UNK N   1      31.509  17.082   8.024  0.00  0.00     0.260 C 
HETATM   11  O   UNK N   1      31.569  18.032   8.793  0.00  0.00    -0.265 OA
BRANCH  10  12
HETATM   12  O   UNK N   1      30.710  17.123   6.930  0.00  0.00    -0.322 OA
BRANCH  12  13
HETATM   13  C   UNK N   1      29.336  17.104   7.016  0.00  0.00     0.174 C 
HETATM   14  C   UNK N   1      28.756  18.030   5.967  0.00  0.00     0.034 C 
ENDBRANCH  12  13
ENDBRANCH  10  12
ENDBRANCH   9  10
ENDBRANCH   1   9
BRANCH   1  15
HETATM   15  C   UNK N   1      34.331  17.079   7.003  0.00  0.00     0.273 C 
HETATM   16  O   UNK N   1      34.581  18.248   7.247  0.00  0.00    -0.264 OA
BRANCH  15  17
HETATM   17  O   UNK N   1      34.469  16.660   5.712  0.00  0.00    -0.321 OA
BRANCH  17  18
HETATM   18  C   UNK N   1      33.455  16.292   4.860  0.00  0.00     0.174 C 
HETATM   19  C   UNK N   1      32.844  17.527   4.235  0.00  0.00     0.034 C 
ENDBRANCH  17  18
ENDBRANCH  15  17
ENDBRANCH   1  15
TORSDOF 11
ENDMDL
MODEL 4
REMARK VINA RESULT:      -4.4     12.511     14.803
REMARK  11 active torsions:
REMARK  status: ('A' for Active; 'I' for Inactive)
REMARK    1  A    between atoms: S_1  and  P_3 
REMARK    2  A    between atoms: S_1  and  C_10 
REMARK    3  A    between atoms: P_3  and  O_6 
REMARK    4  A    between atoms: P_3  and  O_7 
REMARK    5  A    between atoms: O_4  and  C_12 
REMARK    6  A    between atoms: O_4  and  C_14 
REMARK    7  A    between atoms: O_5  and  C_13 
REMARK    8  A    between atoms: O_5  and  C_15 
REMARK    9  A    between atoms: C_10  and  C_11 
REMARK   10  A    between atoms: C_10  and  C_12 
REMARK   11  A    between atoms: C_11  and  C_13 
ROOT
HETATM    1  C   UNK N   1      29.187  24.605  -4.048  0.00  0.00     0.165 C 
ENDROOT
BRANCH   1   2
HETATM    2  S   UNK N   1      28.933  26.397  -4.255  0.00  0.00    -0.059 SA
BRANCH   2   3
HETATM    3  P   UNK N   1      26.775  26.290  -4.019  0.00  0.00     0.248 P 
HETATM    4  S   UNK N   1      25.990  26.664  -5.565  0.00  0.00    -0.026 SA
BRANCH   3   5
HETATM    5  O   UNK N   1      26.231  24.677  -3.622  0.00  0.00    -0.332 OA
HETATM    6  C   UNK N   1      25.686  24.138  -4.791  0.00  0.00     0.211 C 
ENDBRANCH   3   5
BRANCH   3   7
HETATM    7  O   UNK N   1      26.128  27.423  -2.865  0.00  0.00    -0.332 OA
HETATM    8  C   UNK N   1      26.271  28.677  -3.461  0.00  0.00     0.211 C 
ENDBRANCH   3   7
ENDBRANCH   2   3
ENDBRANCH   1   2
BRANCH   1   9
HETATM    9  C   UNK N   1      30.386  24.394  -3.130  0.00  0.00     0.137 C 
BRANCH   9  10
HETATM   10  C   UNK N   1      30.253  23.181  -2.267  0.00  0.00     0.260 C 
HETATM   11  O   UNK N   1      29.182  22.915  -1.741  0.00  0.00    -0.265 OA
BRANCH  10  12
HETATM   12  O   UNK N   1      31.318  22.353  -2.134  0.00  0.00    -0.322 OA
BRANCH  12  13
HETATM   13  C   UNK N   1      31.816  21.614  -3.183  0.00  0.00     0.174 C 
HETATM   14  C   UNK N   1      33.197  21.105  -2.826  0.00  0.00     0.034 C 
ENDBRANCH  12  13
ENDBRANCH  10  12
ENDBRANCH   9  10
ENDBRANCH   1   9
BRANCH   1  15
HETATM   15  C   UNK N   1      29.211  23.903  -5.404  0.00  0.00     0.273 C 
HETATM   16  O   UNK N   1      29.602  24.547  -6.364  0.00  0.00    -0.264 OA
BRANCH  15  17
HETATM   17  O   UNK N   1      28.809  22.619  -5.626  0.00  0.00    -0.321 OA
BRANCH  17  18
HETATM   18  C   UNK N   1      29.048  21.871  -6.754  0.00  0.00     0.174 C 
HETATM   19  C   UNK N   1      29.996  20.740  -6.422  0.00  0.00     0.034 C 
ENDBRANCH  17  18
ENDBRANCH  15  17
ENDBRANCH   1  15
TORSDOF 11
ENDMDL
MODEL 5
REMARK VINA RESULT:      -4.4     13.845     15.931
REMARK  11 active torsions:
REMARK  status: ('A' for Active; 'I' for Inactive)
REMARK    1  A    between atoms: S_1  and  P_3 
REMARK    2  A    between atoms: S_1  and  C_10 
REMARK    3  A    between atoms: P_3  and  O_6 
REMARK    4  A    between atoms: P_3  and  O_7 
REMARK    5  A    between atoms: O_4  and  C_12 
REMARK    6  A    between atoms: O_4  and  C_14 
REMARK    7  A    between atoms: O_5  and  C_13 
REMARK    8  A    between atoms: O_5  and  C_15 
REMARK    9  A    between atoms: C_10  and  C_11 
REMARK   10  A    between atoms: C_10  and  C_12 
REMARK   11  A    between atoms: C_11  and  C_13 
ROOT
HETATM    1  C   UNK N   1      27.065  25.082  -4.926  0.00  0.00     0.165 C 
ENDROOT
BRANCH   1   2
HETATM    2  S   UNK N   1      27.940  26.413  -5.812  0.00  0.00    -0.059 SA
BRANCH   2   3
HETATM    3  P   UNK N   1      27.472  27.936  -4.334  0.00  0.00     0.248 P 
HETATM    4  S   UNK N   1      26.244  27.318  -3.213  0.00  0.00    -0.026 SA
BRANCH   3   5
HETATM    5  O   UNK N   1      28.845  28.321  -3.321  0.00  0.00    -0.332 OA
HETATM    6  C   UNK N   1      29.848  27.399  -3.637  0.00  0.00     0.211 C 
ENDBRANCH   3   5
BRANCH   3   7
HETATM    7  O   UNK N   1      26.816  29.403  -5.005  0.00  0.00    -0.332 OA
HETATM    8  C   UNK N   1      26.627  30.254  -3.916  0.00  0.00     0.211 C 
ENDBRANCH   3   7
ENDBRANCH   2   3
ENDBRANCH   1   2
BRANCH   1   9
HETATM    9  C   UNK N   1      28.092  24.042  -4.492  0.00  0.00     0.137 C 
BRANCH   9  10
HETATM   10  C   UNK N   1      28.062  23.773  -3.021  0.00  0.00     0.260 C 
HETATM   11  O   UNK N   1      27.004  23.817  -2.409  0.00  0.00    -0.265 OA
BRANCH  10  12
HETATM   12  O   UNK N   1      29.211  23.416  -2.398  0.00  0.00    -0.322 OA
BRANCH  12  13
HETATM   13  C   UNK N   1      30.443  23.521  -3.002  0.00  0.00     0.174 C 
HETATM   14  C   UNK N   1      31.184  22.207  -2.861  0.00  0.00     0.034 C 
ENDBRANCH  12  13
ENDBRANCH  10  12
ENDBRANCH   9  10
ENDBRANCH   1   9
BRANCH   1  15
HETATM   15  C   UNK N   1      25.869  24.590  -5.736  0.00  0.00     0.273 C 
HETATM   16  O   UNK N   1      25.148  25.433  -6.245  0.00  0.00    -0.264 OA
BRANCH  15  17
HETATM   17  O   UNK N   1      25.532  23.280  -5.916  0.00  0.00    -0.321 OA
BRANCH  17  18
HETATM   18  C   UNK N   1      25.833  22.502  -7.008  0.00  0.00     0.174 C 
HETATM   19  C   UNK N   1      24.719  21.505  -7.243  0.00  0.00     0.034 C 
ENDBRANCH  17  18
ENDBRANCH  15  17
ENDBRANCH   1  15
TORSDOF 11
ENDMDL
MODEL 6
REMARK VINA RESULT:      -4.3     13.205     15.550
REMARK  11 active torsions:
REMARK  status: ('A' for Active; 'I' for Inactive)
REMARK    1  A    between atoms: S_1  and  P_3 
REMARK    2  A    between atoms: S_1  and  C_10 
REMARK    3  A    between atoms: P_3  and  O_6 
REMARK    4  A    between atoms: P_3  and  O_7 
REMARK    5  A    between atoms: O_4  and  C_12 
REMARK    6  A    between atoms: O_4  and  C_14 
REMARK    7  A    between atoms: O_5  and  C_13 
REMARK    8  A    between atoms: O_5  and  C_15 
REMARK    9  A    between atoms: C_10  and  C_11 
REMARK   10  A    between atoms: C_10  and  C_12 
REMARK   11  A    between atoms: C_11  and  C_13 
ROOT
HETATM    1  C   UNK N   1      27.881  24.758  -4.903  0.00  0.00     0.165 C 
ENDROOT
BRANCH   1   2
HETATM    2  S   UNK N   1      29.495  25.572  -5.129  0.00  0.00    -0.059 SA
BRANCH   2   3
HETATM    3  P   UNK N   1      30.621  23.992  -4.150  0.00  0.00     0.248 P 
HETATM    4  S   UNK N   1      30.011  22.413  -4.681  0.00  0.00    -0.026 SA
BRANCH   3   5
HETATM    5  O   UNK N   1      32.307  23.995  -4.613  0.00  0.00    -0.332 OA
HETATM    6  C   UNK N   1      32.742  22.668  -4.554  0.00  0.00     0.211 C 
ENDBRANCH   3   5
BRANCH   3   7
HETATM    7  O   UNK N   1      30.494  23.997  -2.413  0.00  0.00    -0.332 OA
HETATM    8  C   UNK N   1      29.624  22.951  -2.105  0.00  0.00     0.211 C 
ENDBRANCH   3   7
ENDBRANCH   2   3
ENDBRANCH   1   2
BRANCH   1   9
HETATM    9  C   UNK N   1      27.193  24.675  -6.261  0.00  0.00     0.137 C 
BRANCH   9  10
HETATM   10  C   UNK N   1      26.308  23.477  -6.394  0.00  0.00     0.260 C 
HETATM   11  O   UNK N   1      25.135  23.537  -6.053  0.00  0.00    -0.265 OA
BRANCH  10  12
HETATM   12  O   UNK N   1      26.812  22.352  -6.959  0.00  0.00    -0.322 OA
BRANCH  12  13
HETATM   13  C   UNK N   1      26.504  21.968  -8.244  0.00  0.00     0.174 C 
HETATM   14  C   UNK N   1      25.548  20.794  -8.201  0.00  0.00     0.034 C 
ENDBRANCH  12  13
ENDBRANCH  10  12
ENDBRANCH   9  10
ENDBRANCH   1   9
BRANCH   1  15
HETATM   15  C   UNK N   1      27.102  25.408  -3.762  0.00  0.00     0.273 C 
HETATM   16  O   UNK N   1      26.488  24.670  -3.010  0.00  0.00    -0.264 OA
BRANCH  15  17
HETATM   17  O   UNK N   1      27.024  26.750  -3.534  0.00  0.00    -0.321 OA
BRANCH  17  18
HETATM   18  C   UNK N   1      25.878  27.506  -3.492  0.00  0.00     0.174 C 
HETATM   19  C   UNK N   1      25.268  27.581  -4.875  0.00  0.00     0.034 C 
ENDBRANCH  17  18
ENDBRANCH  15  17
ENDBRANCH   1  15
TORSDOF 11
ENDMDL
MODEL 7
REMARK VINA RESULT:      -4.3     14.461     16.546
REMARK  11 active torsions:
REMARK  status: ('A' for Active; 'I' for Inactive)
REMARK    1  A    between atoms: S_1  and  P_3 
REMARK    2  A    between atoms: S_1  and  C_10 
REMARK    3  A    between atoms: P_3  and  O_6 
REMARK    4  A    between atoms: P_3  and  O_7 
REMARK    5  A    between atoms: O_4  and  C_12 
REMARK    6  A    between atoms: O_4  and  C_14 
REMARK    7  A    between atoms: O_5  and  C_13 
REMARK    8  A    between atoms: O_5  and  C_15 
REMARK    9  A    between atoms: C_10  and  C_11 
REMARK   10  A    between atoms: C_10  and  C_12 
REMARK   11  A    between atoms: C_11  and  C_13 
ROOT
HETATM    1  C   UNK N   1      26.783  25.637  -4.140  0.00  0.00     0.165 C 
ENDROOT
BRANCH   1   2
HETATM    2  S   UNK N   1      27.942  26.158  -5.445  0.00  0.00    -0.059 SA
BRANCH   2   3
HETATM    3  P   UNK N   1      26.942  25.040  -7.017  0.00  0.00     0.248 P 
HETATM    4  S   UNK N   1      26.487  26.142  -8.330  0.00  0.00    -0.026 SA
BRANCH   3   5
HETATM    5  O   UNK N   1      27.997  23.865  -7.768  0.00  0.00    -0.332 OA
HETATM    6  C   UNK N   1      29.243  23.988  -7.146  0.00  0.00     0.211 C 
ENDBRANCH   3   5
BRANCH   3   7
HETATM    7  O   UNK N   1      25.470  24.260  -6.511  0.00  0.00    -0.332 OA
HETATM    8  C   UNK N   1      25.759  22.895  -6.508  0.00  0.00     0.211 C 
ENDBRANCH   3   7
ENDBRANCH   2   3
ENDBRANCH   1   2
BRANCH   1   9
HETATM    9  C   UNK N   1      26.403  26.864  -3.318  0.00  0.00     0.137 C 
BRANCH   9  10
HETATM   10  C   UNK N   1      25.685  27.902  -4.119  0.00  0.00     0.260 C 
HETATM   11  O   UNK N   1      24.840  27.571  -4.939  0.00  0.00    -0.265 OA
BRANCH  10  12
HETATM   12  O   UNK N   1      25.939  29.211  -3.872  0.00  0.00    -0.322 OA
BRANCH  12  13
HETATM   13  C   UNK N   1      27.217  29.716  -3.806  0.00  0.00     0.174 C 
HETATM   14  C   UNK N   1      27.720  29.991  -5.207  0.00  0.00     0.034 C 
ENDBRANCH  12  13
ENDBRANCH  10  12
ENDBRANCH   9  10
ENDBRANCH   1   9
BRANCH   1  15
HETATM   15  C   UNK N   1      27.329  24.429  -3.383  0.00  0.00     0.273 C 
HETATM   16  O   UNK N   1      26.529  23.741  -2.770  0.00  0.00    -0.264 OA
BRANCH  15  17
HETATM   17  O   UNK N   1      28.645  24.074  -3.321  0.00  0.00    -0.321 OA
BRANCH  17  18
HETATM   18  C   UNK N   1      29.193  23.105  -2.516  0.00  0.00     0.174 C 
HETATM   19  C   UNK N   1      30.701  23.133  -2.644  0.00  0.00     0.034 C 
ENDBRANCH  17  18
ENDBRANCH  15  17
ENDBRANCH   1  15
TORSDOF 11
ENDMDL
MODEL 8
REMARK VINA RESULT:      -4.3      2.025      4.906
REMARK  11 active torsions:
REMARK  status: ('A' for Active; 'I' for Inactive)
REMARK    1  A    between atoms: S_1  and  P_3 
REMARK    2  A    between atoms: S_1  and  C_10 
REMARK    3  A    between atoms: P_3  and  O_6 
REMARK    4  A    between atoms: P_3  and  O_7 
REMARK    5  A    between atoms: O_4  and  C_12 
REMARK    6  A    between atoms: O_4  and  C_14 
REMARK    7  A    between atoms: O_5  and  C_13 
REMARK    8  A    between atoms: O_5  and  C_15 
REMARK    9  A    between atoms: C_10  and  C_11 
REMARK   10  A    between atoms: C_10  and  C_12 
REMARK   11  A    between atoms: C_11  and  C_13 
ROOT
HETATM    1  C   UNK N   1      31.581  17.249   7.849  0.00  0.00     0.165 C 
ENDROOT
BRANCH   1   2
HETATM    2  S   UNK N   1      32.131  15.819   8.835  0.00  0.00    -0.059 SA
BRANCH   2   3
HETATM    3  P   UNK N   1      34.247  16.262   8.613  0.00  0.00     0.248 P 
HETATM    4  S   UNK N   1      35.190  14.775   8.826  0.00  0.00    -0.026 SA
BRANCH   3   5
HETATM    5  O   UNK N   1      34.643  16.813   7.002  0.00  0.00    -0.332 OA
HETATM    6  C   UNK N   1      34.823  15.669   6.219  0.00  0.00     0.211 C 
ENDBRANCH   3   5
BRANCH   3   7
HETATM    7  O   UNK N   1      34.863  17.395   9.784  0.00  0.00    -0.332 OA
HETATM    8  C   UNK N   1      35.454  16.612  10.777  0.00  0.00     0.211 C 
ENDBRANCH   3   7
ENDBRANCH   2   3
ENDBRANCH   1   2
BRANCH   1   9
HETATM    9  C   UNK N   1      30.783  18.178   8.757  0.00  0.00     0.137 C 
BRANCH   9  10
HETATM   10  C   UNK N   1      29.311  18.125   8.495  0.00  0.00     0.260 C 
HETATM   11  O   UNK N   1      28.643  17.195   8.924  0.00  0.00    -0.265 OA
BRANCH  10  12
HETATM   12  O   UNK N   1      28.727  19.155   7.836  0.00  0.00    -0.322 OA
BRANCH  12  13
HETATM   13  C   UNK N   1      27.880  18.964   6.768  0.00  0.00     0.174 C 
HETATM   14  C   UNK N   1      27.359  20.306   6.296  0.00  0.00     0.034 C 
ENDBRANCH  12  13
ENDBRANCH  10  12
ENDBRANCH   9  10
ENDBRANCH   1   9
BRANCH   1  15
HETATM   15  C   UNK N   1      30.913  16.789   6.556  0.00  0.00     0.273 C 
HETATM   16  O   UNK N   1      30.474  15.651   6.524  0.00  0.00    -0.264 OA
BRANCH  15  17
HETATM   17  O   UNK N   1      30.789  17.545   5.428  0.00  0.00    -0.321 OA
BRANCH  17  18
HETATM   18  C   UNK N   1      31.124  17.167   4.150  0.00  0.00     0.174 C 
HETATM   19  C   UNK N   1      32.579  17.494   3.889  0.00  0.00     0.034 C 
ENDBRANCH  17  18
ENDBRANCH  15  17
ENDBRANCH   1  15
TORSDOF 11
ENDMDL
MODEL 9
REMARK VINA RESULT:      -4.3      3.135      5.314
REMARK  11 active torsions:
REMARK  status: ('A' for Active; 'I' for Inactive)
REMARK    1  A    between atoms: S_1  and  P_3 
REMARK    2  A    between atoms: S_1  and  C_10 
REMARK    3  A    between atoms: P_3  and  O_6 
REMARK    4  A    between atoms: P_3  and  O_7 
REMARK    5  A    between atoms: O_4  and  C_12 
REMARK    6  A    between atoms: O_4  and  C_14 
REMARK    7  A    between atoms: O_5  and  C_13 
REMARK    8  A    between atoms: O_5  and  C_15 
REMARK    9  A    between atoms: C_10  and  C_11 
REMARK   10  A    between atoms: C_10  and  C_12 
REMARK   11  A    between atoms: C_11  and  C_13 
ROOT
HETATM    1  C   UNK N   1      34.108  15.340   8.270  0.00  0.00     0.165 C 
ENDROOT
BRANCH   1   2
HETATM    2  S   UNK N   1      34.695  16.475   9.569  0.00  0.00    -0.059 SA
BRANCH   2   3
HETATM    3  P   UNK N   1      35.603  14.906  10.768  0.00  0.00     0.248 P 
HETATM    4  S   UNK N   1      37.126  14.393  10.018  0.00  0.00    -0.026 SA
BRANCH   3   5
HETATM    5  O   UNK N   1      36.058  15.468  12.360  0.00  0.00    -0.332 OA
HETATM    6  C   UNK N   1      36.041  14.351  13.200  0.00  0.00     0.211 C 
ENDBRANCH   3   5
BRANCH   3   7
HETATM    7  O   UNK N   1      34.630  13.469  10.915  0.00  0.00    -0.332 OA
HETATM    8  C   UNK N   1      35.296  12.497  10.167  0.00  0.00     0.211 C 
ENDBRANCH   3   7
ENDBRANCH   2   3
ENDBRANCH   1   2
BRANCH   1   9
HETATM    9  C   UNK N   1      34.792  15.715   6.960  0.00  0.00     0.137 C 
BRANCH   9  10
HETATM   10  C   UNK N   1      34.085  16.809   6.226  0.00  0.00     0.260 C 
HETATM   11  O   UNK N   1      34.294  17.979   6.514  0.00  0.00    -0.265 OA
BRANCH  10  12
HETATM   12  O   UNK N   1      33.265  16.482   5.197  0.00  0.00    -0.322 OA
BRANCH  12  13
HETATM   13  C   UNK N   1      32.415  17.392   4.611  0.00  0.00     0.174 C 
HETATM   14  C   UNK N   1      32.325  17.107   3.126  0.00  0.00     0.034 C 
ENDBRANCH  12  13
ENDBRANCH  10  12
ENDBRANCH   9  10
ENDBRANCH   1   9
BRANCH   1  15
HETATM   15  C   UNK N   1      32.583  15.265   8.267  0.00  0.00     0.273 C 
HETATM   16  O   UNK N   1      32.069  14.299   7.726  0.00  0.00    -0.264 OA
BRANCH  15  17
HETATM   17  O   UNK N   1      31.753  16.205   8.803  0.00  0.00    -0.321 OA
BRANCH  17  18
HETATM   18  C   UNK N   1      30.858  16.991   8.117  0.00  0.00     0.174 C 
HETATM   19  C   UNK N   1      30.675  18.305   8.846  0.00  0.00     0.034 C 
ENDBRANCH  17  18
ENDBRANCH  15  17
ENDBRANCH   1  15
TORSDOF 11
ENDMDL
