MODEL 1
REMARK VINA RESULT:      -6.7      0.000      0.000
REMARK  6 active torsions:
REMARK  status: ('A' for Active; 'I' for Inactive)
REMARK    1  A    between atoms: S_1  and  C_21 
REMARK    2  A    between atoms: S_1  and  C_22 
REMARK    3  A    between atoms: C_6  and  C_10 
REMARK    4  A    between atoms: C_10  and  C_11 
REMARK    5  A    between atoms: C_17  and  C_19 
REMARK    6  A    between atoms: C_19  and  C_21 
ROOT
HETATM    1  N   UNK N   1      27.607  22.020  -7.621  0.00  0.00    -0.365 N 
HETATM    2  C   UNK N   1      29.428  22.927  -6.662  0.00  0.00    -0.028 A 
HETATM    3  C   UNK N   1      28.320  23.382  -6.006  0.00  0.00    -0.001 A 
HETATM    4  C   UNK N   1      28.964  22.084  -7.670  0.00  0.00     0.096 A 
HETATM    5  C   UNK N   1      27.233  22.820  -6.602  0.00  0.00     0.043 A 
HETATM    6  C   UNK N   1      28.203  24.268  -4.944  0.00  0.00     0.021 A 
HETATM    7  C   UNK N   1      26.914  24.592  -4.491  0.00  0.00    -0.056 A 
HETATM    8  C   UNK N   1      25.936  23.091  -6.170  0.00  0.00     0.031 A 
HETATM    9  C   UNK N   1      25.778  23.993  -5.095  0.00  0.00     0.009 A 
HETATM   10  H   UNK N   1      27.017  21.497  -8.210  0.00  0.00     0.165 HD
ENDROOT
BRANCH   7  11
HETATM   11  C   UNK N   1      26.791  25.618  -3.403  0.00  0.00     0.054 C 
BRANCH  11  12
HETATM   12  C   UNK N   1      27.384  27.025  -3.698  0.00  0.00     0.150 C 
BRANCH  12  13
HETATM   13  S   UNK N   1      26.345  28.572  -3.925  0.00  0.00     0.175 S 
HETATM   14  O   UNK N   1      27.535  29.008  -3.060  0.00  0.00    -0.223 OA
HETATM   15  O   UNK N   1      25.334  27.849  -3.030  0.00  0.00    -0.223 OA
BRANCH  13  16
HETATM   16  C   UNK N   1      26.513  27.888  -5.581  0.00  0.00     0.059 A 
HETATM   17  C   UNK N   1      25.434  27.249  -6.210  0.00  0.00     0.023 A 
HETATM   18  C   UNK N   1      25.614  26.623  -7.448  0.00  0.00     0.002 A 
HETATM   19  C   UNK N   1      26.878  26.605  -8.046  0.00  0.00     0.000 A 
HETATM   20  C   UNK N   1      27.964  27.214  -7.408  0.00  0.00     0.002 A 
HETATM   21  C   UNK N   1      27.783  27.846  -6.176  0.00  0.00     0.023 A 
ENDBRANCH  13  16
ENDBRANCH  12  13
ENDBRANCH  11  12
ENDBRANCH   7  11
BRANCH   2  22
HETATM   22  C   UNK N   1      30.836  23.330  -6.329  0.00  0.00     0.076 C 
BRANCH  22  23
HETATM   23  C   UNK N   1      31.536  22.480  -5.276  0.00  0.00     0.227 C 
HETATM   24  N   UNK N   1      30.775  21.263  -5.003  0.00  0.00     0.089 N 
HETATM   25  C   UNK N   1      30.713  21.139  -3.555  0.00  0.00     0.272 C 
HETATM   26  C   UNK N   1      31.551  20.133  -5.484  0.00  0.00     0.310 C 
HETATM   27  C   UNK N   1      30.762  22.536  -2.995  0.00  0.00     0.032 C 
HETATM   28  C   UNK N   1      31.602  23.290  -3.991  0.00  0.00     0.038 C 
ENDBRANCH  22  23
ENDBRANCH   2  22
TORSDOF 6
ENDMDL
MODEL 2
REMARK VINA RESULT:      -6.6      1.745      2.900
REMARK  6 active torsions:
REMARK  status: ('A' for Active; 'I' for Inactive)
REMARK    1  A    between atoms: S_1  and  C_21 
REMARK    2  A    between atoms: S_1  and  C_22 
REMARK    3  A    between atoms: C_6  and  C_10 
REMARK    4  A    between atoms: C_10  and  C_11 
REMARK    5  A    between atoms: C_17  and  C_19 
REMARK    6  A    between atoms: C_19  and  C_21 
ROOT
HETATM    1  N   UNK N   1      25.559  24.292  -6.469  0.00  0.00    -0.365 N 
HETATM    2  C   UNK N   1      27.003  24.075  -4.758  0.00  0.00    -0.028 A 
HETATM    3  C   UNK N   1      26.439  25.317  -4.695  0.00  0.00    -0.001 A 
HETATM    4  C   UNK N   1      26.447  23.452  -5.875  0.00  0.00     0.096 A 
HETATM    5  C   UNK N   1      25.570  25.424  -5.737  0.00  0.00     0.043 A 
HETATM    6  C   UNK N   1      26.654  26.360  -3.805  0.00  0.00     0.021 A 
HETATM    7  C   UNK N   1      25.952  27.559  -4.006  0.00  0.00    -0.056 A 
HETATM    8  C   UNK N   1      24.833  26.585  -5.962  0.00  0.00     0.031 A 
HETATM    9  C   UNK N   1      25.030  27.669  -5.078  0.00  0.00     0.009 A 
HETATM   10  H   UNK N   1      25.018  24.111  -7.271  0.00  0.00     0.165 HD
ENDROOT
BRANCH   7  11
HETATM   11  C   UNK N   1      26.257  28.710  -3.094  0.00  0.00     0.054 C 
BRANCH  11  12
HETATM   12  C   UNK N   1      27.702  29.280  -3.144  0.00  0.00     0.150 C 
BRANCH  12  13
HETATM   13  S   UNK N   1      28.216  30.741  -4.205  0.00  0.00     0.175 S 
HETATM   14  O   UNK N   1      28.737  31.062  -2.798  0.00  0.00    -0.223 OA
HETATM   15  O   UNK N   1      26.716  31.050  -4.250  0.00  0.00    -0.223 OA
BRANCH  13  16
HETATM   16  C   UNK N   1      28.718  29.293  -5.149  0.00  0.00     0.059 A 
HETATM   17  C   UNK N   1      28.112  28.987  -6.377  0.00  0.00     0.023 A 
HETATM   18  C   UNK N   1      28.432  27.797  -7.040  0.00  0.00     0.002 A 
HETATM   19  C   UNK N   1      29.333  26.896  -6.464  0.00  0.00     0.000 A 
HETATM   20  C   UNK N   1      29.915  27.182  -5.225  0.00  0.00     0.002 A 
HETATM   21  C   UNK N   1      29.602  28.373  -4.566  0.00  0.00     0.023 A 
ENDBRANCH  13  16
ENDBRANCH  12  13
ENDBRANCH  11  12
ENDBRANCH   7  11
BRANCH   2  22
HETATM   22  C   UNK N   1      28.040  23.564  -3.799  0.00  0.00     0.076 C 
BRANCH  22  23
HETATM   23  C   UNK N   1      29.482  23.624  -4.288  0.00  0.00     0.227 C 
HETATM   24  N   UNK N   1      29.882  22.348  -4.877  0.00  0.00     0.089 N 
HETATM   25  C   UNK N   1      31.186  22.032  -4.315  0.00  0.00     0.272 C 
HETATM   26  C   UNK N   1      30.082  22.556  -6.301  0.00  0.00     0.310 C 
HETATM   27  C   UNK N   1      31.234  22.658  -2.946  0.00  0.00     0.032 C 
HETATM   28  C   UNK N   1      30.373  23.884  -3.084  0.00  0.00     0.038 C 
ENDBRANCH  22  23
ENDBRANCH   2  22
TORSDOF 6
ENDMDL
MODEL 3
REMARK VINA RESULT:      -6.5     12.775     14.950
REMARK  6 active torsions:
REMARK  status: ('A' for Active; 'I' for Inactive)
REMARK    1  A    between atoms: S_1  and  C_21 
REMARK    2  A    between atoms: S_1  and  C_22 
REMARK    3  A    between atoms: C_6  and  C_10 
REMARK    4  A    between atoms: C_10  and  C_11 
REMARK    5  A    between atoms: C_17  and  C_19 
REMARK    6  A    between atoms: C_19  and  C_21 
ROOT
HETATM    1  N   UNK N   1      27.492  19.361   7.270  0.00  0.00    -0.365 N 
HETATM    2  C   UNK N   1      28.404  18.108   5.639  0.00  0.00    -0.028 A 
HETATM    3  C   UNK N   1      29.090  17.878   6.798  0.00  0.00    -0.001 A 
HETATM    4  C   UNK N   1      27.415  19.040   5.951  0.00  0.00     0.096 A 
HETATM    5  C   UNK N   1      28.520  18.645   7.769  0.00  0.00     0.043 A 
HETATM    6  C   UNK N   1      30.186  17.066   7.050  0.00  0.00     0.021 A 
HETATM    7  C   UNK N   1      30.719  17.055   8.349  0.00  0.00    -0.056 A 
HETATM    8  C   UNK N   1      28.998  18.647   9.078  0.00  0.00     0.031 A 
HETATM    9  C   UNK N   1      30.117  17.836   9.369  0.00  0.00     0.009 A 
HETATM   10  H   UNK N   1      26.916  19.989   7.761  0.00  0.00     0.165 HD
ENDROOT
BRANCH   7  11
HETATM   11  C   UNK N   1      31.957  16.244   8.591  0.00  0.00     0.054 C 
BRANCH  11  12
HETATM   12  C   UNK N   1      32.681  15.679   7.336  0.00  0.00     0.150 C 
BRANCH  12  13
HETATM   13  S   UNK N   1      34.486  16.002   6.933  0.00  0.00     0.175 S 
HETATM   14  O   UNK N   1      34.475  14.672   7.697  0.00  0.00    -0.223 OA
HETATM   15  O   UNK N   1      34.356  17.145   7.946  0.00  0.00    -0.223 OA
BRANCH  13  16
HETATM   16  C   UNK N   1      33.616  16.268   5.380  0.00  0.00     0.059 A 
HETATM   17  C   UNK N   1      33.669  15.315   4.351  0.00  0.00     0.023 A 
HETATM   18  C   UNK N   1      33.084  15.589   3.111  0.00  0.00     0.002 A 
HETATM   19  C   UNK N   1      32.473  16.825   2.883  0.00  0.00     0.000 A 
HETATM   20  C   UNK N   1      32.445  17.790   3.894  0.00  0.00     0.002 A 
HETATM   21  C   UNK N   1      33.022  17.515   5.136  0.00  0.00     0.023 A 
ENDBRANCH  13  16
ENDBRANCH  12  13
ENDBRANCH  11  12
ENDBRANCH   7  11
BRANCH   2  22
HETATM   22  C   UNK N   1      28.732  17.471   4.319  0.00  0.00     0.076 C 
BRANCH  22  23
HETATM   23  C   UNK N   1      28.179  16.068   4.104  0.00  0.00     0.227 C 
HETATM   24  N   UNK N   1      28.937  15.365   3.071  0.00  0.00     0.089 N 
HETATM   25  C   UNK N   1      27.953  14.758   2.188  0.00  0.00     0.272 C 
HETATM   26  C   UNK N   1      29.654  14.274   3.708  0.00  0.00     0.310 C 
HETATM   27  C   UNK N   1      26.730  15.636   2.229  0.00  0.00     0.032 C 
HETATM   28  C   UNK N   1      26.743  16.201   3.623  0.00  0.00     0.038 C 
ENDBRANCH  22  23
ENDBRANCH   2  22
TORSDOF 6
ENDMDL
MODEL 4
REMARK VINA RESULT:      -6.4      3.810      5.946
REMARK  6 active torsions:
REMARK  status: ('A' for Active; 'I' for Inactive)
REMARK    1  A    between atoms: S_1  and  C_21 
REMARK    2  A    between atoms: S_1  and  C_22 
REMARK    3  A    between atoms: C_6  and  C_10 
REMARK    4  A    between atoms: C_10  and  C_11 
REMARK    5  A    between atoms: C_17  and  C_19 
REMARK    6  A    between atoms: C_19  and  C_21 
ROOT
HETATM    1  N   UNK N   1      26.199  29.198  -3.383  0.00  0.00    -0.365 N 
HETATM    2  C   UNK N   1      27.999  29.220  -4.732  0.00  0.00    -0.028 A 
HETATM    3  C   UNK N   1      27.042  28.426  -5.297  0.00  0.00    -0.001 A 
HETATM    4  C   UNK N   1      27.457  29.688  -3.535  0.00  0.00     0.096 A 
HETATM    5  C   UNK N   1      25.965  28.429  -4.465  0.00  0.00     0.043 A 
HETATM    6  C   UNK N   1      27.064  27.688  -6.472  0.00  0.00     0.021 A 
HETATM    7  C   UNK N   1      25.934  26.917  -6.792  0.00  0.00    -0.056 A 
HETATM    8  C   UNK N   1      24.812  27.700  -4.753  0.00  0.00     0.031 A 
HETATM    9  C   UNK N   1      24.801  26.933  -5.939  0.00  0.00     0.009 A 
HETATM   10  H   UNK N   1      25.584  29.369  -2.634  0.00  0.00     0.165 HD
ENDROOT
BRANCH   7  11
HETATM   11  C   UNK N   1      26.000  26.053  -8.016  0.00  0.00     0.054 C 
BRANCH  11  12
HETATM   12  C   UNK N   1      26.963  24.833  -7.961  0.00  0.00     0.150 C 
BRANCH  12  13
HETATM   13  S   UNK N   1      26.423  23.092  -7.514  0.00  0.00     0.175 S 
HETATM   14  O   UNK N   1      27.225  22.944  -8.813  0.00  0.00    -0.223 OA
HETATM   15  O   UNK N   1      25.018  23.593  -7.865  0.00  0.00    -0.223 OA
BRANCH  13  16
HETATM   16  C   UNK N   1      27.106  23.763  -5.990  0.00  0.00     0.059 A 
HETATM   17  C   UNK N   1      26.298  23.950  -4.858  0.00  0.00     0.023 A 
HETATM   18  C   UNK N   1      26.818  24.580  -3.722  0.00  0.00     0.002 A 
HETATM   19  C   UNK N   1      28.134  25.052  -3.724  0.00  0.00     0.000 A 
HETATM   20  C   UNK N   1      28.933  24.895  -4.860  0.00  0.00     0.002 A 
HETATM   21  C   UNK N   1      28.418  24.260  -5.993  0.00  0.00     0.023 A 
ENDBRANCH  13  16
ENDBRANCH  12  13
ENDBRANCH  11  12
ENDBRANCH   7  11
BRANCH   2  22
HETATM   22  C   UNK N   1      29.357  29.465  -5.324  0.00  0.00     0.076 C 
BRANCH  22  23
HETATM   23  C   UNK N   1      30.377  28.351  -5.126  0.00  0.00     0.227 C 
HETATM   24  N   UNK N   1      31.294  28.677  -4.036  0.00  0.00     0.089 N 
HETATM   25  C   UNK N   1      32.631  28.389  -4.531  0.00  0.00     0.272 C 
HETATM   26  C   UNK N   1      31.044  27.747  -2.948  0.00  0.00     0.310 C 
HETATM   27  C   UNK N   1      32.599  28.600  -6.022  0.00  0.00     0.032 C 
HETATM   28  C   UNK N   1      31.191  28.231  -6.404  0.00  0.00     0.038 C 
ENDBRANCH  22  23
ENDBRANCH   2  22
TORSDOF 6
ENDMDL
MODEL 5
REMARK VINA RESULT:      -6.3     11.552     14.852
REMARK  6 active torsions:
REMARK  status: ('A' for Active; 'I' for Inactive)
REMARK    1  A    between atoms: S_1  and  C_21 
REMARK    2  A    between atoms: S_1  and  C_22 
REMARK    3  A    between atoms: C_6  and  C_10 
REMARK    4  A    between atoms: C_10  and  C_11 
REMARK    5  A    between atoms: C_17  and  C_19 
REMARK    6  A    between atoms: C_19  and  C_21 
ROOT
HETATM    1  N   UNK N   1      27.474  19.597   7.335  0.00  0.00    -0.365 N 
HETATM    2  C   UNK N   1      27.295  19.679   5.094  0.00  0.00    -0.028 A 
HETATM    3  C   UNK N   1      28.236  18.743   5.420  0.00  0.00    -0.001 A 
HETATM    4  C   UNK N   1      26.836  20.205   6.300  0.00  0.00     0.096 A 
HETATM    5  C   UNK N   1      28.326  18.712   6.779  0.00  0.00     0.043 A 
HETATM    6  C   UNK N   1      29.029  17.943   4.610  0.00  0.00     0.021 A 
HETATM    7  C   UNK N   1      29.954  17.086   5.228  0.00  0.00    -0.056 A 
HETATM    8  C   UNK N   1      29.211  17.860   7.436  0.00  0.00     0.031 A 
HETATM    9  C   UNK N   1      30.038  17.034   6.643  0.00  0.00     0.009 A 
HETATM   10  H   UNK N   1      27.343  19.769   8.295  0.00  0.00     0.165 HD
ENDROOT
BRANCH   7  11
HETATM   11  C   UNK N   1      30.869  16.291   4.345  0.00  0.00     0.054 C 
BRANCH  11  12
HETATM   12  C   UNK N   1      31.941  15.415   5.054  0.00  0.00     0.150 C 
BRANCH  12  13
HETATM   13  S   UNK N   1      33.772  15.460   4.641  0.00  0.00     0.175 S 
HETATM   14  O   UNK N   1      33.066  16.048   3.411  0.00  0.00    -0.223 OA
HETATM   15  O   UNK N   1      33.648  13.933   4.587  0.00  0.00    -0.223 OA
BRANCH  13  16
HETATM   16  C   UNK N   1      33.659  16.169   6.290  0.00  0.00     0.059 A 
HETATM   17  C   UNK N   1      33.265  15.386   7.387  0.00  0.00     0.023 A 
HETATM   18  C   UNK N   1      33.072  15.980   8.639  0.00  0.00     0.002 A 
HETATM   19  C   UNK N   1      33.239  17.359   8.793  0.00  0.00     0.000 A 
HETATM   20  C   UNK N   1      33.601  18.148   7.696  0.00  0.00     0.002 A 
HETATM   21  C   UNK N   1      33.802  17.556   6.448  0.00  0.00     0.023 A 
ENDBRANCH  13  16
ENDBRANCH  12  13
ENDBRANCH  11  12
ENDBRANCH   7  11
BRANCH   2  22
HETATM   22  C   UNK N   1      26.911  20.040   3.688  0.00  0.00     0.076 C 
BRANCH  22  23
HETATM   23  C   UNK N   1      25.638  19.391   3.161  0.00  0.00     0.227 C 
HETATM   24  N   UNK N   1      24.463  19.918   3.854  0.00  0.00     0.089 N 
HETATM   25  C   UNK N   1      23.656  18.764   4.218  0.00  0.00     0.272 C 
HETATM   26  C   UNK N   1      23.686  20.685   2.896  0.00  0.00     0.310 C 
HETATM   27  C   UNK N   1      24.604  17.611   4.414  0.00  0.00     0.032 C 
HETATM   28  C   UNK N   1      25.720  17.900   3.447  0.00  0.00     0.038 C 
ENDBRANCH  22  23
ENDBRANCH   2  22
TORSDOF 6
ENDMDL
MODEL 6
REMARK VINA RESULT:      -6.3     13.426     16.244
REMARK  6 active torsions:
REMARK  status: ('A' for Active; 'I' for Inactive)
REMARK    1  A    between atoms: S_1  and  C_21 
REMARK    2  A    between atoms: S_1  and  C_22 
REMARK    3  A    between atoms: C_6  and  C_10 
REMARK    4  A    between atoms: C_10  and  C_11 
REMARK    5  A    between atoms: C_17  and  C_19 
REMARK    6  A    between atoms: C_19  and  C_21 
ROOT
HETATM    1  N   UNK N   1      30.883  17.128   3.438  0.00  0.00    -0.365 N 
HETATM    2  C   UNK N   1      29.625  16.533   5.206  0.00  0.00    -0.028 A 
HETATM    3  C   UNK N   1      30.870  16.873   5.654  0.00  0.00    -0.001 A 
HETATM    4  C   UNK N   1      29.654  16.692   3.821  0.00  0.00     0.096 A 
HETATM    5  C   UNK N   1      31.611  17.230   4.569  0.00  0.00     0.043 A 
HETATM    6  C   UNK N   1      31.398  16.868   6.938  0.00  0.00     0.021 A 
HETATM    7  C   UNK N   1      32.743  17.235   7.102  0.00  0.00    -0.056 A 
HETATM    8  C   UNK N   1      32.942  17.625   4.687  0.00  0.00     0.031 A 
HETATM    9  C   UNK N   1      33.514  17.626   5.978  0.00  0.00     0.009 A 
HETATM   10  H   UNK N   1      31.182  17.327   2.523  0.00  0.00     0.165 HD
ENDROOT
BRANCH   7  11
HETATM   11  C   UNK N   1      33.331  17.140   8.479  0.00  0.00     0.054 C 
BRANCH  11  12
HETATM   12  C   UNK N   1      34.668  16.359   8.618  0.00  0.00     0.150 C 
BRANCH  12  13
HETATM   13  S   UNK N   1      34.795  14.615   9.302  0.00  0.00     0.175 S 
HETATM   14  O   UNK N   1      33.811  15.340  10.229  0.00  0.00    -0.223 OA
HETATM   15  O   UNK N   1      36.220  15.027   9.689  0.00  0.00    -0.223 OA
BRANCH  13  16
HETATM   16  C   UNK N   1      34.526  14.394   7.537  0.00  0.00     0.059 A 
HETATM   17  C   UNK N   1      33.376  13.746   7.058  0.00  0.00     0.023 A 
HETATM   18  C   UNK N   1      33.239  13.482   5.692  0.00  0.00     0.002 A 
HETATM   19  C   UNK N   1      34.260  13.833   4.804  0.00  0.00     0.000 A 
HETATM   20  C   UNK N   1      35.421  14.451   5.280  0.00  0.00     0.002 A 
HETATM   21  C   UNK N   1      35.556  14.723   6.643  0.00  0.00     0.023 A 
ENDBRANCH  13  16
ENDBRANCH  12  13
ENDBRANCH  11  12
ENDBRANCH   7  11
BRANCH   2  22
HETATM   22  C   UNK N   1      28.507  16.056   6.088  0.00  0.00     0.076 C 
BRANCH  22  23
HETATM   23  C   UNK N   1      27.616  17.143   6.674  0.00  0.00     0.227 C 
HETATM   24  N   UNK N   1      27.904  18.437   6.058  0.00  0.00     0.089 N 
HETATM   25  C   UNK N   1      28.008  19.393   7.149  0.00  0.00     0.272 C 
HETATM   26  C   UNK N   1      26.745  18.826   5.273  0.00  0.00     0.310 C 
HETATM   27  C   UNK N   1      28.499  18.630   8.352  0.00  0.00     0.032 C 
HETATM   28  C   UNK N   1      27.926  17.253   8.158  0.00  0.00     0.038 C 
ENDBRANCH  22  23
ENDBRANCH   2  22
TORSDOF 6
ENDMDL
MODEL 7
REMARK VINA RESULT:      -6.2      3.937      6.606
REMARK  6 active torsions:
REMARK  status: ('A' for Active; 'I' for Inactive)
REMARK    1  A    between atoms: S_1  and  C_21 
REMARK    2  A    between atoms: S_1  and  C_22 
REMARK    3  A    between atoms: C_6  and  C_10 
REMARK    4  A    between atoms: C_10  and  C_11 
REMARK    5  A    between atoms: C_17  and  C_19 
REMARK    6  A    between atoms: C_19  and  C_21 
ROOT
HETATM    1  N   UNK N   1      26.667  21.301  -8.372  0.00  0.00    -0.365 N 
HETATM    2  C   UNK N   1      27.556  22.842  -6.995  0.00  0.00    -0.028 A 
HETATM    3  C   UNK N   1      28.408  21.776  -7.061  0.00  0.00    -0.001 A 
HETATM    4  C   UNK N   1      26.473  22.525  -7.813  0.00  0.00     0.096 A 
HETATM    5  C   UNK N   1      27.850  20.859  -7.899  0.00  0.00     0.043 A 
HETATM    6  C   UNK N   1      29.619  21.549  -6.422  0.00  0.00     0.021 A 
HETATM    7  C   UNK N   1      30.270  20.326  -6.650  0.00  0.00    -0.056 A 
HETATM    8  C   UNK N   1      28.472  19.643  -8.176  0.00  0.00     0.031 A 
HETATM    9  C   UNK N   1      29.703  19.376  -7.538  0.00  0.00     0.009 A 
HETATM   10  H   UNK N   1      26.066  20.832  -8.993  0.00  0.00     0.165 HD
ENDROOT
BRANCH   7  11
HETATM   11  C   UNK N   1      31.531  20.052  -5.886  0.00  0.00     0.054 C 
BRANCH  11  12
HETATM   12  C   UNK N   1      32.488  21.257  -5.658  0.00  0.00     0.150 C 
BRANCH  12  13
HETATM   13  S   UNK N   1      33.700  21.376  -4.229  0.00  0.00     0.175 S 
HETATM   14  O   UNK N   1      34.541  21.606  -5.492  0.00  0.00    -0.223 OA
HETATM   15  O   UNK N   1      33.449  19.872  -4.081  0.00  0.00    -0.223 OA
BRANCH  13  16
HETATM   16  C   UNK N   1      32.320  22.424  -3.745  0.00  0.00     0.059 A 
HETATM   17  C   UNK N   1      31.366  21.978  -2.817  0.00  0.00     0.023 A 
HETATM   18  C   UNK N   1      30.239  22.759  -2.540  0.00  0.00     0.002 A 
HETATM   19  C   UNK N   1      30.045  23.971  -3.209  0.00  0.00     0.000 A 
HETATM   20  C   UNK N   1      30.977  24.405  -4.157  0.00  0.00     0.002 A 
HETATM   21  C   UNK N   1      32.106  23.630  -4.430  0.00  0.00     0.023 A 
ENDBRANCH  13  16
ENDBRANCH  12  13
ENDBRANCH  11  12
ENDBRANCH   7  11
BRANCH   2  22
HETATM   22  C   UNK N   1      27.791  24.064  -6.154  0.00  0.00     0.076 C 
BRANCH  22  23
HETATM   23  C   UNK N   1      26.543  24.729  -5.588  0.00  0.00     0.227 C 
HETATM   24  N   UNK N   1      26.627  26.183  -5.716  0.00  0.00     0.089 N 
HETATM   25  C   UNK N   1      26.231  26.726  -4.426  0.00  0.00     0.272 C 
HETATM   26  C   UNK N   1      25.620  26.606  -6.674  0.00  0.00     0.310 C 
HETATM   27  C   UNK N   1      26.609  25.705  -3.387  0.00  0.00     0.032 C 
HETATM   28  C   UNK N   1      26.465  24.392  -4.108  0.00  0.00     0.038 C 
ENDBRANCH  22  23
ENDBRANCH   2  22
TORSDOF 6
ENDMDL
MODEL 8
REMARK VINA RESULT:      -6.2      2.623      3.815
REMARK  6 active torsions:
REMARK  status: ('A' for Active; 'I' for Inactive)
REMARK    1  A    between atoms: S_1  and  C_21 
REMARK    2  A    between atoms: S_1  and  C_22 
REMARK    3  A    between atoms: C_6  and  C_10 
REMARK    4  A    between atoms: C_10  and  C_11 
REMARK    5  A    between atoms: C_17  and  C_19 
REMARK    6  A    between atoms: C_19  and  C_21 
ROOT
HETATM    1  N   UNK N   1      29.126  23.328  -1.848  0.00  0.00    -0.365 N 
HETATM    2  C   UNK N   1      30.407  22.911  -3.650  0.00  0.00    -0.028 A 
HETATM    3  C   UNK N   1      29.169  23.300  -4.078  0.00  0.00    -0.001 A 
HETATM    4  C   UNK N   1      30.359  22.929  -2.257  0.00  0.00     0.096 A 
HETATM    5  C   UNK N   1      28.413  23.546  -2.972  0.00  0.00     0.043 A 
HETATM    6  C   UNK N   1      28.659  23.426  -5.362  0.00  0.00     0.021 A 
HETATM    7  C   UNK N   1      27.316  23.812  -5.507  0.00  0.00    -0.056 A 
HETATM    8  C   UNK N   1      27.085  23.956  -3.067  0.00  0.00     0.031 A 
HETATM    9  C   UNK N   1      26.531  24.091  -4.359  0.00  0.00     0.009 A 
HETATM   10  H   UNK N   1      28.815  23.434  -0.921  0.00  0.00     0.165 HD
ENDROOT
BRANCH   7  11
HETATM   11  C   UNK N   1      26.748  23.860  -6.894  0.00  0.00     0.054 C 
BRANCH  11  12
HETATM   12  C   UNK N   1      26.039  25.179  -7.316  0.00  0.00     0.150 C 
BRANCH  12  13
HETATM   13  S   UNK N   1      26.895  26.586  -8.218  0.00  0.00     0.175 S 
HETATM   14  O   UNK N   1      25.718  26.185  -9.118  0.00  0.00    -0.223 OA
HETATM   15  O   UNK N   1      28.027  25.574  -8.421  0.00  0.00    -0.223 OA
BRANCH  13  16
HETATM   16  C   UNK N   1      26.703  27.176  -6.529  0.00  0.00     0.059 A 
HETATM   17  C   UNK N   1      27.821  27.397  -5.710  0.00  0.00     0.023 A 
HETATM   18  C   UNK N   1      27.649  27.744  -4.367  0.00  0.00     0.002 A 
HETATM   19  C   UNK N   1      26.362  27.843  -3.828  0.00  0.00     0.000 A 
HETATM   20  C   UNK N   1      25.245  27.594  -4.632  0.00  0.00     0.002 A 
HETATM   21  C   UNK N   1      25.416  27.254  -5.976  0.00  0.00     0.023 A 
ENDBRANCH  13  16
ENDBRANCH  12  13
ENDBRANCH  11  12
ENDBRANCH   7  11
BRANCH   2  22
HETATM   22  C   UNK N   1      31.536  22.522  -4.561  0.00  0.00     0.076 C 
BRANCH  22  23
HETATM   23  C   UNK N   1      31.824  21.030  -4.658  0.00  0.00     0.227 C 
HETATM   24  N   UNK N   1      33.225  20.795  -5.004  0.00  0.00     0.089 N 
HETATM   25  C   UNK N   1      33.220  19.801  -6.065  0.00  0.00     0.272 C 
HETATM   26  C   UNK N   1      33.870  20.178  -3.858  0.00  0.00     0.310 C 
HETATM   27  C   UNK N   1      31.931  19.977  -6.823  0.00  0.00     0.032 C 
HETATM   28  C   UNK N   1      30.965  20.459  -5.775  0.00  0.00     0.038 C 
ENDBRANCH  22  23
ENDBRANCH   2  22
TORSDOF 6
ENDMDL
MODEL 9
REMARK VINA RESULT:      -6.2      3.020      4.345
REMARK  6 active torsions:
REMARK  status: ('A' for Active; 'I' for Inactive)
REMARK    1  A    between atoms: S_1  and  C_21 
REMARK    2  A    between atoms: S_1  and  C_22 
REMARK    3  A    between atoms: C_6  and  C_10 
REMARK    4  A    between atoms: C_10  and  C_11 
REMARK    5  A    between atoms: C_17  and  C_19 
REMARK    6  A    between atoms: C_19  and  C_21 
ROOT
HETATM    1  N   UNK N   1      30.583  23.164  -2.517  0.00  0.00    -0.365 N 
HETATM    2  C   UNK N   1      31.034  21.509  -3.973  0.00  0.00    -0.028 A 
HETATM    3  C   UNK N   1      30.050  22.297  -4.502  0.00  0.00    -0.001 A 
HETATM    4  C   UNK N   1      31.349  22.061  -2.732  0.00  0.00     0.096 A 
HETATM    5  C   UNK N   1      29.796  23.289  -3.605  0.00  0.00     0.043 A 
HETATM    6  C   UNK N   1      29.354  22.187  -5.697  0.00  0.00     0.021 A 
HETATM    7  C   UNK N   1      28.351  23.132  -5.968  0.00  0.00    -0.056 A 
HETATM    8  C   UNK N   1      28.828  24.263  -3.843  0.00  0.00     0.031 A 
HETATM    9  C   UNK N   1      28.095  24.179  -5.047  0.00  0.00     0.009 A 
HETATM   10  H   UNK N   1      30.598  23.750  -1.727  0.00  0.00     0.165 HD
ENDROOT
BRANCH   7  11
HETATM   11  C   UNK N   1      27.543  22.954  -7.219  0.00  0.00     0.054 C 
BRANCH  11  12
HETATM   12  C   UNK N   1      26.247  23.805  -7.343  0.00  0.00     0.150 C 
BRANCH  12  13
HETATM   13  S   UNK N   1      25.691  24.642  -8.929  0.00  0.00     0.175 S 
HETATM   14  O   UNK N   1      24.623  23.579  -8.638  0.00  0.00    -0.223 OA
HETATM   15  O   UNK N   1      26.909  23.949  -9.550  0.00  0.00    -0.223 OA
BRANCH  13  16
HETATM   16  C   UNK N   1      26.081  25.997  -7.811  0.00  0.00     0.059 A 
HETATM   17  C   UNK N   1      27.211  26.802  -8.019  0.00  0.00     0.023 A 
HETATM   18  C   UNK N   1      27.562  27.775  -7.078  0.00  0.00     0.002 A 
HETATM   19  C   UNK N   1      26.806  27.926  -5.912  0.00  0.00     0.000 A 
HETATM   20  C   UNK N   1      25.697  27.105  -5.685  0.00  0.00     0.002 A 
HETATM   21  C   UNK N   1      25.340  26.138  -6.627  0.00  0.00     0.023 A 
ENDBRANCH  13  16
ENDBRANCH  12  13
ENDBRANCH  11  12
ENDBRANCH   7  11
BRANCH   2  22
HETATM   22  C   UNK N   1      31.590  20.285  -4.641  0.00  0.00     0.076 C 
BRANCH  22  23
HETATM   23  C   UNK N   1      33.065  20.347  -5.017  0.00  0.00     0.227 C 
HETATM   24  N   UNK N   1      33.320  19.588  -6.240  0.00  0.00     0.089 N 
HETATM   25  C   UNK N   1      34.497  18.776  -5.975  0.00  0.00     0.272 C 
HETATM   26  C   UNK N   1      33.689  20.530  -7.283  0.00  0.00     0.310 C 
HETATM   27  C   UNK N   1      34.506  18.488  -4.497  0.00  0.00     0.032 C 
HETATM   28  C   UNK N   1      33.862  19.706  -3.893  0.00  0.00     0.038 C 
ENDBRANCH  22  23
ENDBRANCH   2  22
TORSDOF 6
ENDMDL
