MODEL 1
REMARK VINA RESULT:      -7.1      0.000      0.000
REMARK  2 active torsions:
REMARK  status: ('A' for Active; 'I' for Inactive)
REMARK    1  A    between atoms: C_7  and  O_1 
REMARK    2  A    between atoms: O_2  and  C_20 
ROOT
HETATM    1  C   UNK N   1      26.148  26.951  -4.928  0.00  0.00    -0.014 C 
HETATM    2  C   UNK N   1      27.229  26.870  -5.999  0.00  0.00     0.001 C 
HETATM    3  C   UNK N   1      26.899  25.796  -7.047  0.00  0.00    -0.001 C 
HETATM    4  C   UNK N   1      26.767  24.425  -6.337  0.00  0.00     0.023 C 
HETATM    5  C   UNK N   1      26.680  28.129  -4.133  0.00  0.00     0.126 C 
HETATM    6  C   UNK N   1      26.088  25.624  -4.172  0.00  0.00     0.013 C 
HETATM    7  C   UNK N   1      27.351  28.311  -6.476  0.00  0.00     0.008 C 
HETATM    8  C   UNK N   1      25.763  24.489  -5.159  0.00  0.00     0.010 C 
HETATM    9  C   UNK N   1      27.091  29.143  -5.207  0.00  0.00     0.033 C 
HETATM   10  C   UNK N   1      28.017  25.682  -8.086  0.00  0.00     0.010 C 
HETATM   11  C   UNK N   1      24.757  27.282  -5.505  0.00  0.00     0.018 C 
HETATM   12  C   UNK N   1      26.374  23.381  -7.361  0.00  0.00    -0.047 A 
HETATM   13  C   UNK N   1      27.710  24.626  -9.156  0.00  0.00     0.039 C 
HETATM   14  C   UNK N   1      26.841  23.481  -8.694  0.00  0.00    -0.049 A 
HETATM   15  C   UNK N   1      25.509  22.329  -7.016  0.00  0.00     0.011 A 
HETATM   16  C   UNK N   1      26.432  22.539  -9.644  0.00  0.00     0.044 A 
HETATM   17  C   UNK N   1      25.112  21.394  -7.972  0.00  0.00     0.037 A 
HETATM   18  C   UNK N   1      25.569  21.502  -9.285  0.00  0.00     0.066 A 
ENDROOT
BRANCH   5  19
HETATM   19  O   UNK N   1      25.742  28.653  -3.240  0.00  0.00    -0.395 OA
HETATM   20  H   UNK N   1      25.001  28.186  -2.823  0.00  0.00     0.210 HD
ENDBRANCH   5  19
BRANCH  18  21
HETATM   21  O   UNK N   1      25.168  20.615 -10.209  0.00  0.00    -0.361 OA
HETATM   22  H   UNK N   1      25.544  20.582 -11.068  0.00  0.00     0.217 HD
ENDBRANCH  18  21
TORSDOF 2
ENDMDL
MODEL 2
REMARK VINA RESULT:      -6.9     26.906     28.769
REMARK  2 active torsions:
REMARK  status: ('A' for Active; 'I' for Inactive)
REMARK    1  A    between atoms: C_7  and  O_1 
REMARK    2  A    between atoms: O_2  and  C_20 
ROOT
HETATM    1  C   UNK N   1      36.079  11.832  13.712  0.00  0.00    -0.014 C 
HETATM    2  C   UNK N   1      35.568  12.975  14.580  0.00  0.00     0.001 C 
HETATM    3  C   UNK N   1      35.725  12.658  16.075  0.00  0.00    -0.001 C 
HETATM    4  C   UNK N   1      34.935  11.366  16.400  0.00  0.00     0.023 C 
HETATM    5  C   UNK N   1      35.900  12.465  12.345  0.00  0.00     0.126 C 
HETATM    6  C   UNK N   1      35.234  10.586  13.973  0.00  0.00     0.013 C 
HETATM    7  C   UNK N   1      36.313  14.186  14.031  0.00  0.00     0.008 C 
HETATM    8  C   UNK N   1      35.336  10.201  15.460  0.00  0.00     0.010 C 
HETATM    9  C   UNK N   1      36.436  13.890  12.525  0.00  0.00     0.033 C 
HETATM   10  C   UNK N   1      35.157  13.786  16.939  0.00  0.00     0.010 C 
HETATM   11  C   UNK N   1      37.567  11.510  13.961  0.00  0.00     0.018 C 
HETATM   12  C   UNK N   1      35.148  11.016  17.858  0.00  0.00    -0.047 A 
HETATM   13  C   UNK N   1      35.313  13.504  18.439  0.00  0.00     0.039 C 
HETATM   14  C   UNK N   1      35.312  12.043  18.818  0.00  0.00    -0.049 A 
HETATM   15  C   UNK N   1      35.230   9.675  18.268  0.00  0.00     0.011 A 
HETATM   16  C   UNK N   1      35.558  11.709  20.154  0.00  0.00     0.044 A 
HETATM   17  C   UNK N   1      35.473   9.355  19.605  0.00  0.00     0.037 A 
HETATM   18  C   UNK N   1      35.640  10.371  20.545  0.00  0.00     0.066 A 
ENDROOT
BRANCH   5  19
HETATM   19  O   UNK N   1      36.567  11.772  11.331  0.00  0.00    -0.395 OA
HETATM   20  H   UNK N   1      37.453  11.379  11.372  0.00  0.00     0.210 HD
ENDBRANCH   5  19
BRANCH  18  21
HETATM   21  O   UNK N   1      35.896  10.063  21.826  0.00  0.00    -0.361 OA
HETATM   22  H   UNK N   1      35.601  10.597  22.538  0.00  0.00     0.217 HD
ENDBRANCH  18  21
TORSDOF 2
ENDMDL
MODEL 3
REMARK VINA RESULT:      -6.8     26.649     28.645
REMARK  2 active torsions:
REMARK  status: ('A' for Active; 'I' for Inactive)
REMARK    1  A    between atoms: C_7  and  O_1 
REMARK    2  A    between atoms: O_2  and  C_20 
ROOT
HETATM    1  C   UNK N   1      35.349  10.434  12.995  0.00  0.00    -0.014 C 
HETATM    2  C   UNK N   1      36.043   9.588  14.055  0.00  0.00     0.001 C 
HETATM    3  C   UNK N   1      35.717  10.085  15.472  0.00  0.00    -0.001 C 
HETATM    4  C   UNK N   1      36.174  11.559  15.604  0.00  0.00     0.023 C 
HETATM    5  C   UNK N   1      35.758   9.658  11.757  0.00  0.00     0.126 C 
HETATM    6  C   UNK N   1      35.874  11.867  13.074  0.00  0.00     0.013 C 
HETATM    7  C   UNK N   1      35.627   8.168  13.690  0.00  0.00     0.008 C 
HETATM    8  C   UNK N   1      35.588  12.441  14.473  0.00  0.00     0.010 C 
HETATM    9  C   UNK N   1      35.544   8.192  12.153  0.00  0.00     0.033 C 
HETATM   10  C   UNK N   1      36.463   9.265  16.527  0.00  0.00     0.010 C 
HETATM   11  C   UNK N   1      33.814  10.437  13.141  0.00  0.00     0.018 C 
HETATM   12  C   UNK N   1      35.789  12.069  16.977  0.00  0.00    -0.047 A 
HETATM   13  C   UNK N   1      36.146   9.730  17.954  0.00  0.00     0.039 C 
HETATM   14  C   UNK N   1      35.794  11.191  18.088  0.00  0.00    -0.049 A 
HETATM   15  C   UNK N   1      35.381  13.401  17.158  0.00  0.00     0.011 A 
HETATM   16  C   UNK N   1      35.389  11.660  19.342  0.00  0.00     0.044 A 
HETATM   17  C   UNK N   1      34.983  13.857  18.415  0.00  0.00     0.037 A 
HETATM   18  C   UNK N   1      34.983  12.986  19.505  0.00  0.00     0.066 A 
ENDROOT
BRANCH   5  19
HETATM   19  O   UNK N   1      35.024  10.014  10.623  0.00  0.00    -0.395 OA
HETATM   20  H   UNK N   1      34.068  10.168  10.566  0.00  0.00     0.210 HD
ENDBRANCH   5  19
BRANCH  18  21
HETATM   21  O   UNK N   1      34.578  13.420  20.709  0.00  0.00    -0.361 OA
HETATM   22  H   UNK N   1      33.716  13.252  21.037  0.00  0.00     0.217 HD
ENDBRANCH  18  21
TORSDOF 2
ENDMDL
MODEL 4
REMARK VINA RESULT:      -6.7      4.790      5.638
REMARK  2 active torsions:
REMARK  status: ('A' for Active; 'I' for Inactive)
REMARK    1  A    between atoms: C_7  and  O_1 
REMARK    2  A    between atoms: O_2  and  C_20 
ROOT
HETATM    1  C   UNK N   1      27.672  24.937  -4.268  0.00  0.00    -0.014 C 
HETATM    2  C   UNK N   1      27.774  24.076  -5.521  0.00  0.00     0.001 C 
HETATM    3  C   UNK N   1      28.739  22.899  -5.315  0.00  0.00    -0.001 C 
HETATM    4  C   UNK N   1      30.139  23.455  -4.951  0.00  0.00     0.023 C 
HETATM    5  C   UNK N   1      26.604  25.912  -4.728  0.00  0.00     0.126 C 
HETATM    6  C   UNK N   1      29.037  25.554  -3.968  0.00  0.00     0.013 C 
HETATM    7  C   UNK N   1      26.320  23.752  -5.838  0.00  0.00     0.008 C 
HETATM    8  C   UNK N   1      30.068  24.433  -3.751  0.00  0.00     0.010 C 
HETATM    9  C   UNK N   1      25.558  25.019  -5.407  0.00  0.00     0.033 C 
HETATM   10  C   UNK N   1      28.880  22.074  -6.596  0.00  0.00     0.010 C 
HETATM   11  C   UNK N   1      27.180  24.147  -3.038  0.00  0.00     0.018 C 
HETATM   12  C   UNK N   1      31.071  22.292  -4.679  0.00  0.00    -0.047 A 
HETATM   13  C   UNK N   1      29.828  20.881  -6.417  0.00  0.00     0.039 C 
HETATM   14  C   UNK N   1      30.920  21.079  -5.394  0.00  0.00    -0.049 A 
HETATM   15  C   UNK N   1      32.063  22.386  -3.690  0.00  0.00     0.011 A 
HETATM   16  C   UNK N   1      31.755  19.995  -5.101  0.00  0.00     0.044 A 
HETATM   17  C   UNK N   1      32.891  21.297  -3.410  0.00  0.00     0.037 A 
HETATM   18  C   UNK N   1      32.734  20.103  -4.112  0.00  0.00     0.066 A 
ENDROOT
BRANCH   5  19
HETATM   19  O   UNK N   1      26.061  26.661  -3.681  0.00  0.00    -0.395 OA
HETATM   20  H   UNK N   1      25.310  27.273  -3.723  0.00  0.00     0.210 HD
ENDBRANCH   5  19
BRANCH  18  21
HETATM   21  O   UNK N   1      33.516  19.050  -3.827  0.00  0.00    -0.361 OA
HETATM   22  H   UNK N   1      33.296  18.177  -4.091  0.00  0.00     0.217 HD
ENDBRANCH  18  21
TORSDOF 2
ENDMDL
MODEL 5
REMARK VINA RESULT:      -6.7     14.551     16.457
REMARK  2 active torsions:
REMARK  status: ('A' for Active; 'I' for Inactive)
REMARK    1  A    between atoms: C_7  and  O_1 
REMARK    2  A    between atoms: O_2  and  C_20 
ROOT
HETATM    1  C   UNK N   1      31.894  16.730   8.328  0.00  0.00    -0.014 C 
HETATM    2  C   UNK N   1      31.394  15.938   7.126  0.00  0.00     0.001 C 
HETATM    3  C   UNK N   1      30.516  16.805   6.210  0.00  0.00    -0.001 C 
HETATM    4  C   UNK N   1      29.308  17.331   7.025  0.00  0.00     0.023 C 
HETATM    5  C   UNK N   1      32.788  15.678   8.958  0.00  0.00     0.126 C 
HETATM    6  C   UNK N   1      30.700  17.167   9.175  0.00  0.00     0.013 C 
HETATM    7  C   UNK N   1      32.674  15.358   6.537  0.00  0.00     0.008 C 
HETATM    8  C   UNK N   1      29.763  18.042   8.323  0.00  0.00     0.010 C 
HETATM    9  C   UNK N   1      33.557  15.087   7.770  0.00  0.00     0.033 C 
HETATM   10  C   UNK N   1      29.972  15.987   5.037  0.00  0.00     0.010 C 
HETATM   11  C   UNK N   1      32.725  17.966   7.927  0.00  0.00     0.018 C 
HETATM   12  C   UNK N   1      28.482  18.242   6.140  0.00  0.00    -0.047 A 
HETATM   13  C   UNK N   1      29.102  16.830   4.096  0.00  0.00     0.039 C 
HETATM   14  C   UNK N   1      28.381  17.983   4.751  0.00  0.00    -0.049 A 
HETATM   15  C   UNK N   1      27.844  19.373   6.674  0.00  0.00     0.011 A 
HETATM   16  C   UNK N   1      27.656  18.858   3.935  0.00  0.00     0.044 A 
HETATM   17  C   UNK N   1      27.122  20.236   5.848  0.00  0.00     0.037 A 
HETATM   18  C   UNK N   1      27.031  19.980   4.481  0.00  0.00     0.066 A 
ENDROOT
BRANCH   5  19
HETATM   19  O   UNK N   1      33.641  16.200   9.934  0.00  0.00    -0.395 OA
HETATM   20  H   UNK N   1      33.580  17.066  10.366  0.00  0.00     0.210 HD
ENDBRANCH   5  19
BRANCH  18  21
HETATM   21  O   UNK N   1      26.355  20.823   3.685  0.00  0.00    -0.361 OA
HETATM   22  H   UNK N   1      26.584  20.955   2.785  0.00  0.00     0.217 HD
ENDBRANCH  18  21
TORSDOF 2
ENDMDL
MODEL 6
REMARK VINA RESULT:      -6.7     15.071     17.149
REMARK  2 active torsions:
REMARK  status: ('A' for Active; 'I' for Inactive)
REMARK    1  A    between atoms: C_7  and  O_1 
REMARK    2  A    between atoms: O_2  and  C_20 
ROOT
HETATM    1  C   UNK N   1      32.700  15.200   3.691  0.00  0.00    -0.014 C 
HETATM    2  C   UNK N   1      33.393  15.757   4.929  0.00  0.00     0.001 C 
HETATM    3  C   UNK N   1      32.378  16.126   6.021  0.00  0.00    -0.001 C 
HETATM    4  C   UNK N   1      31.394  17.181   5.457  0.00  0.00     0.023 C 
HETATM    5  C   UNK N   1      33.924  14.839   2.869  0.00  0.00     0.126 C 
HETATM    6  C   UNK N   1      31.801  16.279   3.089  0.00  0.00     0.013 C 
HETATM    7  C   UNK N   1      34.429  14.689   5.256  0.00  0.00     0.008 C 
HETATM    8  C   UNK N   1      30.751  16.707   4.130  0.00  0.00     0.010 C 
HETATM    9  C   UNK N   1      34.857  14.156   3.876  0.00  0.00     0.033 C 
HETATM   10  C   UNK N   1      33.078  16.737   7.237  0.00  0.00     0.010 C 
HETATM   11  C   UNK N   1      31.866  13.938   3.990  0.00  0.00     0.018 C 
HETATM   12  C   UNK N   1      30.352  17.490   6.512  0.00  0.00    -0.047 A 
HETATM   13  C   UNK N   1      32.090  17.103   8.353  0.00  0.00     0.039 C 
HETATM   14  C   UNK N   1      30.701  17.463   7.885  0.00  0.00    -0.049 A 
HETATM   15  C   UNK N   1      29.023  17.763   6.148  0.00  0.00     0.011 A 
HETATM   16  C   UNK N   1      29.720  17.703   8.853  0.00  0.00     0.044 A 
HETATM   17  C   UNK N   1      28.055  18.003   7.125  0.00  0.00     0.037 A 
HETATM   18  C   UNK N   1      28.403  17.969   8.475  0.00  0.00     0.066 A 
ENDROOT
BRANCH   5  19
HETATM   19  O   UNK N   1      33.625  14.015   1.780  0.00  0.00    -0.395 OA
HETATM   20  H   UNK N   1      34.209  13.369   1.354  0.00  0.00     0.210 HD
ENDBRANCH   5  19
BRANCH  18  21
HETATM   21  O   UNK N   1      27.466  18.178   9.413  0.00  0.00    -0.361 OA
HETATM   22  H   UNK N   1      27.630  18.033  10.325  0.00  0.00     0.217 HD
ENDBRANCH  18  21
TORSDOF 2
ENDMDL
MODEL 7
REMARK VINA RESULT:      -6.6     29.081     30.886
REMARK  2 active torsions:
REMARK  status: ('A' for Active; 'I' for Inactive)
REMARK    1  A    between atoms: C_7  and  O_1 
REMARK    2  A    between atoms: O_2  and  C_20 
ROOT
HETATM    1  C   UNK N   1      33.855   8.362  20.386  0.00  0.00    -0.014 C 
HETATM    2  C   UNK N   1      34.545   9.677  20.728  0.00  0.00     0.001 C 
HETATM    3  C   UNK N   1      34.536  10.642  19.533  0.00  0.00    -0.001 C 
HETATM    4  C   UNK N   1      35.260   9.971  18.339  0.00  0.00     0.023 C 
HETATM    5  C   UNK N   1      33.924   7.690  21.745  0.00  0.00     0.126 C 
HETATM    6  C   UNK N   1      34.630   7.663  19.270  0.00  0.00     0.013 C 
HETATM    7  C   UNK N   1      33.835  10.120  22.001  0.00  0.00     0.008 C 
HETATM    8  C   UNK N   1      34.669   8.573  18.029  0.00  0.00     0.010 C 
HETATM    9  C   UNK N   1      33.520   8.798  22.725  0.00  0.00     0.033 C 
HETATM   10  C   UNK N   1      35.280  11.937  19.867  0.00  0.00     0.010 C 
HETATM   11  C   UNK N   1      32.386   8.551  19.958  0.00  0.00     0.018 C 
HETATM   12  C   UNK N   1      35.188  10.895  17.141  0.00  0.00    -0.047 A 
HETATM   13  C   UNK N   1      35.276  12.928  18.695  0.00  0.00     0.039 C 
HETATM   14  C   UNK N   1      35.210  12.299  17.325  0.00  0.00    -0.049 A 
HETATM   15  C   UNK N   1      35.053  10.376  15.843  0.00  0.00     0.011 A 
HETATM   16  C   UNK N   1      35.094  13.144  16.216  0.00  0.00     0.044 A 
HETATM   17  C   UNK N   1      34.941  11.230  14.745  0.00  0.00     0.037 A 
HETATM   18  C   UNK N   1      34.957  12.612  14.932  0.00  0.00     0.066 A 
ENDROOT
BRANCH   5  19
HETATM   19  O   UNK N   1      33.097   6.569  21.842  0.00  0.00    -0.395 OA
HETATM   20  H   UNK N   1      32.635   6.245  22.631  0.00  0.00     0.210 HD
ENDBRANCH   5  19
BRANCH  18  21
HETATM   21  O   UNK N   1      34.827  13.432  13.878  0.00  0.00    -0.361 OA
HETATM   22  H   UNK N   1      35.340  14.211  13.783  0.00  0.00     0.217 HD
ENDBRANCH  18  21
TORSDOF 2
ENDMDL
MODEL 8
REMARK VINA RESULT:      -6.5     14.816     16.992
REMARK  2 active torsions:
REMARK  status: ('A' for Active; 'I' for Inactive)
REMARK    1  A    between atoms: C_7  and  O_1 
REMARK    2  A    between atoms: O_2  and  C_20 
ROOT
HETATM    1  C   UNK N   1      28.459  15.875   4.617  0.00  0.00    -0.014 C 
HETATM    2  C   UNK N   1      28.215  16.293   6.062  0.00  0.00     0.001 C 
HETATM    3  C   UNK N   1      29.436  17.016   6.650  0.00  0.00    -0.001 C 
HETATM    4  C   UNK N   1      30.660  16.068   6.584  0.00  0.00     0.023 C 
HETATM    5  C   UNK N   1      27.088  15.310   4.292  0.00  0.00     0.126 C 
HETATM    6  C   UNK N   1      29.609  14.870   4.573  0.00  0.00     0.013 C 
HETATM    7  C   UNK N   1      26.905  17.068   5.981  0.00  0.00     0.008 C 
HETATM    8  C   UNK N   1      30.878  15.520   5.152  0.00  0.00     0.010 C 
HETATM    9  C   UNK N   1      26.116  16.342   4.875  0.00  0.00     0.033 C 
HETATM   10  C   UNK N   1      29.203  17.382   8.118  0.00  0.00     0.010 C 
HETATM   11  C   UNK N   1      28.778  17.068   3.694  0.00  0.00     0.018 C 
HETATM   12  C   UNK N   1      31.877  16.807   7.100  0.00  0.00    -0.047 A 
HETATM   13  C   UNK N   1      30.402  18.118   8.730  0.00  0.00     0.039 C 
HETATM   14  C   UNK N   1      31.742  17.768   8.130  0.00  0.00    -0.049 A 
HETATM   15  C   UNK N   1      33.144  16.581   6.536  0.00  0.00     0.011 A 
HETATM   16  C   UNK N   1      32.865  18.480   8.565  0.00  0.00     0.044 A 
HETATM   17  C   UNK N   1      34.257  17.296   6.981  0.00  0.00     0.037 A 
HETATM   18  C   UNK N   1      34.116  18.246   7.992  0.00  0.00     0.066 A 
ENDROOT
BRANCH   5  19
HETATM   19  O   UNK N   1      26.892  15.111   2.923  0.00  0.00    -0.395 OA
HETATM   20  H   UNK N   1      26.052  14.942   2.468  0.00  0.00     0.210 HD
ENDBRANCH   5  19
BRANCH  18  21
HETATM   21  O   UNK N   1      35.183  18.949   8.404  0.00  0.00    -0.361 OA
HETATM   22  H   UNK N   1      35.575  18.817   9.245  0.00  0.00     0.217 HD
ENDBRANCH  18  21
TORSDOF 2
ENDMDL
MODEL 9
REMARK VINA RESULT:      -6.5      4.382      6.160
REMARK  2 active torsions:
REMARK  status: ('A' for Active; 'I' for Inactive)
REMARK    1  A    between atoms: C_7  and  O_1 
REMARK    2  A    between atoms: O_2  and  C_20 
ROOT
HETATM    1  C   UNK N   1      30.776  22.312  -3.410  0.00  0.00    -0.014 C 
HETATM    2  C   UNK N   1      30.093  21.832  -4.684  0.00  0.00     0.001 C 
HETATM    3  C   UNK N   1      29.130  22.892  -5.239  0.00  0.00    -0.001 C 
HETATM    4  C   UNK N   1      28.060  23.210  -4.165  0.00  0.00     0.023 C 
HETATM    5  C   UNK N   1      31.709  21.139  -3.175  0.00  0.00     0.126 C 
HETATM    6  C   UNK N   1      29.720  22.536  -2.327  0.00  0.00     0.013 C 
HETATM    7  C   UNK N   1      31.262  21.407  -5.564  0.00  0.00     0.008 C 
HETATM    8  C   UNK N   1      28.709  23.590  -2.810  0.00  0.00     0.010 C 
HETATM    9  C   UNK N   1      32.292  20.848  -4.564  0.00  0.00     0.033 C 
HETATM   10  C   UNK N   1      28.407  22.379  -6.486  0.00  0.00     0.010 C 
HETATM   11  C   UNK N   1      31.587  23.607  -3.617  0.00  0.00     0.018 C 
HETATM   12  C   UNK N   1      27.155  24.307  -4.687  0.00  0.00    -0.047 A 
HETATM   13  C   UNK N   1      27.448  23.424  -7.072  0.00  0.00     0.039 C 
HETATM   14  C   UNK N   1      26.861  24.388  -6.069  0.00  0.00    -0.049 A 
HETATM   15  C   UNK N   1      26.633  25.279  -3.817  0.00  0.00     0.011 A 
HETATM   16  C   UNK N   1      26.064  25.433  -6.548  0.00  0.00     0.044 A 
HETATM   17  C   UNK N   1      25.836  26.315  -4.307  0.00  0.00     0.037 A 
HETATM   18  C   UNK N   1      25.556  26.393  -5.671  0.00  0.00     0.066 A 
ENDROOT
BRANCH   5  19
HETATM   19  O   UNK N   1      32.702  21.412  -2.231  0.00  0.00    -0.395 OA
HETATM   20  H   UNK N   1      32.684  21.208  -1.283  0.00  0.00     0.210 HD
ENDBRANCH   5  19
BRANCH  18  21
HETATM   21  O   UNK N   1      24.808  27.403  -6.144  0.00  0.00    -0.361 OA
HETATM   22  H   UNK N   1      24.774  27.615  -7.057  0.00  0.00     0.217 HD
ENDBRANCH  18  21
TORSDOF 2
ENDMDL
