MODEL 1
REMARK VINA RESULT:      -6.3      0.000      0.000
REMARK  10 active torsions:
REMARK  status: ('A' for Active; 'I' for Inactive)
REMARK    1  A    between atoms: C_18  and  O_1 
REMARK    2  A    between atoms: O_5  and  N_8 
REMARK    3  A    between atoms: C_10  and  N_6 
REMARK       I    between atoms: N_6  and  C_14 
REMARK       I    between atoms: N_7  and  C_19 
REMARK       I    between atoms: N_8  and  C_22 
REMARK    4  A    between atoms: C_9  and  C_10 
REMARK    5  A    between atoms: C_10  and  C_19 
REMARK    6  A    between atoms: C_11  and  C_12 
REMARK    7  A    between atoms: C_11  and  C_14 
REMARK    8  A    between atoms: C_11  and  C_18 
REMARK    9  A    between atoms: C_12  and  C_13 
REMARK   10  A    between atoms: C_18  and  C_22 
ROOT
HETATM    1  C   UNK N   1      20.604  17.593   3.405  0.00  0.00     0.116 C 
ENDROOT
BRANCH   1   2
HETATM    2  C   UNK N   1      20.627  16.678   2.181  0.00  0.00     0.021 C 
BRANCH   2   3
HETATM    3  C   UNK N   1      21.421  15.410   2.455  0.00  0.00    -0.022 C 
HETATM    4  C   UNK N   1      21.522  14.599   1.182  0.00  0.00     0.009 C 
HETATM    5  C   UNK N   1      22.821  15.759   2.928  0.00  0.00     0.009 C 
ENDBRANCH   2   3
ENDBRANCH   1   2
BRANCH   1   6
HETATM    6  C   UNK N   1      19.993  16.878   4.580  0.00  0.00     0.225 C 
HETATM    7  O   UNK N   1      18.854  16.453   4.481  0.00  0.00    -0.273 OA
HETATM    8  N   UNK N   1      20.715  16.695   5.723  0.00  0.00    -0.347 N 
HETATM    9  H   UNK N   1      21.632  17.051   5.735  0.00  0.00     0.163 HD
BRANCH   8  10
HETATM   10  C   UNK N   1      20.246  16.017   6.930  0.00  0.00     0.183 C 
BRANCH  10  11
HETATM   11  C   UNK N   1      21.185  14.868   7.400  0.00  0.00    -0.022 C 
HETATM   12  C   UNK N   1      22.631  15.075   6.992  0.00  0.00     0.017 C 
HETATM   13  C   UNK N   1      21.151  14.707   8.911  0.00  0.00     0.017 C 
HETATM   14  C   UNK N   1      20.701  13.557   6.807  0.00  0.00     0.017 C 
ENDBRANCH  10  11
BRANCH  10  15
HETATM   15  C   UNK N   1      19.745  16.973   8.001  0.00  0.00     0.240 C 
HETATM   16  O   UNK N   1      20.403  17.954   8.316  0.00  0.00    -0.271 OA
HETATM   17  N   UNK N   1      18.529  16.768   8.562  0.00  0.00    -0.364 N 
HETATM   18  C   UNK N   1      17.978  17.669   9.544  0.00  0.00     0.149 C 
HETATM   19  H   UNK N   1      18.003  15.980   8.290  0.00  0.00     0.161 HD
ENDBRANCH  10  15
ENDBRANCH   8  10
ENDBRANCH   1   6
BRANCH   1  20
HETATM   20  C   UNK N   1      19.909  18.925   3.077  0.00  0.00     0.225 C 
BRANCH  20  21
HETATM   21  O   UNK N   1      18.653  18.662   2.521  0.00  0.00    -0.385 OA
HETATM   22  H   UNK N   1      18.562  18.278   1.634  0.00  0.00     0.210 HD
ENDBRANCH  20  21
BRANCH  20  23
HETATM   23  C   UNK N   1      20.724  19.762   2.119  0.00  0.00     0.270 C 
HETATM   24  O   UNK N   1      21.820  20.183   2.461  0.00  0.00    -0.268 OA
HETATM   25  N   UNK N   1      20.245  20.057   0.889  0.00  0.00    -0.235 N 
HETATM   26  H   UNK N   1      19.358  19.728   0.620  0.00  0.00     0.197 HD
BRANCH  25  27
HETATM   27  O   UNK N   1      20.965  20.792   0.030  0.00  0.00    -0.287 OA
HETATM   28  H   UNK N   1      21.572  20.461  -0.651  0.00  0.00     0.244 HD
ENDBRANCH  25  27
ENDBRANCH  20  23
ENDBRANCH   1  20
TORSDOF 10
ENDMDL
MODEL 2
REMARK VINA RESULT:      -6.3     13.576     15.689
REMARK  10 active torsions:
REMARK  status: ('A' for Active; 'I' for Inactive)
REMARK    1  A    between atoms: C_18  and  O_1 
REMARK    2  A    between atoms: O_5  and  N_8 
REMARK    3  A    between atoms: C_10  and  N_6 
REMARK       I    between atoms: N_6  and  C_14 
REMARK       I    between atoms: N_7  and  C_19 
REMARK       I    between atoms: N_8  and  C_22 
REMARK    4  A    between atoms: C_9  and  C_10 
REMARK    5  A    between atoms: C_10  and  C_19 
REMARK    6  A    between atoms: C_11  and  C_12 
REMARK    7  A    between atoms: C_11  and  C_14 
REMARK    8  A    between atoms: C_11  and  C_18 
REMARK    9  A    between atoms: C_12  and  C_13 
REMARK   10  A    between atoms: C_18  and  C_22 
ROOT
HETATM    1  C   UNK N   1      29.844  23.593  -3.638  0.00  0.00     0.116 C 
ENDROOT
BRANCH   1   2
HETATM    2  C   UNK N   1      30.920  24.669  -3.509  0.00  0.00     0.021 C 
BRANCH   2   3
HETATM    3  C   UNK N   1      31.601  24.930  -4.845  0.00  0.00    -0.022 C 
HETATM    4  C   UNK N   1      31.900  26.408  -4.972  0.00  0.00     0.009 C 
HETATM    5  C   UNK N   1      32.905  24.156  -4.929  0.00  0.00     0.009 C 
ENDBRANCH   2   3
ENDBRANCH   1   2
BRANCH   1   6
HETATM    6  C   UNK N   1      28.475  24.218  -3.629  0.00  0.00     0.225 C 
HETATM    7  O   UNK N   1      27.653  23.823  -2.818  0.00  0.00    -0.273 OA
HETATM    8  N   UNK N   1      28.174  25.223  -4.500  0.00  0.00    -0.347 N 
HETATM    9  H   UNK N   1      28.884  25.505  -5.121  0.00  0.00     0.163 HD
BRANCH   8  10
HETATM   10  C   UNK N   1      26.891  25.919  -4.594  0.00  0.00     0.183 C 
BRANCH  10  11
HETATM   11  C   UNK N   1      27.012  27.465  -4.459  0.00  0.00    -0.022 C 
HETATM   12  C   UNK N   1      28.324  27.908  -3.841  0.00  0.00     0.017 C 
HETATM   13  C   UNK N   1      26.884  28.150  -5.809  0.00  0.00     0.017 C 
HETATM   14  C   UNK N   1      25.875  27.978  -3.594  0.00  0.00     0.017 C 
ENDBRANCH  10  11
BRANCH  10  15
HETATM   15  C   UNK N   1      26.004  25.396  -5.712  0.00  0.00     0.240 C 
HETATM   16  O   UNK N   1      24.786  25.476  -5.630  0.00  0.00    -0.271 OA
HETATM   17  N   UNK N   1      26.572  24.895  -6.835  0.00  0.00    -0.364 N 
HETATM   18  C   UNK N   1      25.784  24.432  -7.950  0.00  0.00     0.149 C 
HETATM   19  H   UNK N   1      27.554  24.847  -6.894  0.00  0.00     0.161 HD
ENDBRANCH  10  15
ENDBRANCH   8  10
ENDBRANCH   1   6
BRANCH   1  20
HETATM   20  C   UNK N   1      30.023  22.511  -2.559  0.00  0.00     0.225 C 
BRANCH  20  21
HETATM   21  O   UNK N   1      30.265  23.128  -1.327  0.00  0.00    -0.385 OA
HETATM   22  H   UNK N   1      29.552  23.266  -0.681  0.00  0.00     0.210 HD
ENDBRANCH  20  21
BRANCH  20  23
HETATM   23  C   UNK N   1      31.159  21.573  -2.888  0.00  0.00     0.270 C 
HETATM   24  O   UNK N   1      32.231  21.692  -2.313  0.00  0.00    -0.268 OA
HETATM   25  N   UNK N   1      31.003  20.608  -3.823  0.00  0.00    -0.235 N 
HETATM   26  H   UNK N   1      30.143  20.522  -4.294  0.00  0.00     0.197 HD
BRANCH  25  27
HETATM   27  O   UNK N   1      32.003  19.766  -4.116  0.00  0.00    -0.287 OA
HETATM   28  H   UNK N   1      32.913  19.806  -3.781  0.00  0.00     0.244 HD
ENDBRANCH  25  27
ENDBRANCH  20  23
ENDBRANCH   1  20
TORSDOF 10
ENDMDL
MODEL 3
REMARK VINA RESULT:      -6.1     10.687     12.714
REMARK  10 active torsions:
REMARK  status: ('A' for Active; 'I' for Inactive)
REMARK    1  A    between atoms: C_18  and  O_1 
REMARK    2  A    between atoms: O_5  and  N_8 
REMARK    3  A    between atoms: C_10  and  N_6 
REMARK       I    between atoms: N_6  and  C_14 
REMARK       I    between atoms: N_7  and  C_19 
REMARK       I    between atoms: N_8  and  C_22 
REMARK    4  A    between atoms: C_9  and  C_10 
REMARK    5  A    between atoms: C_10  and  C_19 
REMARK    6  A    between atoms: C_11  and  C_12 
REMARK    7  A    between atoms: C_11  and  C_14 
REMARK    8  A    between atoms: C_11  and  C_18 
REMARK    9  A    between atoms: C_12  and  C_13 
REMARK   10  A    between atoms: C_18  and  C_22 
ROOT
HETATM    1  C   UNK N   1      33.259  16.254   7.364  0.00  0.00     0.116 C 
ENDROOT
BRANCH   1   2
HETATM    2  C   UNK N   1      33.950  15.431   6.278  0.00  0.00     0.021 C 
BRANCH   2   3
HETATM    3  C   UNK N   1      35.115  14.636   6.848  0.00  0.00    -0.022 C 
HETATM    4  C   UNK N   1      34.652  13.231   7.169  0.00  0.00     0.009 C 
HETATM    5  C   UNK N   1      36.244  14.561   5.834  0.00  0.00     0.009 C 
ENDBRANCH   2   3
ENDBRANCH   1   2
BRANCH   1   6
HETATM    6  C   UNK N   1      31.766  16.083   7.279  0.00  0.00     0.225 C 
HETATM    7  O   UNK N   1      31.310  14.959   7.150  0.00  0.00    -0.273 OA
HETATM    8  N   UNK N   1      30.945  17.168   7.368  0.00  0.00    -0.347 N 
HETATM    9  H   UNK N   1      31.373  18.046   7.484  0.00  0.00     0.163 HD
BRANCH   8  10
HETATM   10  C   UNK N   1      29.483  17.142   7.308  0.00  0.00     0.183 C 
BRANCH  10  11
HETATM   11  C   UNK N   1      28.802  18.065   8.359  0.00  0.00    -0.022 C 
HETATM   12  C   UNK N   1      28.015  19.201   7.733  0.00  0.00     0.017 C 
HETATM   13  C   UNK N   1      27.853  17.283   9.251  0.00  0.00     0.017 C 
HETATM   14  C   UNK N   1      29.867  18.659   9.263  0.00  0.00     0.017 C 
ENDBRANCH  10  11
BRANCH  10  15
HETATM   15  C   UNK N   1      28.940  17.201   5.889  0.00  0.00     0.240 C 
HETATM   16  O   UNK N   1      29.477  17.906   5.046  0.00  0.00    -0.271 OA
HETATM   17  N   UNK N   1      27.890  16.418   5.543  0.00  0.00    -0.364 N 
HETATM   18  C   UNK N   1      27.364  16.393   4.201  0.00  0.00     0.149 C 
HETATM   19  H   UNK N   1      27.474  15.847   6.229  0.00  0.00     0.161 HD
ENDBRANCH  10  15
ENDBRANCH   8  10
ENDBRANCH   1   6
BRANCH   1  20
HETATM   20  C   UNK N   1      33.705  17.725   7.300  0.00  0.00     0.225 C 
BRANCH  20  21
HETATM   21  O   UNK N   1      34.346  17.957   6.079  0.00  0.00    -0.385 OA
HETATM   22  H   UNK N   1      33.961  17.655   5.240  0.00  0.00     0.210 HD
ENDBRANCH  20  21
BRANCH  20  23
HETATM   23  C   UNK N   1      34.635  18.078   8.437  0.00  0.00     0.270 C 
HETATM   24  O   UNK N   1      35.236  19.143   8.420  0.00  0.00    -0.268 OA
HETATM   25  N   UNK N   1      34.815  17.222   9.467  0.00  0.00    -0.235 N 
HETATM   26  H   UNK N   1      34.340  16.360   9.472  0.00  0.00     0.197 HD
BRANCH  25  27
HETATM   27  O   UNK N   1      35.632  17.531  10.483  0.00  0.00    -0.287 OA
HETATM   28  H   UNK N   1      35.970  16.925  11.161  0.00  0.00     0.244 HD
ENDBRANCH  25  27
ENDBRANCH  20  23
ENDBRANCH   1  20
TORSDOF 10
ENDMDL
MODEL 4
REMARK VINA RESULT:      -6.1     12.773     15.364
REMARK  10 active torsions:
REMARK  status: ('A' for Active; 'I' for Inactive)
REMARK    1  A    between atoms: C_18  and  O_1 
REMARK    2  A    between atoms: O_5  and  N_8 
REMARK    3  A    between atoms: C_10  and  N_6 
REMARK       I    between atoms: N_6  and  C_14 
REMARK       I    between atoms: N_7  and  C_19 
REMARK       I    between atoms: N_8  and  C_22 
REMARK    4  A    between atoms: C_9  and  C_10 
REMARK    5  A    between atoms: C_10  and  C_19 
REMARK    6  A    between atoms: C_11  and  C_12 
REMARK    7  A    between atoms: C_11  and  C_14 
REMARK    8  A    between atoms: C_11  and  C_18 
REMARK    9  A    between atoms: C_12  and  C_13 
REMARK   10  A    between atoms: C_18  and  C_22 
ROOT
HETATM    1  C   UNK N   1      34.953  15.308  10.044  0.00  0.00     0.116 C 
ENDROOT
BRANCH   1   2
HETATM    2  C   UNK N   1      35.888  14.600   9.065  0.00  0.00     0.021 C 
BRANCH   2   3
HETATM    3  C   UNK N   1      35.523  13.130   8.920  0.00  0.00    -0.022 C 
HETATM    4  C   UNK N   1      36.479  12.294   9.743  0.00  0.00     0.009 C 
HETATM    5  C   UNK N   1      34.108  12.890   9.416  0.00  0.00     0.009 C 
ENDBRANCH   2   3
ENDBRANCH   1   2
BRANCH   1   6
HETATM    6  C   UNK N   1      34.231  16.435   9.354  0.00  0.00     0.225 C 
HETATM    7  O   UNK N   1      34.717  17.553   9.391  0.00  0.00    -0.273 OA
HETATM    8  N   UNK N   1      33.067  16.196   8.686  0.00  0.00    -0.347 N 
HETATM    9  H   UNK N   1      32.733  15.271   8.683  0.00  0.00     0.163 HD
BRANCH   8  10
HETATM   10  C   UNK N   1      32.271  17.194   7.972  0.00  0.00     0.183 C 
BRANCH  10  11
HETATM   11  C   UNK N   1      31.997  16.822   6.486  0.00  0.00    -0.022 C 
HETATM   12  C   UNK N   1      30.627  17.262   6.004  0.00  0.00     0.017 C 
HETATM   13  C   UNK N   1      33.031  17.440   5.560  0.00  0.00     0.017 C 
HETATM   14  C   UNK N   1      32.103  15.317   6.323  0.00  0.00     0.017 C 
ENDBRANCH  10  11
BRANCH  10  15
HETATM   15  C   UNK N   1      31.090  17.709   8.778  0.00  0.00     0.240 C 
HETATM   16  O   UNK N   1      30.844  18.906   8.827  0.00  0.00    -0.271 OA
HETATM   17  N   UNK N   1      30.267  16.827   9.395  0.00  0.00    -0.364 N 
HETATM   18  C   UNK N   1      29.102  17.253  10.131  0.00  0.00     0.149 C 
HETATM   19  H   UNK N   1      30.470  15.865   9.338  0.00  0.00     0.161 HD
ENDBRANCH  10  15
ENDBRANCH   8  10
ENDBRANCH   1   6
BRANCH   1  20
HETATM   20  C   UNK N   1      35.718  15.757  11.300  0.00  0.00     0.225 C 
BRANCH  20  21
HETATM   21  O   UNK N   1      37.027  16.097  10.944  0.00  0.00    -0.385 OA
HETATM   22  H   UNK N   1      37.716  15.420  10.843  0.00  0.00     0.210 HD
ENDBRANCH  20  21
BRANCH  20  23
HETATM   23  C   UNK N   1      35.743  14.679  12.357  0.00  0.00     0.270 C 
HETATM   24  O   UNK N   1      34.737  14.017  12.573  0.00  0.00    -0.268 OA
HETATM   25  N   UNK N   1      36.865  14.446  13.074  0.00  0.00    -0.235 N 
HETATM   26  H   UNK N   1      37.669  14.988  12.908  0.00  0.00     0.197 HD
BRANCH  25  27
HETATM   27  O   UNK N   1      36.898  13.486  14.008  0.00  0.00    -0.287 OA
HETATM   28  H   UNK N   1      37.281  12.600  13.916  0.00  0.00     0.244 HD
ENDBRANCH  25  27
ENDBRANCH  20  23
ENDBRANCH   1  20
TORSDOF 10
ENDMDL
MODEL 5
REMARK VINA RESULT:      -6.1      3.436      4.667
REMARK  10 active torsions:
REMARK  status: ('A' for Active; 'I' for Inactive)
REMARK    1  A    between atoms: C_18  and  O_1 
REMARK    2  A    between atoms: O_5  and  N_8 
REMARK    3  A    between atoms: C_10  and  N_6 
REMARK       I    between atoms: N_6  and  C_14 
REMARK       I    between atoms: N_7  and  C_19 
REMARK       I    between atoms: N_8  and  C_22 
REMARK    4  A    between atoms: C_9  and  C_10 
REMARK    5  A    between atoms: C_10  and  C_19 
REMARK    6  A    between atoms: C_11  and  C_12 
REMARK    7  A    between atoms: C_11  and  C_14 
REMARK    8  A    between atoms: C_11  and  C_18 
REMARK    9  A    between atoms: C_12  and  C_13 
REMARK   10  A    between atoms: C_18  and  C_22 
ROOT
HETATM    1  C   UNK N   1      21.103  18.145   3.107  0.00  0.00     0.116 C 
ENDROOT
BRANCH   1   2
HETATM    2  C   UNK N   1      20.195  16.944   3.365  0.00  0.00     0.021 C 
BRANCH   2   3
HETATM    3  C   UNK N   1      20.509  15.800   2.413  0.00  0.00    -0.022 C 
HETATM    4  C   UNK N   1      19.618  14.621   2.738  0.00  0.00     0.009 C 
HETATM    5  C   UNK N   1      20.254  16.227   0.978  0.00  0.00     0.009 C 
ENDBRANCH   2   3
ENDBRANCH   1   2
BRANCH   1   6
HETATM    6  C   UNK N   1      22.199  18.204   4.137  0.00  0.00     0.225 C 
HETATM    7  O   UNK N   1      21.895  18.340   5.311  0.00  0.00    -0.273 OA
HETATM    8  N   UNK N   1      23.504  18.085   3.759  0.00  0.00    -0.347 N 
HETATM    9  H   UNK N   1      23.683  17.967   2.799  0.00  0.00     0.163 HD
BRANCH   8  10
HETATM   10  C   UNK N   1      24.660  18.119   4.654  0.00  0.00     0.183 C 
BRANCH  10  11
HETATM   11  C   UNK N   1      25.659  16.949   4.422  0.00  0.00    -0.022 C 
HETATM   12  C   UNK N   1      25.109  15.868   3.510  0.00  0.00     0.017 C 
HETATM   13  C   UNK N   1      26.961  17.444   3.816  0.00  0.00     0.017 C 
HETATM   14  C   UNK N   1      26.006  16.319   5.758  0.00  0.00     0.017 C 
ENDBRANCH  10  11
BRANCH  10  15
HETATM   15  C   UNK N   1      25.257  19.508   4.812  0.00  0.00     0.240 C 
HETATM   16  O   UNK N   1      25.136  20.342   3.926  0.00  0.00    -0.271 OA
HETATM   17  N   UNK N   1      25.872  19.842   5.972  0.00  0.00    -0.364 N 
HETATM   18  C   UNK N   1      26.412  21.159   6.200  0.00  0.00     0.149 C 
HETATM   19  H   UNK N   1      25.953  19.164   6.683  0.00  0.00     0.161 HD
ENDBRANCH  10  15
ENDBRANCH   8  10
ENDBRANCH   1   6
BRANCH   1  20
HETATM   20  C   UNK N   1      20.281  19.442   3.021  0.00  0.00     0.225 C 
BRANCH  20  21
HETATM   21  O   UNK N   1      18.975  19.132   2.629  0.00  0.00    -0.385 OA
HETATM   22  H   UNK N   1      18.631  18.226   2.687  0.00  0.00     0.210 HD
ENDBRANCH  20  21
BRANCH  20  23
HETATM   23  C   UNK N   1      20.885  20.426   2.047  0.00  0.00     0.270 C 
HETATM   24  O   UNK N   1      21.661  21.280   2.449  0.00  0.00    -0.268 OA
HETATM   25  N   UNK N   1      20.565  20.374   0.734  0.00  0.00    -0.235 N 
HETATM   26  H   UNK N   1      19.930  19.694   0.414  0.00  0.00     0.197 HD
BRANCH  25  27
HETATM   27  O   UNK N   1      21.101  21.238  -0.139  0.00  0.00    -0.287 OA
HETATM   28  H   UNK N   1      20.921  21.289  -1.091  0.00  0.00     0.244 HD
ENDBRANCH  25  27
ENDBRANCH  20  23
ENDBRANCH   1  20
TORSDOF 10
ENDMDL
MODEL 6
REMARK VINA RESULT:      -6.1      2.007      3.248
REMARK  10 active torsions:
REMARK  status: ('A' for Active; 'I' for Inactive)
REMARK    1  A    between atoms: C_18  and  O_1 
REMARK    2  A    between atoms: O_5  and  N_8 
REMARK    3  A    between atoms: C_10  and  N_6 
REMARK       I    between atoms: N_6  and  C_14 
REMARK       I    between atoms: N_7  and  C_19 
REMARK       I    between atoms: N_8  and  C_22 
REMARK    4  A    between atoms: C_9  and  C_10 
REMARK    5  A    between atoms: C_10  and  C_19 
REMARK    6  A    between atoms: C_11  and  C_12 
REMARK    7  A    between atoms: C_11  and  C_14 
REMARK    8  A    between atoms: C_11  and  C_18 
REMARK    9  A    between atoms: C_12  and  C_13 
REMARK   10  A    between atoms: C_18  and  C_22 
ROOT
HETATM    1  C   UNK N   1      20.995  17.905   3.020  0.00  0.00     0.116 C 
ENDROOT
BRANCH   1   2
HETATM    2  C   UNK N   1      20.207  16.688   2.538  0.00  0.00     0.021 C 
BRANCH   2   3
HETATM    3  C   UNK N   1      20.642  16.268   1.142  0.00  0.00    -0.022 C 
HETATM    4  C   UNK N   1      21.003  14.798   1.152  0.00  0.00     0.009 C 
HETATM    5  C   UNK N   1      19.511  16.489   0.152  0.00  0.00     0.009 C 
ENDBRANCH   2   3
ENDBRANCH   1   2
BRANCH   1   6
HETATM    6  C   UNK N   1      21.589  17.640   4.377  0.00  0.00     0.225 C 
HETATM    7  O   UNK N   1      21.835  18.587   5.106  0.00  0.00    -0.273 OA
HETATM    8  N   UNK N   1      21.824  16.360   4.786  0.00  0.00    -0.347 N 
HETATM    9  H   UNK N   1      21.593  15.640   4.157  0.00  0.00     0.163 HD
BRANCH   8  10
HETATM   10  C   UNK N   1      22.389  15.964   6.075  0.00  0.00     0.183 C 
BRANCH  10  11
HETATM   11  C   UNK N   1      21.352  15.309   7.032  0.00  0.00    -0.022 C 
HETATM   12  C   UNK N   1      21.986  14.393   8.061  0.00  0.00     0.017 C 
HETATM   13  C   UNK N   1      20.549  16.358   7.782  0.00  0.00     0.017 C 
HETATM   14  C   UNK N   1      20.363  14.499   6.214  0.00  0.00     0.017 C 
ENDBRANCH  10  11
BRANCH  10  15
HETATM   15  C   UNK N   1      23.739  15.276   5.954  0.00  0.00     0.240 C 
HETATM   16  O   UNK N   1      23.852  14.235   5.322  0.00  0.00    -0.271 OA
HETATM   17  N   UNK N   1      24.836  15.858   6.497  0.00  0.00    -0.364 N 
HETATM   18  C   UNK N   1      26.150  15.279   6.370  0.00  0.00     0.149 C 
HETATM   19  H   UNK N   1      24.732  16.702   6.993  0.00  0.00     0.161 HD
ENDBRANCH  10  15
ENDBRANCH   8  10
ENDBRANCH   1   6
BRANCH   1  20
HETATM   20  C   UNK N   1      20.122  19.171   2.977  0.00  0.00     0.225 C 
BRANCH  20  21
HETATM   21  O   UNK N   1      18.832  18.824   2.562  0.00  0.00    -0.385 OA
HETATM   22  H   UNK N   1      18.089  19.443   2.649  0.00  0.00     0.210 HD
ENDBRANCH  20  21
BRANCH  20  23
HETATM   23  C   UNK N   1      20.692  20.214   2.046  0.00  0.00     0.270 C 
HETATM   24  O   UNK N   1      21.391  21.112   2.495  0.00  0.00    -0.268 OA
HETATM   25  N   UNK N   1      20.428  20.169   0.721  0.00  0.00    -0.235 N 
HETATM   26  H   UNK N   1      19.855  19.453   0.364  0.00  0.00     0.197 HD
BRANCH  25  27
HETATM   27  O   UNK N   1      20.936  21.086  -0.114  0.00  0.00    -0.287 OA
HETATM   28  H   UNK N   1      20.658  22.011  -0.198  0.00  0.00     0.244 HD
ENDBRANCH  25  27
ENDBRANCH  20  23
ENDBRANCH   1  20
TORSDOF 10
ENDMDL
MODEL 7
REMARK VINA RESULT:      -5.9     15.840     17.849
REMARK  10 active torsions:
REMARK  status: ('A' for Active; 'I' for Inactive)
REMARK    1  A    between atoms: C_18  and  O_1 
REMARK    2  A    between atoms: O_5  and  N_8 
REMARK    3  A    between atoms: C_10  and  N_6 
REMARK       I    between atoms: N_6  and  C_14 
REMARK       I    between atoms: N_7  and  C_19 
REMARK       I    between atoms: N_8  and  C_22 
REMARK    4  A    between atoms: C_9  and  C_10 
REMARK    5  A    between atoms: C_10  and  C_19 
REMARK    6  A    between atoms: C_11  and  C_12 
REMARK    7  A    between atoms: C_11  and  C_14 
REMARK    8  A    between atoms: C_11  and  C_18 
REMARK    9  A    between atoms: C_12  and  C_13 
REMARK   10  A    between atoms: C_18  and  C_22 
ROOT
HETATM    1  C   UNK N   1      35.632  13.870  11.536  0.00  0.00     0.116 C 
ENDROOT
BRANCH   1   2
HETATM    2  C   UNK N   1      34.869  12.814  10.738  0.00  0.00     0.021 C 
BRANCH   2   3
HETATM    3  C   UNK N   1      35.401  12.706   9.317  0.00  0.00    -0.022 C 
HETATM    4  C   UNK N   1      36.883  13.013   9.313  0.00  0.00     0.009 C 
HETATM    5  C   UNK N   1      35.190  11.300   8.783  0.00  0.00     0.009 C 
ENDBRANCH   2   3
ENDBRANCH   1   2
BRANCH   1   6
HETATM    6  C   UNK N   1      36.023  13.325  12.883  0.00  0.00     0.225 C 
HETATM    7  O   UNK N   1      36.564  14.071  13.684  0.00  0.00    -0.273 OA
HETATM    8  N   UNK N   1      35.756  12.027  13.203  0.00  0.00    -0.347 N 
HETATM    9  H   UNK N   1      35.307  11.480  12.519  0.00  0.00     0.163 HD
BRANCH   8  10
HETATM   10  C   UNK N   1      36.075  11.376  14.473  0.00  0.00     0.183 C 
BRANCH  10  11
HETATM   11  C   UNK N   1      34.848  11.221  15.417  0.00  0.00    -0.022 C 
HETATM   12  C   UNK N   1      35.049  10.165  16.487  0.00  0.00     0.017 C 
HETATM   13  C   UNK N   1      34.519  12.529  16.117  0.00  0.00     0.017 C 
HETATM   14  C   UNK N   1      33.631  10.844  14.593  0.00  0.00     0.017 C 
ENDBRANCH  10  11
BRANCH  10  15
HETATM   15  C   UNK N   1      36.976  10.161  14.315  0.00  0.00     0.240 C 
HETATM   16  O   UNK N   1      36.612   9.199  13.653  0.00  0.00    -0.271 OA
HETATM   17  N   UNK N   1      38.215  10.174  14.862  0.00  0.00    -0.364 N 
HETATM   18  C   UNK N   1      39.133   9.073  14.703  0.00  0.00     0.149 C 
HETATM   19  H   UNK N   1      38.499  10.960  15.383  0.00  0.00     0.161 HD
ENDBRANCH  10  15
ENDBRANCH   8  10
ENDBRANCH   1   6
BRANCH   1  20
HETATM   20  C   UNK N   1      34.827  15.177  11.621  0.00  0.00     0.225 C 
BRANCH  20  21
HETATM   21  O   UNK N   1      33.512  14.933  11.211  0.00  0.00    -0.385 OA
HETATM   22  H   UNK N   1      32.758  15.362  11.647  0.00  0.00     0.210 HD
ENDBRANCH  20  21
BRANCH  20  23
HETATM   23  C   UNK N   1      35.432  16.265  10.766  0.00  0.00     0.270 C 
HETATM   24  O   UNK N   1      36.648  16.382  10.703  0.00  0.00    -0.268 OA
HETATM   25  N   UNK N   1      34.639  17.118  10.078  0.00  0.00    -0.235 N 
HETATM   26  H   UNK N   1      33.661  17.029  10.140  0.00  0.00     0.197 HD
BRANCH  25  27
HETATM   27  O   UNK N   1      35.168  18.081   9.311  0.00  0.00    -0.287 OA
HETATM   28  H   UNK N   1      36.041  18.072   8.888  0.00  0.00     0.244 HD
ENDBRANCH  25  27
ENDBRANCH  20  23
ENDBRANCH   1  20
TORSDOF 10
ENDMDL
MODEL 8
REMARK VINA RESULT:      -5.9     11.571     14.162
REMARK  10 active torsions:
REMARK  status: ('A' for Active; 'I' for Inactive)
REMARK    1  A    between atoms: C_18  and  O_1 
REMARK    2  A    between atoms: O_5  and  N_8 
REMARK    3  A    between atoms: C_10  and  N_6 
REMARK       I    between atoms: N_6  and  C_14 
REMARK       I    between atoms: N_7  and  C_19 
REMARK       I    between atoms: N_8  and  C_22 
REMARK    4  A    between atoms: C_9  and  C_10 
REMARK    5  A    between atoms: C_10  and  C_19 
REMARK    6  A    between atoms: C_11  and  C_12 
REMARK    7  A    between atoms: C_11  and  C_14 
REMARK    8  A    between atoms: C_11  and  C_18 
REMARK    9  A    between atoms: C_12  and  C_13 
REMARK   10  A    between atoms: C_18  and  C_22 
ROOT
HETATM    1  C   UNK N   1      33.015  16.890   8.457  0.00  0.00     0.116 C 
ENDROOT
BRANCH   1   2
HETATM    2  C   UNK N   1      31.506  16.687   8.583  0.00  0.00     0.021 C 
BRANCH   2   3
HETATM    3  C   UNK N   1      30.745  17.932   8.153  0.00  0.00    -0.022 C 
HETATM    4  C   UNK N   1      29.690  17.546   7.138  0.00  0.00     0.009 C 
HETATM    5  C   UNK N   1      30.064  18.571   9.350  0.00  0.00     0.009 C 
ENDBRANCH   2   3
ENDBRANCH   1   2
BRANCH   1   6
HETATM    6  C   UNK N   1      33.417  16.937   7.007  0.00  0.00     0.225 C 
HETATM    7  O   UNK N   1      34.208  17.792   6.644  0.00  0.00    -0.273 OA
HETATM    8  N   UNK N   1      32.917  16.024   6.126  0.00  0.00    -0.347 N 
HETATM    9  H   UNK N   1      32.292  15.352   6.483  0.00  0.00     0.163 HD
BRANCH   8  10
HETATM   10  C   UNK N   1      33.228  15.953   4.699  0.00  0.00     0.183 C 
BRANCH  10  11
HETATM   11  C   UNK N   1      33.900  14.615   4.275  0.00  0.00    -0.022 C 
HETATM   12  C   UNK N   1      34.079  14.488   2.774  0.00  0.00     0.017 C 
HETATM   13  C   UNK N   1      35.267  14.454   4.918  0.00  0.00     0.017 C 
HETATM   14  C   UNK N   1      33.047  13.456   4.757  0.00  0.00     0.017 C 
ENDBRANCH  10  11
BRANCH  10  15
HETATM   15  C   UNK N   1      32.103  16.466   3.813  0.00  0.00     0.240 C 
HETATM   16  O   UNK N   1      32.329  17.282   2.931  0.00  0.00    -0.271 OA
HETATM   17  N   UNK N   1      30.854  15.964   3.965  0.00  0.00    -0.364 N 
HETATM   18  C   UNK N   1      29.758  16.373   3.121  0.00  0.00     0.149 C 
HETATM   19  H   UNK N   1      30.688  15.299   4.672  0.00  0.00     0.161 HD
ENDBRANCH  10  15
ENDBRANCH   8  10
ENDBRANCH   1   6
BRANCH   1  20
HETATM   20  C   UNK N   1      33.778  15.825   9.263  0.00  0.00     0.225 C 
BRANCH  20  21
HETATM   21  O   UNK N   1      32.949  15.337  10.278  0.00  0.00    -0.385 OA
HETATM   22  H   UNK N   1      31.982  15.393  10.212  0.00  0.00     0.210 HD
ENDBRANCH  20  21
BRANCH  20  23
HETATM   23  C   UNK N   1      35.047  16.379   9.865  0.00  0.00     0.270 C 
HETATM   24  O   UNK N   1      35.213  17.590   9.922  0.00  0.00    -0.268 OA
HETATM   25  N   UNK N   1      36.005  15.548  10.333  0.00  0.00    -0.235 N 
HETATM   26  H   UNK N   1      35.874  14.575  10.275  0.00  0.00     0.197 HD
BRANCH  25  27
HETATM   27  O   UNK N   1      37.130  16.032  10.877  0.00  0.00    -0.287 OA
HETATM   28  H   UNK N   1      37.323  16.127  11.823  0.00  0.00     0.244 HD
ENDBRANCH  25  27
ENDBRANCH  20  23
ENDBRANCH   1  20
TORSDOF 10
ENDMDL
MODEL 9
REMARK VINA RESULT:      -5.7     13.184     16.022
REMARK  10 active torsions:
REMARK  status: ('A' for Active; 'I' for Inactive)
REMARK    1  A    between atoms: C_18  and  O_1 
REMARK    2  A    between atoms: O_5  and  N_8 
REMARK    3  A    between atoms: C_10  and  N_6 
REMARK       I    between atoms: N_6  and  C_14 
REMARK       I    between atoms: N_7  and  C_19 
REMARK       I    between atoms: N_8  and  C_22 
REMARK    4  A    between atoms: C_9  and  C_10 
REMARK    5  A    between atoms: C_10  and  C_19 
REMARK    6  A    between atoms: C_11  and  C_12 
REMARK    7  A    between atoms: C_11  and  C_14 
REMARK    8  A    between atoms: C_11  and  C_18 
REMARK    9  A    between atoms: C_12  and  C_13 
REMARK   10  A    between atoms: C_18  and  C_22 
ROOT
HETATM    1  C   UNK N   1      27.311  25.107  -4.497  0.00  0.00     0.116 C 
ENDROOT
BRANCH   1   2
HETATM    2  C   UNK N   1      26.868  26.274  -3.616  0.00  0.00     0.021 C 
BRANCH   2   3
HETATM    3  C   UNK N   1      26.880  27.584  -4.390  0.00  0.00    -0.022 C 
HETATM    4  C   UNK N   1      26.106  28.628  -3.615  0.00  0.00     0.009 C 
HETATM    5  C   UNK N   1      28.307  28.069  -4.578  0.00  0.00     0.009 C 
ENDBRANCH   2   3
ENDBRANCH   1   2
BRANCH   1   6
HETATM    6  C   UNK N   1      26.313  24.876  -5.600  0.00  0.00     0.225 C 
HETATM    7  O   UNK N   1      25.139  24.722  -5.307  0.00  0.00    -0.273 OA
HETATM    8  N   UNK N   1      26.720  24.863  -6.902  0.00  0.00    -0.347 N 
HETATM    9  H   UNK N   1      27.679  25.005  -7.073  0.00  0.00     0.163 HD
BRANCH   8  10
HETATM   10  C   UNK N   1      25.858  24.657  -8.065  0.00  0.00     0.183 C 
BRANCH  10  11
HETATM   11  C   UNK N   1      26.378  25.356  -9.355  0.00  0.00    -0.022 C 
HETATM   12  C   UNK N   1      27.329  26.503  -9.068  0.00  0.00     0.017 C 
HETATM   13  C   UNK N   1      27.099  24.376 -10.264  0.00  0.00     0.017 C 
HETATM   14  C   UNK N   1      25.196  25.897 -10.138  0.00  0.00     0.017 C 
ENDBRANCH  10  11
BRANCH  10  15
HETATM   15  C   UNK N   1      25.378  23.222  -8.210  0.00  0.00     0.240 C 
HETATM   16  O   UNK N   1      24.229  22.982  -8.554  0.00  0.00    -0.271 OA
HETATM   17  N   UNK N   1      26.251  22.204  -8.018  0.00  0.00    -0.364 N 
HETATM   18  C   UNK N   1      25.867  20.825  -8.192  0.00  0.00     0.149 C 
HETATM   19  H   UNK N   1      27.176  22.411  -7.753  0.00  0.00     0.161 HD
ENDBRANCH  10  15
ENDBRANCH   8  10
ENDBRANCH   1   6
BRANCH   1  20
HETATM   20  C   UNK N   1      27.576  23.852  -3.647  0.00  0.00     0.225 C 
BRANCH  20  21
HETATM   21  O   UNK N   1      26.643  23.799  -2.606  0.00  0.00    -0.385 OA
HETATM   22  H   UNK N   1      25.700  23.968  -2.762  0.00  0.00     0.210 HD
ENDBRANCH  20  21
BRANCH  20  23
HETATM   23  C   UNK N   1      28.974  23.845  -3.078  0.00  0.00     0.270 C 
HETATM   24  O   UNK N   1      29.826  24.583  -3.552  0.00  0.00    -0.268 OA
HETATM   25  N   UNK N   1      29.294  23.022  -2.054  0.00  0.00    -0.235 N 
HETATM   26  H   UNK N   1      28.611  22.420  -1.682  0.00  0.00     0.197 HD
BRANCH  25  27
HETATM   27  O   UNK N   1      30.531  23.015  -1.538  0.00  0.00    -0.287 OA
HETATM   28  H   UNK N   1      31.334  23.369  -1.951  0.00  0.00     0.244 HD
ENDBRANCH  25  27
ENDBRANCH  20  23
ENDBRANCH   1  20
TORSDOF 10
ENDMDL
