MODEL 1
REMARK VINA RESULT:      -6.8      0.000      0.000
REMARK  2 active torsions:
REMARK  status: ('A' for Active; 'I' for Inactive)
REMARK    1  A    between atoms: C_2  and  C_5 
REMARK    2  A    between atoms: C_6  and  C_4 
REMARK       I    between atoms: N_15  and  C_5 
ROOT
HETATM    1  C   UNK N   1      22.933  18.938   3.944  0.00  0.00     0.076 A 
HETATM    2  C   UNK N   1      21.714  19.181   3.295  0.00  0.00     0.060 A 
HETATM    3  C   UNK N   1      20.657  18.278   3.557  0.00  0.00     0.019 A 
HETATM    4  C   UNK N   1      24.908  19.001   4.747  0.00  0.00     0.110 A 
HETATM    5  C   UNK N   1      20.840  17.188   4.437  0.00  0.00     0.003 A 
HETATM    6  C   UNK N   1      22.073  16.992   5.081  0.00  0.00     0.032 A 
HETATM    7  C   UNK N   1      23.094  17.896   4.806  0.00  0.00     0.061 A 
HETATM    8  N   UNK N   1      24.325  17.920   5.329  0.00  0.00    -0.342 N 
ATOM      9  HN  UNK N   1      24.733  17.276   6.007  1.00  0.00     0.167 HD
HETATM   10  N   UNK N   1      24.078  19.643   3.883  0.00  0.00    -0.341 N 
HETATM   11  H   UNK N   1      24.270  20.440   3.337  0.00  0.00     0.167 HD
ENDROOT
BRANCH   4  12
HETATM   12  C   UNK N   1      26.296  19.481   5.076  0.00  0.00     0.081 C 
HETATM   13  C   UNK N   1      26.299  20.931   5.512  0.00  0.00     0.040 C 
HETATM   14  C   UNK N   1      27.551  21.047   6.339  0.00  0.00     0.022 C 
HETATM   15  C   UNK N   1      27.779  19.642   6.871  0.00  0.00     0.115 C 
HETATM   16  N   UNK N   1      26.862  18.727   6.186  0.00  0.00    -0.407 N 
HETATM   17  H   UNK N   1      26.662  17.758   6.435  0.00  0.00     0.154 HD
HETATM   18  C   UNK N   1      27.183  19.323   3.845  0.00  0.00     0.046 C 
ENDBRANCH   4  12
BRANCH   2  19
HETATM   19  C   UNK N   1      21.494  20.339   2.394  0.00  0.00     0.251 C 
HETATM   20  O   UNK N   1      22.066  21.396   2.608  0.00  0.00    -0.268 OA
HETATM   21  N   UNK N   1      20.681  20.235   1.323  0.00  0.00    -0.366 N 
HETATM   22  H   UNK N   1      20.567  21.002   0.716  0.00  0.00     0.159 HD
HETATM   23  H   UNK N   1      20.204  19.393   1.147  0.00  0.00     0.159 HD
ENDBRANCH   2  19
TORSDOF 2
ENDMDL
MODEL 2
REMARK VINA RESULT:      -6.7      3.546      7.249
REMARK  2 active torsions:
REMARK  status: ('A' for Active; 'I' for Inactive)
REMARK    1  A    between atoms: C_2  and  C_5 
REMARK    2  A    between atoms: C_6  and  C_4 
REMARK       I    between atoms: N_15  and  C_5 
ROOT
HETATM    1  C   UNK N   1      28.805  18.034   6.775  0.00  0.00     0.076 A 
HETATM    2  C   UNK N   1      29.459  17.530   7.909  0.00  0.00     0.060 A 
HETATM    3  C   UNK N   1      30.668  16.831   7.694  0.00  0.00     0.019 A 
HETATM    4  C   UNK N   1      27.527  19.017   5.379  0.00  0.00     0.110 A 
HETATM    5  C   UNK N   1      31.181  16.659   6.389  0.00  0.00     0.003 A 
HETATM    6  C   UNK N   1      30.504  17.196   5.281  0.00  0.00     0.032 A 
HETATM    7  C   UNK N   1      29.317  17.880   5.523  0.00  0.00     0.061 A 
HETATM    8  N   UNK N   1      28.534  18.496   4.629  0.00  0.00    -0.342 N 
ATOM      9  HN  UNK N   1      28.663  18.561   3.619  1.00  0.00     0.167 HD
HETATM   10  N   UNK N   1      27.662  18.741   6.703  0.00  0.00    -0.341 N 
HETATM   11  H   UNK N   1      27.062  18.999   7.440  0.00  0.00     0.167 HD
ENDROOT
BRANCH   4  12
HETATM   12  C   UNK N   1      26.421  19.868   4.816  0.00  0.00     0.081 C 
HETATM   13  C   UNK N   1      26.680  20.243   3.373  0.00  0.00     0.040 C 
HETATM   14  C   UNK N   1      25.306  20.523   2.829  0.00  0.00     0.022 C 
HETATM   15  C   UNK N   1      24.383  19.681   3.695  0.00  0.00     0.115 C 
HETATM   16  N   UNK N   1      25.153  19.152   4.824  0.00  0.00    -0.407 N 
HETATM   17  H   UNK N   1      24.860  18.430   5.482  0.00  0.00     0.154 HD
HETATM   18  C   UNK N   1      26.296  21.138   5.652  0.00  0.00     0.046 C 
ENDBRANCH   4  12
BRANCH   2  19
HETATM   19  C   UNK N   1      28.953  17.731   9.290  0.00  0.00     0.251 C 
HETATM   20  O   UNK N   1      27.824  17.368   9.585  0.00  0.00    -0.268 OA
HETATM   21  N   UNK N   1      29.733  18.291  10.236  0.00  0.00    -0.366 N 
HETATM   22  H   UNK N   1      29.397  18.392  11.155  0.00  0.00     0.159 HD
HETATM   23  H   UNK N   1      30.639  18.600  10.007  0.00  0.00     0.159 HD
ENDBRANCH   2  19
TORSDOF 2
ENDMDL
MODEL 3
REMARK VINA RESULT:      -6.7      6.790      9.528
REMARK  2 active torsions:
REMARK  status: ('A' for Active; 'I' for Inactive)
REMARK    1  A    between atoms: C_2  and  C_5 
REMARK    2  A    between atoms: C_6  and  C_4 
REMARK       I    between atoms: N_15  and  C_5 
ROOT
HETATM    1  C   UNK N   1      30.912  17.241   7.944  0.00  0.00     0.076 A 
HETATM    2  C   UNK N   1      29.649  17.850   7.945  0.00  0.00     0.060 A 
HETATM    3  C   UNK N   1      29.001  17.985   6.696  0.00  0.00     0.019 A 
HETATM    4  C   UNK N   1      32.780  16.330   8.424  0.00  0.00     0.110 A 
HETATM    5  C   UNK N   1      29.612  17.518   5.511  0.00  0.00     0.003 A 
HETATM    6  C   UNK N   1      30.871  16.896   5.556  0.00  0.00     0.032 A 
HETATM    7  C   UNK N   1      31.485  16.776   6.799  0.00  0.00     0.061 A 
HETATM    8  N   UNK N   1      32.657  16.193   7.077  0.00  0.00    -0.342 N 
ATOM      9  HN  UNK N   1      33.307  15.749   6.430  1.00  0.00     0.167 HD
HETATM   10  N   UNK N   1      31.725  16.979   8.984  0.00  0.00    -0.341 N 
HETATM   11  H   UNK N   1      31.587  17.206   9.933  0.00  0.00     0.167 HD
ENDROOT
BRANCH   4  12
HETATM   12  C   UNK N   1      33.924  15.762   9.220  0.00  0.00     0.081 C 
HETATM   13  C   UNK N   1      34.830  16.851   9.754  0.00  0.00     0.040 C 
HETATM   14  C   UNK N   1      35.488  16.210  10.946  0.00  0.00     0.022 C 
HETATM   15  C   UNK N   1      34.488  15.160  11.403  0.00  0.00     0.115 C 
HETATM   16  N   UNK N   1      33.441  15.035  10.386  0.00  0.00    -0.407 N 
HETATM   17  H   UNK N   1      32.554  14.538  10.475  0.00  0.00     0.154 HD
HETATM   18  C   UNK N   1      34.733  14.824   8.331  0.00  0.00     0.046 C 
ENDBRANCH   4  12
BRANCH   2  19
HETATM   19  C   UNK N   1      28.977  18.315   9.184  0.00  0.00     0.251 C 
HETATM   20  O   UNK N   1      29.642  18.733  10.119  0.00  0.00    -0.268 OA
HETATM   21  N   UNK N   1      27.632  18.304   9.285  0.00  0.00    -0.366 N 
HETATM   22  H   UNK N   1      27.197  18.643  10.100  0.00  0.00     0.159 HD
HETATM   23  H   UNK N   1      27.086  17.958   8.543  0.00  0.00     0.159 HD
ENDBRANCH   2  19
TORSDOF 2
ENDMDL
MODEL 4
REMARK VINA RESULT:      -6.3      3.748      7.316
REMARK  2 active torsions:
REMARK  status: ('A' for Active; 'I' for Inactive)
REMARK    1  A    between atoms: C_2  and  C_5 
REMARK    2  A    between atoms: C_6  and  C_4 
REMARK       I    between atoms: N_15  and  C_5 
ROOT
HETATM    1  C   UNK N   1      29.132  18.032   7.061  0.00  0.00     0.076 A 
HETATM    2  C   UNK N   1      30.166  17.096   7.212  0.00  0.00     0.060 A 
HETATM    3  C   UNK N   1      30.548  16.771   8.534  0.00  0.00     0.019 A 
HETATM    4  C   UNK N   1      27.589  19.327   6.363  0.00  0.00     0.110 A 
HETATM    5  C   UNK N   1      29.905  17.371   9.640  0.00  0.00     0.003 A 
HETATM    6  C   UNK N   1      28.860  18.290   9.444  0.00  0.00     0.032 A 
HETATM    7  C   UNK N   1      28.505  18.590   8.133  0.00  0.00     0.061 A 
HETATM    8  N   UNK N   1      27.526  19.402   7.719  0.00  0.00    -0.342 N 
ATOM      9  HN  UNK N   1      26.881  19.950   8.288  1.00  0.00     0.167 HD
HETATM   10  N   UNK N   1      28.574  18.498   5.929  0.00  0.00    -0.341 N 
HETATM   11  H   UNK N   1      28.822  18.287   4.999  0.00  0.00     0.167 HD
ENDROOT
BRANCH   4  12
HETATM   12  C   UNK N   1      26.627  20.028   5.442  0.00  0.00     0.081 C 
HETATM   13  C   UNK N   1      27.147  20.077   4.021  0.00  0.00     0.040 C 
HETATM   14  C   UNK N   1      25.899  20.224   3.194  0.00  0.00     0.022 C 
HETATM   15  C   UNK N   1      24.811  19.588   4.044  0.00  0.00     0.115 C 
HETATM   16  N   UNK N   1      25.353  19.324   5.379  0.00  0.00    -0.407 N 
HETATM   17  H   UNK N   1      24.926  18.763   6.116  0.00  0.00     0.154 HD
HETATM   18  C   UNK N   1      26.401  21.450   5.946  0.00  0.00     0.046 C 
ENDBRANCH   4  12
BRANCH   2  19
HETATM   19  C   UNK N   1      30.830  16.431   6.064  0.00  0.00     0.251 C 
HETATM   20  O   UNK N   1      31.194  17.092   5.103  0.00  0.00    -0.268 OA
HETATM   21  N   UNK N   1      31.059  15.102   6.074  0.00  0.00    -0.366 N 
HETATM   22  H   UNK N   1      31.526  14.677   5.319  0.00  0.00     0.159 HD
HETATM   23  H   UNK N   1      30.759  14.557   6.837  0.00  0.00     0.159 HD
ENDBRANCH   2  19
TORSDOF 2
ENDMDL
MODEL 5
REMARK VINA RESULT:      -6.1     10.660     12.337
REMARK  2 active torsions:
REMARK  status: ('A' for Active; 'I' for Inactive)
REMARK    1  A    between atoms: C_2  and  C_5 
REMARK    2  A    between atoms: C_6  and  C_4 
REMARK       I    between atoms: N_15  and  C_5 
ROOT
HETATM    1  C   UNK N   1      30.003  22.053  -4.707  0.00  0.00     0.076 A 
HETATM    2  C   UNK N   1      31.099  21.342  -4.197  0.00  0.00     0.060 A 
HETATM    3  C   UNK N   1      31.623  20.306  -5.004  0.00  0.00     0.019 A 
HETATM    4  C   UNK N   1      28.413  23.419  -5.098  0.00  0.00     0.110 A 
HETATM    5  C   UNK N   1      31.056  20.016  -6.265  0.00  0.00     0.003 A 
HETATM    6  C   UNK N   1      29.969  20.765  -6.747  0.00  0.00     0.032 A 
HETATM    7  C   UNK N   1      29.475  21.779  -5.932  0.00  0.00     0.061 A 
HETATM    8  N   UNK N   1      28.479  22.630  -6.203  0.00  0.00    -0.342 N 
ATOM      9  HN  UNK N   1      27.903  22.677  -7.043  1.00  0.00     0.167 HD
HETATM   10  N   UNK N   1      29.333  23.082  -4.156  0.00  0.00    -0.341 N 
HETATM   11  H   UNK N   1      29.477  23.495  -3.273  0.00  0.00     0.167 HD
ENDROOT
BRANCH   4  12
HETATM   12  C   UNK N   1      27.473  24.587  -4.960  0.00  0.00     0.081 C 
HETATM   13  C   UNK N   1      26.947  24.719  -3.547  0.00  0.00     0.040 C 
HETATM   14  C   UNK N   1      26.569  26.172  -3.445  0.00  0.00     0.022 C 
HETATM   15  C   UNK N   1      27.476  26.864  -4.449  0.00  0.00     0.115 C 
HETATM   16  N   UNK N   1      28.150  25.843  -5.255  0.00  0.00    -0.407 N 
HETATM   17  H   UNK N   1      28.933  25.982  -5.894  0.00  0.00     0.154 HD
HETATM   18  C   UNK N   1      26.302  24.400  -5.918  0.00  0.00     0.046 C 
ENDBRANCH   4  12
BRANCH   2  19
HETATM   19  C   UNK N   1      31.729  21.654  -2.890  0.00  0.00     0.251 C 
HETATM   20  O   UNK N   1      31.184  22.431  -2.120  0.00  0.00    -0.268 OA
HETATM   21  N   UNK N   1      32.891  21.074  -2.528  0.00  0.00    -0.366 N 
HETATM   22  H   UNK N   1      33.283  21.267  -1.646  0.00  0.00     0.159 HD
HETATM   23  H   UNK N   1      33.346  20.458  -3.145  0.00  0.00     0.159 HD
ENDBRANCH   2  19
TORSDOF 2
ENDMDL
MODEL 6
REMARK VINA RESULT:      -6.1     10.243     11.781
REMARK  2 active torsions:
REMARK  status: ('A' for Active; 'I' for Inactive)
REMARK    1  A    between atoms: C_2  and  C_5 
REMARK    2  A    between atoms: C_6  and  C_4 
REMARK       I    between atoms: N_15  and  C_5 
ROOT
HETATM    1  C   UNK N   1      27.098  25.791  -4.735  0.00  0.00     0.076 A 
HETATM    2  C   UNK N   1      26.175  26.842  -4.640  0.00  0.00     0.060 A 
HETATM    3  C   UNK N   1      25.394  27.116  -5.786  0.00  0.00     0.019 A 
HETATM    4  C   UNK N   1      28.554  24.268  -4.404  0.00  0.00     0.110 A 
HETATM    5  C   UNK N   1      25.550  26.353  -6.965  0.00  0.00     0.003 A 
HETATM    6  C   UNK N   1      26.474  25.296  -7.013  0.00  0.00     0.032 A 
HETATM    7  C   UNK N   1      27.228  25.049  -5.869  0.00  0.00     0.061 A 
HETATM    8  N   UNK N   1      28.132  24.080  -5.683  0.00  0.00    -0.342 N 
ATOM      9  HN  UNK N   1      28.435  23.366  -6.345  1.00  0.00     0.167 HD
HETATM   10  N   UNK N   1      27.942  25.319  -3.798  0.00  0.00    -0.341 N 
HETATM   11  H   UNK N   1      28.083  25.659  -2.884  0.00  0.00     0.167 HD
ENDROOT
BRANCH   4  12
HETATM   12  C   UNK N   1      29.538  23.367  -3.708  0.00  0.00     0.081 C 
HETATM   13  C   UNK N   1      29.750  22.075  -4.468  0.00  0.00     0.040 C 
HETATM   14  C   UNK N   1      31.110  21.618  -4.015  0.00  0.00     0.022 C 
HETATM   15  C   UNK N   1      31.823  22.902  -3.625  0.00  0.00     0.115 C 
HETATM   16  N   UNK N   1      30.848  23.996  -3.613  0.00  0.00    -0.407 N 
HETATM   17  H   UNK N   1      31.046  24.995  -3.549  0.00  0.00     0.154 HD
HETATM   18  C   UNK N   1      29.020  23.050  -2.309  0.00  0.00     0.046 C 
ENDBRANCH   4  12
BRANCH   2  19
HETATM   19  C   UNK N   1      25.973  27.632  -3.399  0.00  0.00     0.251 C 
HETATM   20  O   UNK N   1      25.947  27.070  -2.316  0.00  0.00    -0.268 OA
HETATM   21  N   UNK N   1      25.839  28.973  -3.449  0.00  0.00    -0.366 N 
HETATM   22  H   UNK N   1      25.736  29.488  -2.617  0.00  0.00     0.159 HD
HETATM   23  H   UNK N   1      25.845  29.436  -4.318  0.00  0.00     0.159 HD
ENDBRANCH   2  19
TORSDOF 2
ENDMDL
MODEL 7
REMARK VINA RESULT:      -6.1      6.129      8.756
REMARK  2 active torsions:
REMARK  status: ('A' for Active; 'I' for Inactive)
REMARK    1  A    between atoms: C_2  and  C_5 
REMARK    2  A    between atoms: C_6  and  C_4 
REMARK       I    between atoms: N_15  and  C_5 
ROOT
HETATM    1  C   UNK N   1      30.340  17.230   7.375  0.00  0.00     0.076 A 
HETATM    2  C   UNK N   1      29.560  17.737   6.325  0.00  0.00     0.060 A 
HETATM    3  C   UNK N   1      28.399  18.462   6.682  0.00  0.00     0.019 A 
HETATM    4  C   UNK N   1      31.836  16.351   8.614  0.00  0.00     0.110 A 
HETATM    5  C   UNK N   1      28.057  18.656   8.038  0.00  0.00     0.003 A 
HETATM    6  C   UNK N   1      28.877  18.147   9.060  0.00  0.00     0.032 A 
HETATM    7  C   UNK N   1      30.013  17.440   8.680  0.00  0.00     0.061 A 
HETATM    8  N   UNK N   1      30.944  16.903   9.477  0.00  0.00    -0.342 N 
ATOM      9  HN  UNK N   1      30.976  16.906  10.497  1.00  0.00     0.167 HD
HETATM   10  N   UNK N   1      31.487  16.529   7.312  0.00  0.00    -0.341 N 
HETATM   11  H   UNK N   1      31.963  16.216   6.509  0.00  0.00     0.167 HD
ENDROOT
BRANCH   4  12
HETATM   12  C   UNK N   1      33.112  15.679   9.046  0.00  0.00     0.081 C 
HETATM   13  C   UNK N   1      34.242  16.673   9.208  0.00  0.00     0.040 C 
HETATM   14  C   UNK N   1      35.176  15.991  10.171  0.00  0.00     0.022 C 
HETATM   15  C   UNK N   1      34.274  15.070  10.976  0.00  0.00     0.115 C 
HETATM   16  N   UNK N   1      32.952  15.037  10.344  0.00  0.00    -0.407 N 
HETATM   17  H   UNK N   1      32.095  14.644  10.733  0.00  0.00     0.154 HD
HETATM   18  C   UNK N   1      33.503  14.636   8.005  0.00  0.00     0.046 C 
ENDBRANCH   4  12
BRANCH   2  19
HETATM   19  C   UNK N   1      29.921  17.571   4.895  0.00  0.00     0.251 C 
HETATM   20  O   UNK N   1      31.085  17.382   4.578  0.00  0.00    -0.268 OA
HETATM   21  N   UNK N   1      28.974  17.606   3.936  0.00  0.00    -0.366 N 
HETATM   22  H   UNK N   1      29.223  17.466   2.994  0.00  0.00     0.159 HD
HETATM   23  H   UNK N   1      28.035  17.772   4.178  0.00  0.00     0.159 HD
ENDBRANCH   2  19
TORSDOF 2
ENDMDL
MODEL 8
REMARK VINA RESULT:      -6.1     13.662     16.215
REMARK  2 active torsions:
REMARK  status: ('A' for Active; 'I' for Inactive)
REMARK    1  A    between atoms: C_2  and  C_5 
REMARK    2  A    between atoms: C_6  and  C_4 
REMARK       I    between atoms: N_15  and  C_5 
ROOT
HETATM    1  C   UNK N   1      35.065  12.755  14.349  0.00  0.00     0.076 A 
HETATM    2  C   UNK N   1      35.177  12.526  15.728  0.00  0.00     0.060 A 
HETATM    3  C   UNK N   1      34.766  11.260  16.204  0.00  0.00     0.019 A 
HETATM    4  C   UNK N   1      35.138  13.508  12.355  0.00  0.00     0.110 A 
HETATM    5  C   UNK N   1      34.269  10.281  15.315  0.00  0.00     0.003 A 
HETATM    6  C   UNK N   1      34.191  10.544  13.937  0.00  0.00     0.032 A 
HETATM    7  C   UNK N   1      34.603  11.798  13.497  0.00  0.00     0.061 A 
HETATM    8  N   UNK N   1      34.647  12.246  12.237  0.00  0.00    -0.342 N 
ATOM      9  HN  UNK N   1      34.375  11.755  11.386  1.00  0.00     0.167 HD
HETATM   10  N   UNK N   1      35.397  13.852  13.644  0.00  0.00    -0.341 N 
HETATM   11  H   UNK N   1      35.746  14.708  13.985  0.00  0.00     0.167 HD
ENDROOT
BRANCH   4  12
HETATM   12  C   UNK N   1      35.433  14.403  11.182  0.00  0.00     0.081 C 
HETATM   13  C   UNK N   1      34.168  14.819  10.463  0.00  0.00     0.040 C 
HETATM   14  C   UNK N   1      34.557  16.102   9.778  0.00  0.00     0.022 C 
HETATM   15  C   UNK N   1      35.677  16.660  10.641  0.00  0.00     0.115 C 
HETATM   16  N   UNK N   1      36.075  15.637  11.612  0.00  0.00    -0.407 N 
HETATM   17  H   UNK N   1      36.681  15.763  12.423  0.00  0.00     0.154 HD
HETATM   18  C   UNK N   1      36.345  13.664  10.208  0.00  0.00     0.046 C 
ENDBRANCH   4  12
BRANCH   2  19
HETATM   19  C   UNK N   1      35.728  13.530  16.672  0.00  0.00     0.251 C 
HETATM   20  O   UNK N   1      36.608  14.294  16.305  0.00  0.00    -0.268 OA
HETATM   21  N   UNK N   1      35.254  13.627  17.931  0.00  0.00    -0.366 N 
HETATM   22  H   UNK N   1      35.607  14.316  18.538  0.00  0.00     0.159 HD
HETATM   23  H   UNK N   1      34.555  13.008  18.242  0.00  0.00     0.159 HD
ENDBRANCH   2  19
TORSDOF 2
ENDMDL
MODEL 9
REMARK VINA RESULT:      -6.1     11.788     15.474
REMARK  2 active torsions:
REMARK  status: ('A' for Active; 'I' for Inactive)
REMARK    1  A    between atoms: C_2  and  C_5 
REMARK    2  A    between atoms: C_6  and  C_4 
REMARK       I    between atoms: N_15  and  C_5 
ROOT
HETATM    1  C   UNK N   1      35.136  13.016  13.230  0.00  0.00     0.076 A 
HETATM    2  C   UNK N   1      35.068  11.976  14.169  0.00  0.00     0.060 A 
HETATM    3  C   UNK N   1      35.863  12.109  15.331  0.00  0.00     0.019 A 
HETATM    4  C   UNK N   1      34.871  14.358  11.594  0.00  0.00     0.110 A 
HETATM    5  C   UNK N   1      36.680  13.245  15.521  0.00  0.00     0.003 A 
HETATM    6  C   UNK N   1      36.704  14.274  14.564  0.00  0.00     0.032 A 
HETATM    7  C   UNK N   1      35.911  14.117  13.431  0.00  0.00     0.061 A 
HETATM    8  N   UNK N   1      35.755  14.978  12.419  0.00  0.00    -0.342 N 
ATOM      9  HN  UNK N   1      36.197  15.889  12.295  1.00  0.00     0.167 HD
HETATM   10  N   UNK N   1      34.478  13.144  12.063  0.00  0.00    -0.341 N 
HETATM   11  H   UNK N   1      33.856  12.505  11.645  0.00  0.00     0.167 HD
ENDROOT
BRANCH   4  12
HETATM   12  C   UNK N   1      34.327  14.977  10.335  0.00  0.00     0.081 C 
HETATM   13  C   UNK N   1      34.607  14.116   9.121  0.00  0.00     0.040 C 
HETATM   14  C   UNK N   1      33.539  14.527   8.144  0.00  0.00     0.022 C 
HETATM   15  C   UNK N   1      32.399  15.016   9.021  0.00  0.00     0.115 C 
HETATM   16  N   UNK N   1      32.879  15.118  10.402  0.00  0.00    -0.407 N 
HETATM   17  H   UNK N   1      32.315  15.260  11.239  0.00  0.00     0.154 HD
HETATM   18  C   UNK N   1      34.966  16.348  10.138  0.00  0.00     0.046 C 
ENDBRANCH   4  12
BRANCH   2  19
HETATM   19  C   UNK N   1      34.191  10.791  14.002  0.00  0.00     0.251 C 
HETATM   20  O   UNK N   1      33.110  10.747  14.571  0.00  0.00    -0.268 OA
HETATM   21  N   UNK N   1      34.561   9.764  13.210  0.00  0.00    -0.366 N 
HETATM   22  H   UNK N   1      33.957   8.997  13.085  0.00  0.00     0.159 HD
HETATM   23  H   UNK N   1      35.435   9.782  12.758  0.00  0.00     0.159 HD
ENDBRANCH   2  19
TORSDOF 2
ENDMDL
