MODEL 1
REMARK VINA RESULT:      -7.7      0.000      0.000
REMARK  5 active torsions:
REMARK  status: ('A' for Active; 'I' for Inactive)
REMARK    1  A    between atoms: O_2  and  C_24 
REMARK    2  A    between atoms: O_2  and  C_25 
REMARK    3  A    between atoms: C_15  and  C_17 
REMARK    4  A    between atoms: C_18  and  C_19 
REMARK    5  A    between atoms: C_21  and  C_24 
ROOT
HETATM    1  C   UNK N   1      28.019  17.757   6.296  0.00  0.00    -0.060 C 
HETATM    2  C   UNK N   1      27.063  18.155   5.727  0.00  0.00    -0.043 C 
ENDROOT
BRANCH   1   3
HETATM    3  C   UNK N   1      29.249  17.631   6.922  0.00  0.00     0.018 A 
HETATM    4  C   UNK N   1      30.226  17.248   6.064  0.00  0.00     0.029 A 
HETATM    5  C   UNK N   1      31.541  17.208   6.432  0.00  0.00    -0.032 A 
HETATM    6  C   UNK N   1      32.499  16.806   5.340  0.00  0.00    -0.018 C 
HETATM    7  C   UNK N   1      31.886  17.548   7.767  0.00  0.00     0.007 A 
HETATM    8  C   UNK N   1      33.954  17.012   5.716  0.00  0.00     0.024 C 
HETATM    9  C   UNK N   1      32.243  15.342   4.996  0.00  0.00     0.020 C 
HETATM   10  C   UNK N   1      32.232  17.636   4.087  0.00  0.00     0.020 C 
HETATM   11  C   UNK N   1      34.237  16.419   7.077  0.00  0.00     0.080 C 
HETATM   12  S   UNK N   1      33.591  17.550   8.344  0.00  0.00    -0.129 SA
HETATM   13  C   UNK N   1      30.865  17.906   8.675  0.00  0.00     0.020 A 
HETATM   14  C   UNK N   1      29.530  17.961   8.248  0.00  0.00     0.022 A 
ENDBRANCH   1   3
BRANCH   2  15
HETATM   15  C   UNK N   1      25.904  18.544   5.061  0.00  0.00     0.086 A 
HETATM   16  N   UNK N   1      24.675  17.971   5.270  0.00  0.00    -0.358 N 
HETATM   17  C   UNK N   1      23.575  18.447   4.605  0.00  0.00     0.106 A 
ATOM     18  HN  UNK N   1      24.580  17.190   5.918  1.00  0.00     0.166 HD
HETATM   19  C   UNK N   1      23.736  19.542   3.731  0.00  0.00     0.054 A 
HETATM   20  C   UNK N   1      25.001  20.070   3.535  0.00  0.00     0.022 A 
HETATM   21  C   UNK N   1      26.076  19.574   4.185  0.00  0.00     0.040 A 
BRANCH  19  22
HETATM   22  C   UNK N   1      22.693  20.236   2.987  0.00  0.00     0.294 C 
HETATM   23  O   UNK N   1      22.782  21.412   2.672  0.00  0.00    -0.259 OA
BRANCH  22  24
HETATM   24  O   UNK N   1      21.621  19.483   2.634  0.00  0.00    -0.318 OA
BRANCH  24  25
HETATM   25  C   UNK N   1      20.329  19.722   3.002  0.00  0.00     0.174 C 
HETATM   26  C   UNK N   1      19.546  18.438   2.768  0.00  0.00     0.034 C 
ENDBRANCH  24  25
ENDBRANCH  22  24
ENDBRANCH  19  22
ENDBRANCH   2  15
TORSDOF 5
ENDMDL
MODEL 2
REMARK VINA RESULT:      -7.0      9.644     12.961
REMARK  5 active torsions:
REMARK  status: ('A' for Active; 'I' for Inactive)
REMARK    1  A    between atoms: O_2  and  C_24 
REMARK    2  A    between atoms: O_2  and  C_25 
REMARK    3  A    between atoms: C_15  and  C_17 
REMARK    4  A    between atoms: C_18  and  C_19 
REMARK    5  A    between atoms: C_21  and  C_24 
ROOT
HETATM    1  C   UNK N   1      35.494  13.203  14.028  0.00  0.00    -0.060 C 
HETATM    2  C   UNK N   1      35.244  13.813  13.047  0.00  0.00    -0.043 C 
ENDROOT
BRANCH   1   3
HETATM    3  C   UNK N   1      35.454  12.589  15.269  0.00  0.00     0.018 A 
HETATM    4  C   UNK N   1      35.961  11.332  15.240  0.00  0.00     0.029 A 
HETATM    5  C   UNK N   1      36.157  10.600  16.376  0.00  0.00    -0.032 A 
HETATM    6  C   UNK N   1      36.773   9.241  16.163  0.00  0.00    -0.018 C 
HETATM    7  C   UNK N   1      35.786  11.167  17.624  0.00  0.00     0.007 A 
HETATM    8  C   UNK N   1      37.199   8.570  17.456  0.00  0.00     0.024 C 
HETATM    9  C   UNK N   1      35.764   8.371  15.421  0.00  0.00     0.020 C 
HETATM   10  C   UNK N   1      38.017   9.369  15.287  0.00  0.00     0.020 C 
HETATM   11  C   UNK N   1      36.081   8.623  18.472  0.00  0.00     0.080 C 
HETATM   12  S   UNK N   1      36.025  10.295  19.180  0.00  0.00    -0.129 SA
HETATM   13  C   UNK N   1      35.218  12.460  17.654  0.00  0.00     0.020 A 
HETATM   14  C   UNK N   1      35.059  13.188  16.466  0.00  0.00     0.022 A 
ENDBRANCH   1   3
BRANCH   2  15
HETATM   15  C   UNK N   1      35.029  14.512  11.863  0.00  0.00     0.086 A 
HETATM   16  N   UNK N   1      34.135  14.124  10.898  0.00  0.00    -0.358 N 
HETATM   17  C   UNK N   1      33.951  14.897   9.782  0.00  0.00     0.106 A 
ATOM     18  HN  UNK N   1      33.608  13.258  11.011  1.00  0.00     0.166 HD
HETATM   19  C   UNK N   1      34.681  16.099   9.666  0.00  0.00     0.054 A 
HETATM   20  C   UNK N   1      35.590  16.436  10.654  0.00  0.00     0.022 A 
HETATM   21  C   UNK N   1      35.770  15.650  11.738  0.00  0.00     0.040 A 
BRANCH  19  22
HETATM   22  C   UNK N   1      34.584  17.088   8.601  0.00  0.00     0.294 C 
HETATM   23  O   UNK N   1      34.712  18.285   8.802  0.00  0.00    -0.259 OA
BRANCH  22  24
HETATM   24  O   UNK N   1      34.370  16.595   7.355  0.00  0.00    -0.318 OA
BRANCH  24  25
HETATM   25  C   UNK N   1      33.187  16.636   6.678  0.00  0.00     0.174 C 
HETATM   26  C   UNK N   1      33.401  17.500   5.443  0.00  0.00     0.034 C 
ENDBRANCH  24  25
ENDBRANCH  22  24
ENDBRANCH  19  22
ENDBRANCH   2  15
TORSDOF 5
ENDMDL
MODEL 3
REMARK VINA RESULT:      -7.0      4.679      9.823
REMARK  5 active torsions:
REMARK  status: ('A' for Active; 'I' for Inactive)
REMARK    1  A    between atoms: O_2  and  C_24 
REMARK    2  A    between atoms: O_2  and  C_25 
REMARK    3  A    between atoms: C_15  and  C_17 
REMARK    4  A    between atoms: C_18  and  C_19 
REMARK    5  A    between atoms: C_21  and  C_24 
ROOT
HETATM    1  C   UNK N   1      26.521  18.929   4.302  0.00  0.00    -0.060 C 
HETATM    2  C   UNK N   1      27.398  18.510   4.974  0.00  0.00    -0.043 C 
ENDROOT
BRANCH   1   3
HETATM    3  C   UNK N   1      25.289  19.293   3.782  0.00  0.00     0.018 A 
HETATM    4  C   UNK N   1      24.310  18.416   4.112  0.00  0.00     0.029 A 
HETATM    5  C   UNK N   1      22.995  18.656   3.833  0.00  0.00    -0.032 A 
HETATM    6  C   UNK N   1      22.036  17.597   4.313  0.00  0.00    -0.018 C 
HETATM    7  C   UNK N   1      22.651  19.850   3.147  0.00  0.00     0.007 A 
HETATM    8  C   UNK N   1      20.581  18.016   4.206  0.00  0.00     0.024 C 
HETATM    9  C   UNK N   1      22.283  16.328   3.504  0.00  0.00     0.020 C 
HETATM   10  C   UNK N   1      22.309  17.279   5.781  0.00  0.00     0.020 C 
HETATM   11  C   UNK N   1      20.293  18.577   2.833  0.00  0.00     0.080 C 
HETATM   12  S   UNK N   1      20.946  20.271   2.754  0.00  0.00    -0.129 SA
HETATM   13  C   UNK N   1      23.673  20.747   2.763  0.00  0.00     0.020 A 
HETATM   14  C   UNK N   1      25.009  20.474   3.093  0.00  0.00     0.022 A 
ENDBRANCH   1   3
BRANCH   2  15
HETATM   15  C   UNK N   1      28.486  18.044   5.706  0.00  0.00     0.086 A 
HETATM   16  N   UNK N   1      29.616  17.513   5.139  0.00  0.00    -0.358 N 
HETATM   17  C   UNK N   1      30.663  17.121   5.933  0.00  0.00     0.106 A 
ATOM     18  HN  UNK N   1      29.678  17.410   4.126  1.00  0.00     0.166 HD
HETATM   19  C   UNK N   1      30.554  17.299   7.328  0.00  0.00     0.054 A 
HETATM   20  C   UNK N   1      29.384  17.815   7.855  0.00  0.00     0.022 A 
HETATM   21  C   UNK N   1      28.356  18.178   7.056  0.00  0.00     0.040 A 
BRANCH  19  22
HETATM   22  C   UNK N   1      31.570  17.012   8.333  0.00  0.00     0.294 C 
HETATM   23  O   UNK N   1      31.573  15.982   8.988  0.00  0.00    -0.259 OA
BRANCH  22  24
HETATM   24  O   UNK N   1      32.538  17.952   8.478  0.00  0.00    -0.318 OA
BRANCH  24  25
HETATM   25  C   UNK N   1      33.881  17.720   8.435  0.00  0.00     0.174 C 
HETATM   26  C   UNK N   1      34.243  17.415   6.989  0.00  0.00     0.034 C 
ENDBRANCH  24  25
ENDBRANCH  22  24
ENDBRANCH  19  22
ENDBRANCH   2  15
TORSDOF 5
ENDMDL
MODEL 4
REMARK VINA RESULT:      -6.9      7.503     11.891
REMARK  5 active torsions:
REMARK  status: ('A' for Active; 'I' for Inactive)
REMARK    1  A    between atoms: O_2  and  C_24 
REMARK    2  A    between atoms: O_2  and  C_25 
REMARK    3  A    between atoms: C_15  and  C_17 
REMARK    4  A    between atoms: C_18  and  C_19 
REMARK    5  A    between atoms: C_21  and  C_24 
ROOT
HETATM    1  C   UNK N   1      32.838  15.446   8.530  0.00  0.00    -0.060 C 
HETATM    2  C   UNK N   1      33.394  14.893   9.415  0.00  0.00    -0.043 C 
ENDROOT
BRANCH   1   3
HETATM    3  C   UNK N   1      31.897  15.937   7.640  0.00  0.00     0.018 A 
HETATM    4  C   UNK N   1      30.950  16.690   8.251  0.00  0.00     0.029 A 
HETATM    5  C   UNK N   1      30.015  17.394   7.548  0.00  0.00    -0.032 A 
HETATM    6  C   UNK N   1      29.069  18.215   8.387  0.00  0.00    -0.018 C 
HETATM    7  C   UNK N   1      30.018  17.304   6.131  0.00  0.00     0.007 A 
HETATM    8  C   UNK N   1      28.215  19.164   7.567  0.00  0.00     0.024 C 
HETATM    9  C   UNK N   1      28.185  17.260   9.182  0.00  0.00     0.020 C 
HETATM   10  C   UNK N   1      29.861  19.061   9.381  0.00  0.00     0.020 C 
HETATM   11  C   UNK N   1      27.584  18.436   6.403  0.00  0.00     0.080 C 
HETATM   12  S   UNK N   1      28.844  18.211   5.112  0.00  0.00    -0.129 SA
HETATM   13  C   UNK N   1      30.976  16.487   5.492  0.00  0.00     0.020 A 
HETATM   14  C   UNK N   1      31.937  15.802   6.251  0.00  0.00     0.022 A 
ENDBRANCH   1   3
BRANCH   2  15
HETATM   15  C   UNK N   1      34.122  14.276  10.427  0.00  0.00     0.086 A 
HETATM   16  N   UNK N   1      34.229  12.917  10.572  0.00  0.00    -0.358 N 
HETATM   17  C   UNK N   1      35.007  12.392  11.571  0.00  0.00     0.106 A 
ATOM     18  HN  UNK N   1      33.729  12.296   9.936  1.00  0.00     0.166 HD
HETATM   19  C   UNK N   1      35.703  13.278  12.419  0.00  0.00     0.054 A 
HETATM   20  C   UNK N   1      35.543  14.642  12.250  0.00  0.00     0.022 A 
HETATM   21  C   UNK N   1      34.756  15.139  11.271  0.00  0.00     0.040 A 
BRANCH  19  22
HETATM   22  C   UNK N   1      36.627  12.927  13.490  0.00  0.00     0.294 C 
HETATM   23  O   UNK N   1      37.502  12.087  13.354  0.00  0.00    -0.259 OA
BRANCH  22  24
HETATM   24  O   UNK N   1      36.477  13.617  14.649  0.00  0.00    -0.318 OA
BRANCH  24  25
HETATM   25  C   UNK N   1      36.193  13.071  15.866  0.00  0.00     0.174 C 
HETATM   26  C   UNK N   1      34.678  12.965  15.975  0.00  0.00     0.034 C 
ENDBRANCH  24  25
ENDBRANCH  22  24
ENDBRANCH  19  22
ENDBRANCH   2  15
TORSDOF 5
ENDMDL
MODEL 5
REMARK VINA RESULT:      -6.7     10.423     13.814
REMARK  5 active torsions:
REMARK  status: ('A' for Active; 'I' for Inactive)
REMARK    1  A    between atoms: O_2  and  C_24 
REMARK    2  A    between atoms: O_2  and  C_25 
REMARK    3  A    between atoms: C_15  and  C_17 
REMARK    4  A    between atoms: C_18  and  C_19 
REMARK    5  A    between atoms: C_21  and  C_24 
ROOT
HETATM    1  C   UNK N   1      35.706  13.408  15.040  0.00  0.00    -0.060 C 
HETATM    2  C   UNK N   1      35.629  13.756  13.913  0.00  0.00    -0.043 C 
ENDROOT
BRANCH   1   3
HETATM    3  C   UNK N   1      35.562  12.749  16.250  0.00  0.00     0.018 A 
HETATM    4  C   UNK N   1      35.922  11.445  16.174  0.00  0.00     0.029 A 
HETATM    5  C   UNK N   1      36.002  10.647  17.280  0.00  0.00    -0.032 A 
HETATM    6  C   UNK N   1      36.464   9.236  17.019  0.00  0.00    -0.018 C 
HETATM    7  C   UNK N   1      35.664  11.198  18.544  0.00  0.00     0.007 A 
HETATM    8  C   UNK N   1      36.775   8.465  18.288  0.00  0.00     0.024 C 
HETATM    9  C   UNK N   1      35.383   8.521  16.215  0.00  0.00     0.020 C 
HETATM   10  C   UNK N   1      37.738   9.257  16.177  0.00  0.00     0.020 C 
HETATM   11  C   UNK N   1      35.643   8.603  19.280  0.00  0.00     0.080 C 
HETATM   12  S   UNK N   1      35.759  10.239  20.063  0.00  0.00    -0.129 SA
HETATM   13  C   UNK N   1      35.247  12.546  18.621  0.00  0.00     0.020 A 
HETATM   14  C   UNK N   1      35.205  13.338  17.464  0.00  0.00     0.022 A 
ENDBRANCH   1   3
BRANCH   2  15
HETATM   15  C   UNK N   1      35.595  14.230  12.605  0.00  0.00     0.086 A 
HETATM   16  N   UNK N   1      36.283  15.336  12.175  0.00  0.00    -0.358 N 
HETATM   17  C   UNK N   1      36.231  15.706  10.856  0.00  0.00     0.106 A 
ATOM     18  HN  UNK N   1      36.833  15.883  12.837  1.00  0.00     0.166 HD
HETATM   19  C   UNK N   1      35.478  14.916   9.963  0.00  0.00     0.054 A 
HETATM   20  C   UNK N   1      34.779  13.825  10.449  0.00  0.00     0.022 A 
HETATM   21  C   UNK N   1      34.829  13.487  11.757  0.00  0.00     0.040 A 
BRANCH  19  22
HETATM   22  C   UNK N   1      35.348  15.097   8.523  0.00  0.00     0.294 C 
HETATM   23  O   UNK N   1      35.676  14.238   7.721  0.00  0.00    -0.259 OA
BRANCH  22  24
HETATM   24  O   UNK N   1      34.807  16.275   8.123  0.00  0.00    -0.318 OA
BRANCH  24  25
HETATM   25  C   UNK N   1      33.478  16.513   7.928  0.00  0.00     0.174 C 
HETATM   26  C   UNK N   1      33.252  18.007   8.107  0.00  0.00     0.034 C 
ENDBRANCH  24  25
ENDBRANCH  22  24
ENDBRANCH  19  22
ENDBRANCH   2  15
TORSDOF 5
ENDMDL
MODEL 6
REMARK VINA RESULT:      -6.7      8.522     12.067
REMARK  5 active torsions:
REMARK  status: ('A' for Active; 'I' for Inactive)
REMARK    1  A    between atoms: O_2  and  C_24 
REMARK    2  A    between atoms: O_2  and  C_25 
REMARK    3  A    between atoms: C_15  and  C_17 
REMARK    4  A    between atoms: C_18  and  C_19 
REMARK    5  A    between atoms: C_21  and  C_24 
ROOT
HETATM    1  C   UNK N   1      36.442  13.476  12.285  0.00  0.00    -0.060 C 
HETATM    2  C   UNK N   1      36.036  14.100  11.367  0.00  0.00    -0.043 C 
ENDROOT
BRANCH   1   3
HETATM    3  C   UNK N   1      36.833  12.466  13.149  0.00  0.00     0.018 A 
HETATM    4  C   UNK N   1      35.934  12.260  14.142  0.00  0.00     0.029 A 
HETATM    5  C   UNK N   1      36.043  11.216  15.017  0.00  0.00    -0.032 A 
HETATM    6  C   UNK N   1      34.931  11.112  16.029  0.00  0.00    -0.018 C 
HETATM    7  C   UNK N   1      37.153  10.340  14.896  0.00  0.00     0.007 A 
HETATM    8  C   UNK N   1      34.957   9.812  16.812  0.00  0.00     0.024 C 
HETATM    9  C   UNK N   1      35.034  12.303  16.976  0.00  0.00     0.020 C 
HETATM   10  C   UNK N   1      33.580  11.189  15.322  0.00  0.00     0.020 C 
HETATM   11  C   UNK N   1      36.346   9.544  17.345  0.00  0.00     0.080 C 
HETATM   12  S   UNK N   1      37.375   8.922  15.982  0.00  0.00    -0.129 SA
HETATM   13  C   UNK N   1      38.114  10.575  13.888  0.00  0.00     0.020 A 
HETATM   14  C   UNK N   1      37.950  11.644  12.993  0.00  0.00     0.022 A 
ENDBRANCH   1   3
BRANCH   2  15
HETATM   15  C   UNK N   1      35.575  14.908  10.331  0.00  0.00     0.086 A 
HETATM   16  N   UNK N   1      35.331  14.454   9.060  0.00  0.00    -0.358 N 
HETATM   17  C   UNK N   1      34.833  15.309   8.111  0.00  0.00     0.106 A 
ATOM     18  HN  UNK N   1      35.522  13.482   8.821  1.00  0.00     0.166 HD
HETATM   19  C   UNK N   1      34.560  16.642   8.481  0.00  0.00     0.054 A 
HETATM   20  C   UNK N   1      34.847  17.059   9.769  0.00  0.00     0.022 A 
HETATM   21  C   UNK N   1      35.356  16.206  10.685  0.00  0.00     0.040 A 
BRANCH  19  22
HETATM   22  C   UNK N   1      33.970  17.683   7.649  0.00  0.00     0.294 C 
HETATM   23  O   UNK N   1      34.487  18.066   6.611  0.00  0.00    -0.259 OA
BRANCH  22  24
HETATM   24  O   UNK N   1      32.787  18.185   8.081  0.00  0.00    -0.318 OA
BRANCH  24  25
HETATM   25  C   UNK N   1      31.602  17.510   8.111  0.00  0.00     0.174 C 
HETATM   26  C   UNK N   1      30.626  18.340   8.933  0.00  0.00     0.034 C 
ENDBRANCH  24  25
ENDBRANCH  22  24
ENDBRANCH  19  22
ENDBRANCH   2  15
TORSDOF 5
ENDMDL
MODEL 7
REMARK VINA RESULT:      -6.6      1.338      1.960
REMARK  5 active torsions:
REMARK  status: ('A' for Active; 'I' for Inactive)
REMARK    1  A    between atoms: O_2  and  C_24 
REMARK    2  A    between atoms: O_2  and  C_25 
REMARK    3  A    between atoms: C_15  and  C_17 
REMARK    4  A    between atoms: C_18  and  C_19 
REMARK    5  A    between atoms: C_21  and  C_24 
ROOT
HETATM    1  C   UNK N   1      27.814  16.962   6.038  0.00  0.00    -0.060 C 
HETATM    2  C   UNK N   1      26.696  17.089   5.678  0.00  0.00    -0.043 C 
ENDROOT
BRANCH   1   3
HETATM    3  C   UNK N   1      29.025  17.058   6.704  0.00  0.00     0.018 A 
HETATM    4  C   UNK N   1      30.084  16.860   5.881  0.00  0.00     0.029 A 
HETATM    5  C   UNK N   1      31.371  17.057   6.293  0.00  0.00    -0.032 A 
HETATM    6  C   UNK N   1      32.422  16.837   5.234  0.00  0.00    -0.018 C 
HETATM    7  C   UNK N   1      31.604  17.449   7.637  0.00  0.00     0.007 A 
HETATM    8  C   UNK N   1      33.803  17.301   5.658  0.00  0.00     0.024 C 
HETATM    9  C   UNK N   1      32.445  15.352   4.886  0.00  0.00     0.020 C 
HETATM   10  C   UNK N   1      32.051  17.609   3.970  0.00  0.00     0.020 C 
HETATM   11  C   UNK N   1      34.143  16.765   7.029  0.00  0.00     0.080 C 
HETATM   12  S   UNK N   1      33.260  17.757   8.271  0.00  0.00    -0.129 SA
HETATM   13  C   UNK N   1      30.506  17.615   8.509  0.00  0.00     0.020 A 
HETATM   14  C   UNK N   1      29.197  17.429   8.038  0.00  0.00     0.022 A 
ENDBRANCH   1   3
BRANCH   2  15
HETATM   15  C   UNK N   1      25.395  17.181   5.191  0.00  0.00     0.086 A 
HETATM   16  N   UNK N   1      24.611  18.300   5.314  0.00  0.00    -0.358 N 
HETATM   17  C   UNK N   1      23.356  18.322   4.763  0.00  0.00     0.106 A 
ATOM     18  HN  UNK N   1      24.962  19.115   5.815  1.00  0.00     0.166 HD
HETATM   19  C   UNK N   1      22.909  17.185   4.057  0.00  0.00     0.054 A 
HETATM   20  C   UNK N   1      23.727  16.071   3.983  0.00  0.00     0.022 A 
HETATM   21  C   UNK N   1      24.954  16.063   4.549  0.00  0.00     0.040 A 
BRANCH  19  22
HETATM   22  C   UNK N   1      21.647  17.031   3.347  0.00  0.00     0.294 C 
HETATM   23  O   UNK N   1      21.001  15.995   3.372  0.00  0.00    -0.259 OA
BRANCH  22  24
HETATM   24  O   UNK N   1      21.210  18.125   2.675  0.00  0.00    -0.318 OA
BRANCH  24  25
HETATM   25  C   UNK N   1      20.064  18.816   2.942  0.00  0.00     0.174 C 
HETATM   26  C   UNK N   1      20.468  20.226   3.348  0.00  0.00     0.034 C 
ENDBRANCH  24  25
ENDBRANCH  22  24
ENDBRANCH  19  22
ENDBRANCH   2  15
TORSDOF 5
ENDMDL
MODEL 8
REMARK VINA RESULT:      -6.4      7.019     10.147
REMARK  5 active torsions:
REMARK  status: ('A' for Active; 'I' for Inactive)
REMARK    1  A    between atoms: O_2  and  C_24 
REMARK    2  A    between atoms: O_2  and  C_25 
REMARK    3  A    between atoms: C_15  and  C_17 
REMARK    4  A    between atoms: C_18  and  C_19 
REMARK    5  A    between atoms: C_21  and  C_24 
ROOT
HETATM    1  C   UNK N   1      34.657  14.111  11.043  0.00  0.00    -0.060 C 
HETATM    2  C   UNK N   1      33.956  14.562  10.205  0.00  0.00    -0.043 C 
ENDROOT
BRANCH   1   3
HETATM    3  C   UNK N   1      35.567  13.353  11.762  0.00  0.00     0.018 A 
HETATM    4  C   UNK N   1      35.015  12.794  12.867  0.00  0.00     0.029 A 
HETATM    5  C   UNK N   1      35.688  11.889  13.637  0.00  0.00    -0.032 A 
HETATM    6  C   UNK N   1      34.906  11.333  14.800  0.00  0.00    -0.018 C 
HETATM    7  C   UNK N   1      37.020  11.551  13.284  0.00  0.00     0.007 A 
HETATM    8  C   UNK N   1      35.594  10.161  15.475  0.00  0.00     0.024 C 
HETATM    9  C   UNK N   1      34.674  12.460  15.801  0.00  0.00     0.020 C 
HETATM   10  C   UNK N   1      33.542  10.843  14.319  0.00  0.00     0.020 C 
HETATM   11  C   UNK N   1      37.039  10.493  15.766  0.00  0.00     0.080 C 
HETATM   12  S   UNK N   1      37.984  10.353  14.219  0.00  0.00    -0.129 SA
HETATM   13  C   UNK N   1      37.614  12.164  12.158  0.00  0.00     0.020 A 
HETATM   14  C   UNK N   1      36.878  13.068  11.378  0.00  0.00     0.022 A 
ENDBRANCH   1   3
BRANCH   2  15
HETATM   15  C   UNK N   1      33.103  15.151   9.276  0.00  0.00     0.086 A 
HETATM   16  N   UNK N   1      32.586  16.414   9.409  0.00  0.00    -0.358 N 
HETATM   17  C   UNK N   1      31.790  16.937   8.422  0.00  0.00     0.106 A 
ATOM     18  HN  UNK N   1      32.792  16.965  10.242  1.00  0.00     0.166 HD
HETATM   19  C   UNK N   1      31.542  16.158   7.273  0.00  0.00     0.054 A 
HETATM   20  C   UNK N   1      32.065  14.879   7.197  0.00  0.00     0.022 A 
HETATM   21  C   UNK N   1      32.832  14.375   8.189  0.00  0.00     0.040 A 
BRANCH  19  22
HETATM   22  C   UNK N   1      30.785  16.549   6.091  0.00  0.00     0.294 C 
HETATM   23  O   UNK N   1      29.874  17.360   6.134  0.00  0.00    -0.259 OA
BRANCH  22  24
HETATM   24  O   UNK N   1      31.176  15.978   4.924  0.00  0.00    -0.318 OA
BRANCH  24  25
HETATM   25  C   UNK N   1      31.410  16.641   3.756  0.00  0.00     0.174 C 
HETATM   26  C   UNK N   1      32.722  17.396   3.917  0.00  0.00     0.034 C 
ENDBRANCH  24  25
ENDBRANCH  22  24
ENDBRANCH  19  22
ENDBRANCH   2  15
TORSDOF 5
ENDMDL
MODEL 9
REMARK VINA RESULT:      -6.4      9.149     12.339
REMARK  5 active torsions:
REMARK  status: ('A' for Active; 'I' for Inactive)
REMARK    1  A    between atoms: O_2  and  C_24 
REMARK    2  A    between atoms: O_2  and  C_25 
REMARK    3  A    between atoms: C_15  and  C_17 
REMARK    4  A    between atoms: C_18  and  C_19 
REMARK    5  A    between atoms: C_21  and  C_24 
ROOT
HETATM    1  C   UNK N   1      34.857  15.651   8.944  0.00  0.00    -0.060 C 
HETATM    2  C   UNK N   1      34.942  15.080   9.976  0.00  0.00    -0.043 C 
ENDROOT
BRANCH   1   3
HETATM    3  C   UNK N   1      34.486  16.088   7.682  0.00  0.00     0.018 A 
HETATM    4  C   UNK N   1      34.472  15.084   6.772  0.00  0.00     0.029 A 
HETATM    5  C   UNK N   1      33.993  15.258   5.505  0.00  0.00    -0.032 A 
HETATM    6  C   UNK N   1      34.008  14.023   4.640  0.00  0.00    -0.018 C 
HETATM    7  C   UNK N   1      33.526  16.543   5.124  0.00  0.00     0.007 A 
HETATM    8  C   UNK N   1      33.247  14.197   3.339  0.00  0.00     0.024 C 
HETATM    9  C   UNK N   1      35.461  13.655   4.360  0.00  0.00     0.020 C 
HETATM   10  C   UNK N   1      33.365  12.859   5.390  0.00  0.00     0.020 C 
HETATM   11  C   UNK N   1      33.664  15.476   2.650  0.00  0.00     0.080 C 
HETATM   12  S   UNK N   1      32.854  16.871   3.487  0.00  0.00    -0.129 SA
HETATM   13  C   UNK N   1      33.579  17.603   6.056  0.00  0.00     0.020 A 
HETATM   14  C   UNK N   1      34.053  17.374   7.357  0.00  0.00     0.022 A 
ENDBRANCH   1   3
BRANCH   2  15
HETATM   15  C   UNK N   1      35.110  14.460  11.210  0.00  0.00     0.086 A 
HETATM   16  N   UNK N   1      34.627  13.212  11.509  0.00  0.00    -0.358 N 
HETATM   17  C   UNK N   1      34.878  12.656  12.737  0.00  0.00     0.106 A 
ATOM     18  HN  UNK N   1      34.080  12.698  10.819  1.00  0.00     0.166 HD
HETATM   19  C   UNK N   1      35.655  13.384  13.661  0.00  0.00     0.054 A 
HETATM   20  C   UNK N   1      36.098  14.651  13.323  0.00  0.00     0.022 A 
HETATM   21  C   UNK N   1      35.824  15.189  12.114  0.00  0.00     0.040 A 
BRANCH  19  22
HETATM   22  C   UNK N   1      36.088  12.949  14.982  0.00  0.00     0.294 C 
HETATM   23  O   UNK N   1      37.181  12.443  15.182  0.00  0.00    -0.259 OA
BRANCH  22  24
HETATM   24  O   UNK N   1      35.210  13.167  15.993  0.00  0.00    -0.318 OA
BRANCH  24  25
HETATM   25  C   UNK N   1      35.340  12.706  17.270  0.00  0.00     0.174 C 
HETATM   26  C   UNK N   1      35.235  13.906  18.200  0.00  0.00     0.034 C 
ENDBRANCH  24  25
ENDBRANCH  22  24
ENDBRANCH  19  22
ENDBRANCH   2  15
TORSDOF 5
ENDMDL
