MODEL 1
REMARK VINA RESULT:      -7.0      0.000      0.000
REMARK  8 active torsions:
REMARK  status: ('A' for Active; 'I' for Inactive)
REMARK    1  A    between atoms: C_2  and  C_10 
REMARK    2  A    between atoms: C_17  and  C_4 
REMARK    3  A    between atoms: C_11  and  N_23 
REMARK    4  A    between atoms: C_19  and  C_18 
REMARK       I    between atoms: N_21  and  C_19 
REMARK    5  A    between atoms: N_23  and  S_24 
REMARK    6  A    between atoms: C_29  and  N_23 
REMARK    7  A    between atoms: C_30  and  C_29 
REMARK    8  A    between atoms: O_31  and  C_30 
ROOT
HETATM    1  C   UNK N   1      36.632  12.838  10.389  0.00  0.00    -0.025 A 
HETATM    2  C   UNK N   1      35.398  13.587  10.459  0.00  0.00     0.054 A 
HETATM    3  C   UNK N   1      34.729  13.669  11.700  0.00  0.00     0.069 A 
HETATM    4  C   UNK N   1      37.110  12.173  11.547  0.00  0.00     0.025 A 
HETATM    5  C   UNK N   1      36.392  12.283  12.732  0.00  0.00     0.017 A 
HETATM    6  C   UNK N   1      35.252  13.017  12.797  0.00  0.00     0.089 A 
HETATM    7  O   UNK N   1      34.779  13.023  14.014  0.00  0.00    -0.308 OA
HETATM    8  C   UNK N   1      35.577  12.312  14.790  0.00  0.00     0.103 A 
HETATM    9  C   UNK N   1      36.625  11.777  13.999  0.00  0.00     0.079 A 
ENDROOT
BRANCH   2  10
HETATM   10  N   UNK N   1      34.819  14.260   9.325  0.00  0.00    -0.274 N 
BRANCH  10  11
HETATM   11  S   UNK N   1      33.789  13.379   8.186  0.00  0.00     0.229 S 
HETATM   12  O   UNK N   1      33.920  14.126   6.849  0.00  0.00    -0.206 OA
HETATM   13  C   UNK N   1      34.058  11.596   7.994  0.00  0.00     0.186 C 
HETATM   14  O   UNK N   1      32.350  13.716   8.609  0.00  0.00    -0.206 OA
ENDBRANCH  10  11
BRANCH  10  15
HETATM   15  C   UNK N   1      35.311  15.552   8.908  0.00  0.00     0.167 C 
BRANCH  15  16
HETATM   16  C   UNK N   1      34.432  16.673   9.420  0.00  0.00     0.185 C 
BRANCH  16  17
HETATM   17  O   UNK N   1      34.931  17.105  10.648  0.00  0.00    -0.399 OA
HETATM   18  H   UNK N   1      35.573  16.586  11.156  0.00  0.00     0.209 HD
ENDBRANCH  16  17
ENDBRANCH  15  16
ENDBRANCH  10  15
ENDBRANCH   2  10
BRANCH   1  19
HETATM   19  C   UNK N   1      37.466  12.814   9.123  0.00  0.00     0.021 A 
HETATM   20  C   UNK N   1      38.580  13.850   9.080  0.00  0.00     0.010 A 
HETATM   21  C   UNK N   1      38.895  12.410   9.425  0.00  0.00     0.010 A 
ENDBRANCH   1  19
BRANCH   9  22
HETATM   22  C   UNK N   1      37.760  10.877  14.348  0.00  0.00     0.255 C 
HETATM   23  O   UNK N   1      38.862  11.364  14.577  0.00  0.00    -0.268 OA
HETATM   24  N   UNK N   1      37.613   9.534  14.344  0.00  0.00    -0.361 N 
HETATM   25  C   UNK N   1      38.708   8.640  14.624  0.00  0.00     0.149 C 
HETATM   26  H   UNK N   1      36.728   9.153  14.142  0.00  0.00     0.162 HD
ENDBRANCH   9  22
BRANCH   8  27
HETATM   27  C   UNK N   1      35.355  12.293  16.253  0.00  0.00    -0.001 A 
HETATM   28  C   UNK N   1      35.256  13.519  16.929  0.00  0.00     0.017 A 
HETATM   29  C   UNK N   1      35.201  13.561  18.325  0.00  0.00     0.043 A 
HETATM   30  C   UNK N   1      35.268  12.376  19.059  0.00  0.00     0.116 A 
HETATM   31  C   UNK N   1      35.364  11.150  18.397  0.00  0.00     0.043 A 
HETATM   32  F   UNK N   1      35.252  12.416  20.412  0.00  0.00    -0.206 F 
HETATM   33  C   UNK N   1      35.413  11.113  17.001  0.00  0.00     0.017 A 
ENDBRANCH   8  27
TORSDOF 8
ENDMDL
MODEL 2
REMARK VINA RESULT:      -6.7     13.427     15.505
REMARK  8 active torsions:
REMARK  status: ('A' for Active; 'I' for Inactive)
REMARK    1  A    between atoms: C_2  and  C_10 
REMARK    2  A    between atoms: C_17  and  C_4 
REMARK    3  A    between atoms: C_11  and  N_23 
REMARK    4  A    between atoms: C_19  and  C_18 
REMARK       I    between atoms: N_21  and  C_19 
REMARK    5  A    between atoms: N_23  and  S_24 
REMARK    6  A    between atoms: C_29  and  N_23 
REMARK    7  A    between atoms: C_30  and  C_29 
REMARK    8  A    between atoms: O_31  and  C_30 
ROOT
HETATM    1  C   UNK N   1      22.098  15.350   3.836  0.00  0.00    -0.025 A 
HETATM    2  C   UNK N   1      22.398  16.511   4.644  0.00  0.00     0.054 A 
HETATM    3  C   UNK N   1      22.507  16.349   6.042  0.00  0.00     0.069 A 
HETATM    4  C   UNK N   1      21.877  14.099   4.468  0.00  0.00     0.025 A 
HETATM    5  C   UNK N   1      21.985  14.015   5.852  0.00  0.00     0.017 A 
HETATM    6  C   UNK N   1      22.300  15.104   6.599  0.00  0.00     0.089 A 
HETATM    7  O   UNK N   1      22.398  14.781   7.860  0.00  0.00    -0.308 OA
HETATM    8  C   UNK N   1      22.163  13.489   7.994  0.00  0.00     0.103 A 
HETATM    9  C   UNK N   1      21.852  12.947   6.721  0.00  0.00     0.079 A 
ENDROOT
BRANCH   2  10
HETATM   10  N   UNK N   1      22.597  17.825   4.090  0.00  0.00    -0.274 N 
BRANCH  10  11
HETATM   11  S   UNK N   1      21.212  18.842   3.668  0.00  0.00     0.229 S 
HETATM   12  O   UNK N   1      21.754  19.885   2.676  0.00  0.00    -0.206 OA
HETATM   13  C   UNK N   1      19.715  18.031   3.045  0.00  0.00     0.186 C 
HETATM   14  O   UNK N   1      20.945  19.692   4.921  0.00  0.00    -0.206 OA
ENDBRANCH  10  11
BRANCH  10  15
HETATM   15  C   UNK N   1      23.888  18.215   3.570  0.00  0.00     0.167 C 
BRANCH  15  16
HETATM   16  C   UNK N   1      24.562  19.234   4.464  0.00  0.00     0.185 C 
BRANCH  16  17
HETATM   17  O   UNK N   1      24.386  20.500   3.907  0.00  0.00    -0.399 OA
HETATM   18  H   UNK N   1      24.079  20.626   2.996  0.00  0.00     0.209 HD
ENDBRANCH  16  17
ENDBRANCH  15  16
ENDBRANCH  10  15
ENDBRANCH   2  10
BRANCH   1  19
HETATM   19  C   UNK N   1      22.092  15.427   2.322  0.00  0.00     0.021 A 
HETATM   20  C   UNK N   1      23.187  14.616   1.644  0.00  0.00     0.010 A 
HETATM   21  C   UNK N   1      21.775  14.075   1.714  0.00  0.00     0.010 A 
ENDBRANCH   1  19
BRANCH   9  22
HETATM   22  C   UNK N   1      21.466  11.569   6.305  0.00  0.00     0.255 C 
HETATM   23  O   UNK N   1      20.277  11.289   6.194  0.00  0.00    -0.268 OA
HETATM   24  N   UNK N   1      22.397  10.608   6.122  0.00  0.00    -0.361 N 
HETATM   25  C   UNK N   1      22.047   9.254   5.774  0.00  0.00     0.149 C 
HETATM   26  H   UNK N   1      23.347  10.840   6.231  0.00  0.00     0.162 HD
ENDBRANCH   9  22
BRANCH   8  27
HETATM   27  C   UNK N   1      22.370  12.834   9.305  0.00  0.00    -0.001 A 
HETATM   28  C   UNK N   1      21.266  12.692  10.162  0.00  0.00     0.017 A 
HETATM   29  C   UNK N   1      21.433  12.224  11.467  0.00  0.00     0.043 A 
HETATM   30  C   UNK N   1      22.711  11.915  11.937  0.00  0.00     0.116 A 
HETATM   31  C   UNK N   1      23.815  12.050  11.094  0.00  0.00     0.043 A 
HETATM   32  F   UNK N   1      22.880  11.496  13.214  0.00  0.00    -0.206 F 
HETATM   33  C   UNK N   1      23.643  12.512   9.787  0.00  0.00     0.017 A 
ENDBRANCH   8  27
TORSDOF 8
ENDMDL
MODEL 3
REMARK VINA RESULT:      -6.7      6.003      9.417
REMARK  8 active torsions:
REMARK  status: ('A' for Active; 'I' for Inactive)
REMARK    1  A    between atoms: C_2  and  C_10 
REMARK    2  A    between atoms: C_17  and  C_4 
REMARK    3  A    between atoms: C_11  and  N_23 
REMARK    4  A    between atoms: C_19  and  C_18 
REMARK       I    between atoms: N_21  and  C_19 
REMARK    5  A    between atoms: N_23  and  S_24 
REMARK    6  A    between atoms: C_29  and  N_23 
REMARK    7  A    between atoms: C_30  and  C_29 
REMARK    8  A    between atoms: O_31  and  C_30 
ROOT
HETATM    1  C   UNK N   1      30.210  17.742   7.614  0.00  0.00    -0.025 A 
HETATM    2  C   UNK N   1      29.900  17.126   6.343  0.00  0.00     0.054 A 
HETATM    3  C   UNK N   1      30.876  16.308   5.734  0.00  0.00     0.069 A 
HETATM    4  C   UNK N   1      31.491  17.545   8.189  0.00  0.00     0.025 A 
HETATM    5  C   UNK N   1      32.411  16.739   7.527  0.00  0.00     0.017 A 
HETATM    6  C   UNK N   1      32.098  16.138   6.350  0.00  0.00     0.089 A 
HETATM    7  O   UNK N   1      33.088  15.391   5.941  0.00  0.00    -0.308 OA
HETATM    8  C   UNK N   1      34.072  15.461   6.818  0.00  0.00     0.103 A 
HETATM    9  C   UNK N   1      33.699  16.354   7.853  0.00  0.00     0.079 A 
ENDROOT
BRANCH   2  10
HETATM   10  N   UNK N   1      28.640  17.304   5.668  0.00  0.00    -0.274 N 
BRANCH  10  11
HETATM   11  S   UNK N   1      27.433  16.009   5.659  0.00  0.00     0.229 S 
HETATM   12  O   UNK N   1      26.303  16.506   4.743  0.00  0.00    -0.206 OA
HETATM   13  C   UNK N   1      27.978  14.337   5.217  0.00  0.00     0.186 C 
HETATM   14  O   UNK N   1      26.777  16.068   7.048  0.00  0.00    -0.206 OA
ENDBRANCH  10  11
BRANCH  10  15
HETATM   15  C   UNK N   1      28.458  18.385   4.726  0.00  0.00     0.167 C 
BRANCH  15  16
HETATM   16  C   UNK N   1      27.777  19.574   5.371  0.00  0.00     0.185 C 
BRANCH  16  17
HETATM   17  O   UNK N   1      26.670  19.119   6.086  0.00  0.00    -0.399 OA
HETATM   18  H   UNK N   1      25.863  18.808   5.647  0.00  0.00     0.209 HD
ENDBRANCH  16  17
ENDBRANCH  15  16
ENDBRANCH  10  15
ENDBRANCH   2  10
BRANCH   1  19
HETATM   19  C   UNK N   1      29.165  18.528   8.381  0.00  0.00     0.021 A 
HETATM   20  C   UNK N   1      28.459  17.740   9.475  0.00  0.00     0.010 A 
HETATM   21  C   UNK N   1      29.575  18.699   9.831  0.00  0.00     0.010 A 
ENDBRANCH   1  19
BRANCH   9  22
HETATM   22  C   UNK N   1      34.438  16.831   9.056  0.00  0.00     0.255 C 
HETATM   23  O   UNK N   1      34.980  17.931   9.028  0.00  0.00    -0.268 OA
HETATM   24  N   UNK N   1      34.583  16.045  10.145  0.00  0.00    -0.361 N 
HETATM   25  C   UNK N   1      35.339  16.460  11.299  0.00  0.00     0.149 C 
HETATM   26  H   UNK N   1      34.158  15.157  10.150  0.00  0.00     0.162 HD
ENDBRANCH   9  22
BRANCH   8  27
HETATM   27  C   UNK N   1      35.252  14.578   6.673  0.00  0.00    -0.001 A 
HETATM   28  C   UNK N   1      35.476  13.598   7.653  0.00  0.00     0.017 A 
HETATM   29  C   UNK N   1      36.652  12.843   7.649  0.00  0.00     0.043 A 
HETATM   30  C   UNK N   1      37.626  13.078   6.677  0.00  0.00     0.116 A 
HETATM   31  C   UNK N   1      37.412  14.048   5.696  0.00  0.00     0.043 A 
HETATM   32  F   UNK N   1      38.782  12.373   6.693  0.00  0.00    -0.206 F 
HETATM   33  C   UNK N   1      36.232  14.796   5.700  0.00  0.00     0.017 A 
ENDBRANCH   8  27
TORSDOF 8
ENDMDL
MODEL 4
REMARK VINA RESULT:      -6.7     12.482     16.794
REMARK  8 active torsions:
REMARK  status: ('A' for Active; 'I' for Inactive)
REMARK    1  A    between atoms: C_2  and  C_10 
REMARK    2  A    between atoms: C_17  and  C_4 
REMARK    3  A    between atoms: C_11  and  N_23 
REMARK    4  A    between atoms: C_19  and  C_18 
REMARK       I    between atoms: N_21  and  C_19 
REMARK    5  A    between atoms: N_23  and  S_24 
REMARK    6  A    between atoms: C_29  and  N_23 
REMARK    7  A    between atoms: C_30  and  C_29 
REMARK    8  A    between atoms: O_31  and  C_30 
ROOT
HETATM    1  C   UNK N   1      25.831  18.675   5.262  0.00  0.00    -0.025 A 
HETATM    2  C   UNK N   1      26.215  17.291   5.430  0.00  0.00     0.054 A 
HETATM    3  C   UNK N   1      25.315  16.286   5.014  0.00  0.00     0.069 A 
HETATM    4  C   UNK N   1      24.552  18.983   4.732  0.00  0.00     0.025 A 
HETATM    5  C   UNK N   1      23.709  17.943   4.357  0.00  0.00     0.017 A 
HETATM    6  C   UNK N   1      24.092  16.647   4.487  0.00  0.00     0.089 A 
HETATM    7  O   UNK N   1      23.168  15.848   4.026  0.00  0.00    -0.308 OA
HETATM    8  C   UNK N   1      22.160  16.571   3.575  0.00  0.00     0.103 A 
HETATM    9  C   UNK N   1      22.443  17.941   3.799  0.00  0.00     0.079 A 
ENDROOT
BRANCH   2  10
HETATM   10  N   UNK N   1      27.476  16.887   5.996  0.00  0.00    -0.274 N 
BRANCH  10  11
HETATM   11  S   UNK N   1      28.821  16.410   4.950  0.00  0.00     0.229 S 
HETATM   12  O   UNK N   1      29.352  15.092   5.537  0.00  0.00    -0.206 OA
HETATM   13  C   UNK N   1      28.513  16.282   3.167  0.00  0.00     0.186 C 
HETATM   14  O   UNK N   1      29.953  17.395   5.283  0.00  0.00    -0.206 OA
ENDBRANCH  10  11
BRANCH  10  15
HETATM   15  C   UNK N   1      27.577  16.552   7.398  0.00  0.00     0.167 C 
BRANCH  15  16
HETATM   16  C   UNK N   1      28.227  17.666   8.191  0.00  0.00     0.185 C 
BRANCH  16  17
HETATM   17  O   UNK N   1      27.425  17.956   9.293  0.00  0.00    -0.399 OA
HETATM   18  H   UNK N   1      27.508  17.478  10.132  0.00  0.00     0.209 HD
ENDBRANCH  16  17
ENDBRANCH  15  16
ENDBRANCH  10  15
ENDBRANCH   2  10
BRANCH   1  19
HETATM   19  C   UNK N   1      26.798  19.802   5.569  0.00  0.00     0.021 A 
HETATM   20  C   UNK N   1      27.802  20.091   4.463  0.00  0.00     0.010 A 
HETATM   21  C   UNK N   1      26.581  20.971   4.629  0.00  0.00     0.010 A 
ENDBRANCH   1  19
BRANCH   9  22
HETATM   22  C   UNK N   1      21.642  19.169   3.531  0.00  0.00     0.255 C 
HETATM   23  O   UNK N   1      20.957  19.644   4.430  0.00  0.00    -0.268 OA
HETATM   24  N   UNK N   1      21.600  19.721   2.299  0.00  0.00    -0.361 N 
HETATM   25  C   UNK N   1      20.791  20.875   2.000  0.00  0.00     0.149 C 
HETATM   26  H   UNK N   1      22.141  19.321   1.580  0.00  0.00     0.162 HD
ENDBRANCH   9  22
BRANCH   8  27
HETATM   27  C   UNK N   1      21.049  15.913   2.850  0.00  0.00    -0.001 A 
HETATM   28  C   UNK N   1      20.368  14.862   3.485  0.00  0.00     0.017 A 
HETATM   29  C   UNK N   1      19.418  14.108   2.792  0.00  0.00     0.043 A 
HETATM   30  C   UNK N   1      19.157  14.382   1.449  0.00  0.00     0.116 A 
HETATM   31  C   UNK N   1      19.826  15.425   0.808  0.00  0.00     0.043 A 
HETATM   32  F   UNK N   1      18.264  13.628   0.765  0.00  0.00    -0.206 F 
HETATM   33  C   UNK N   1      20.771  16.182   1.506  0.00  0.00     0.017 A 
ENDBRANCH   8  27
TORSDOF 8
ENDMDL
MODEL 5
REMARK VINA RESULT:      -6.6      7.133     10.741
REMARK  8 active torsions:
REMARK  status: ('A' for Active; 'I' for Inactive)
REMARK    1  A    between atoms: C_2  and  C_10 
REMARK    2  A    between atoms: C_17  and  C_4 
REMARK    3  A    between atoms: C_11  and  N_23 
REMARK    4  A    between atoms: C_19  and  C_18 
REMARK       I    between atoms: N_21  and  C_19 
REMARK    5  A    between atoms: N_23  and  S_24 
REMARK    6  A    between atoms: C_29  and  N_23 
REMARK    7  A    between atoms: C_30  and  C_29 
REMARK    8  A    between atoms: O_31  and  C_30 
ROOT
HETATM    1  C   UNK N   1      29.389  17.899   7.348  0.00  0.00    -0.025 A 
HETATM    2  C   UNK N   1      29.082  17.977   5.937  0.00  0.00     0.054 A 
HETATM    3  C   UNK N   1      30.027  17.480   5.013  0.00  0.00     0.069 A 
HETATM    4  C   UNK N   1      30.638  17.370   7.761  0.00  0.00     0.025 A 
HETATM    5  C   UNK N   1      31.528  16.912   6.796  0.00  0.00     0.017 A 
HETATM    6  C   UNK N   1      31.218  16.959   5.475  0.00  0.00     0.089 A 
HETATM    7  O   UNK N   1      32.174  16.430   4.761  0.00  0.00    -0.308 OA
HETATM    8  C   UNK N   1      33.133  16.013   5.566  0.00  0.00     0.103 A 
HETATM    9  C   UNK N   1      32.781  16.335   6.901  0.00  0.00     0.079 A 
ENDROOT
BRANCH   2  10
HETATM   10  N   UNK N   1      27.856  18.535   5.427  0.00  0.00    -0.274 N 
BRANCH  10  11
HETATM   11  S   UNK N   1      26.494  17.485   5.011  0.00  0.00     0.229 S 
HETATM   12  O   UNK N   1      26.701  17.108   3.535  0.00  0.00    -0.206 OA
HETATM   13  C   UNK N   1      26.193  16.026   6.046  0.00  0.00     0.186 C 
HETATM   14  O   UNK N   1      25.277  18.420   4.942  0.00  0.00    -0.206 OA
ENDBRANCH  10  11
BRANCH  10  15
HETATM   15  C   UNK N   1      27.814  19.896   4.943  0.00  0.00     0.167 C 
BRANCH  15  16
HETATM   16  C   UNK N   1      27.534  20.876   6.062  0.00  0.00     0.185 C 
BRANCH  16  17
HETATM   17  O   UNK N   1      26.314  20.543   6.650  0.00  0.00    -0.399 OA
HETATM   18  H   UNK N   1      26.253  19.949   7.414  0.00  0.00     0.209 HD
ENDBRANCH  16  17
ENDBRANCH  15  16
ENDBRANCH  10  15
ENDBRANCH   2  10
BRANCH   1  19
HETATM   19  C   UNK N   1      28.369  18.298   8.397  0.00  0.00     0.021 A 
HETATM   20  C   UNK N   1      27.834  17.142   9.230  0.00  0.00     0.010 A 
HETATM   21  C   UNK N   1      28.905  18.052   9.793  0.00  0.00     0.010 A 
ENDBRANCH   1  19
BRANCH   9  22
HETATM   22  C   UNK N   1      33.511  16.139   8.186  0.00  0.00     0.255 C 
HETATM   23  O   UNK N   1      33.288  15.134   8.853  0.00  0.00    -0.268 OA
HETATM   24  N   UNK N   1      34.354  17.081   8.661  0.00  0.00    -0.361 N 
HETATM   25  C   UNK N   1      35.029  16.941   9.926  0.00  0.00     0.149 C 
HETATM   26  H   UNK N   1      34.512  17.891   8.125  0.00  0.00     0.162 HD
ENDBRANCH   9  22
BRANCH   8  27
HETATM   27  C   UNK N   1      34.263  15.227   5.021  0.00  0.00    -0.001 A 
HETATM   28  C   UNK N   1      34.081  14.555   3.801  0.00  0.00     0.017 A 
HETATM   29  C   UNK N   1      35.055  13.678   3.319  0.00  0.00     0.043 A 
HETATM   30  C   UNK N   1      36.213  13.448   4.063  0.00  0.00     0.116 A 
HETATM   31  C   UNK N   1      36.407  14.112   5.275  0.00  0.00     0.043 A 
HETATM   32  F   UNK N   1      37.142  12.570   3.616  0.00  0.00    -0.206 F 
HETATM   33  C   UNK N   1      35.432  14.993   5.752  0.00  0.00     0.017 A 
ENDBRANCH   8  27
TORSDOF 8
ENDMDL
MODEL 6
REMARK VINA RESULT:      -6.6      1.037      2.103
REMARK  8 active torsions:
REMARK  status: ('A' for Active; 'I' for Inactive)
REMARK    1  A    between atoms: C_2  and  C_10 
REMARK    2  A    between atoms: C_17  and  C_4 
REMARK    3  A    between atoms: C_11  and  N_23 
REMARK    4  A    between atoms: C_19  and  C_18 
REMARK       I    between atoms: N_21  and  C_19 
REMARK    5  A    between atoms: N_23  and  S_24 
REMARK    6  A    between atoms: C_29  and  N_23 
REMARK    7  A    between atoms: C_30  and  C_29 
REMARK    8  A    between atoms: O_31  and  C_30 
ROOT
HETATM    1  C   UNK N   1      36.828  12.640  10.400  0.00  0.00    -0.025 A 
HETATM    2  C   UNK N   1      35.583  13.376  10.407  0.00  0.00     0.054 A 
HETATM    3  C   UNK N   1      34.875  13.491  11.623  0.00  0.00     0.069 A 
HETATM    4  C   UNK N   1      37.278  12.021  11.594  0.00  0.00     0.025 A 
HETATM    5  C   UNK N   1      36.522  12.162  12.753  0.00  0.00     0.017 A 
HETATM    6  C   UNK N   1      35.372  12.883  12.758  0.00  0.00     0.089 A 
HETATM    7  O   UNK N   1      34.862  12.923  13.959  0.00  0.00    -0.308 OA
HETATM    8  C   UNK N   1      35.644  12.250  14.782  0.00  0.00     0.103 A 
HETATM    9  C   UNK N   1      36.722  11.702  14.042  0.00  0.00     0.079 A 
ENDROOT
BRANCH   2  10
HETATM   10  N   UNK N   1      35.032  14.002   9.233  0.00  0.00    -0.274 N 
BRANCH  10  11
HETATM   11  S   UNK N   1      34.560  15.707   9.261  0.00  0.00     0.229 S 
HETATM   12  O   UNK N   1      33.030  15.709   9.410  0.00  0.00    -0.206 OA
HETATM   13  C   UNK N   1      35.359  16.795  10.472  0.00  0.00     0.186 C 
HETATM   14  O   UNK N   1      34.748  16.195   7.815  0.00  0.00    -0.206 OA
ENDBRANCH  10  11
BRANCH  10  15
HETATM   15  C   UNK N   1      34.553  13.200   8.131  0.00  0.00     0.167 C 
BRANCH  15  16
HETATM   16  C   UNK N   1      33.453  12.256   8.568  0.00  0.00     0.185 C 
BRANCH  16  17
HETATM   17  O   UNK N   1      32.867  11.699   7.432  0.00  0.00    -0.399 OA
HETATM   18  H   UNK N   1      31.934  11.842   7.208  0.00  0.00     0.209 HD
ENDBRANCH  16  17
ENDBRANCH  15  16
ENDBRANCH  10  15
ENDBRANCH   2  10
BRANCH   1  19
HETATM   19  C   UNK N   1      37.700  12.584   9.162  0.00  0.00     0.021 A 
HETATM   20  C   UNK N   1      38.628  13.778   8.988  0.00  0.00     0.010 A 
HETATM   21  C   UNK N   1      39.164  12.473   9.537  0.00  0.00     0.010 A 
ENDBRANCH   1  19
BRANCH   9  22
HETATM   22  C   UNK N   1      37.856  10.828  14.456  0.00  0.00     0.255 C 
HETATM   23  O   UNK N   1      38.963  11.327  14.629  0.00  0.00    -0.268 OA
HETATM   24  N   UNK N   1      37.703   9.492  14.572  0.00  0.00    -0.361 N 
HETATM   25  C   UNK N   1      38.796   8.618  14.917  0.00  0.00     0.149 C 
HETATM   26  H   UNK N   1      36.813   9.100  14.414  0.00  0.00     0.162 HD
ENDBRANCH   9  22
BRANCH   8  27
HETATM   27  C   UNK N   1      35.377  12.277  16.238  0.00  0.00    -0.001 A 
HETATM   28  C   UNK N   1      35.277  13.524  16.875  0.00  0.00     0.017 A 
HETATM   29  C   UNK N   1      35.181  13.608  18.266  0.00  0.00     0.043 A 
HETATM   30  C   UNK N   1      35.206  12.444  19.036  0.00  0.00     0.116 A 
HETATM   31  C   UNK N   1      35.303  11.198  18.414  0.00  0.00     0.043 A 
HETATM   32  F   UNK N   1      35.150  12.524  20.387  0.00  0.00    -0.206 F 
HETATM   33  C   UNK N   1      35.393  11.119  17.022  0.00  0.00     0.017 A 
ENDBRANCH   8  27
TORSDOF 8
ENDMDL
MODEL 7
REMARK VINA RESULT:      -6.5      7.020     11.703
REMARK  8 active torsions:
REMARK  status: ('A' for Active; 'I' for Inactive)
REMARK    1  A    between atoms: C_2  and  C_10 
REMARK    2  A    between atoms: C_17  and  C_4 
REMARK    3  A    between atoms: C_11  and  N_23 
REMARK    4  A    between atoms: C_19  and  C_18 
REMARK       I    between atoms: N_21  and  C_19 
REMARK    5  A    between atoms: N_23  and  S_24 
REMARK    6  A    between atoms: C_29  and  N_23 
REMARK    7  A    between atoms: C_30  and  C_29 
REMARK    8  A    between atoms: O_31  and  C_30 
ROOT
HETATM    1  C   UNK N   1      32.460  16.512   7.850  0.00  0.00    -0.025 A 
HETATM    2  C   UNK N   1      32.749  15.140   7.497  0.00  0.00     0.054 A 
HETATM    3  C   UNK N   1      31.867  14.467   6.623  0.00  0.00     0.069 A 
HETATM    4  C   UNK N   1      31.283  17.126   7.349  0.00  0.00     0.025 A 
HETATM    5  C   UNK N   1      30.450  16.400   6.505  0.00  0.00     0.017 A 
HETATM    6  C   UNK N   1      30.748  15.123   6.153  0.00  0.00     0.089 A 
HETATM    7  O   UNK N   1      29.859  14.660   5.316  0.00  0.00    -0.308 OA
HETATM    8  C   UNK N   1      28.959  15.596   5.081  0.00  0.00     0.103 A 
HETATM    9  C   UNK N   1      29.275  16.739   5.858  0.00  0.00     0.079 A 
ENDROOT
BRANCH   2  10
HETATM   10  N   UNK N   1      33.899  14.425   7.991  0.00  0.00    -0.274 N 
BRANCH  10  11
HETATM   11  S   UNK N   1      35.322  14.192   6.965  0.00  0.00     0.229 S 
HETATM   12  O   UNK N   1      35.385  15.434   6.060  0.00  0.00    -0.206 OA
HETATM   13  C   UNK N   1      36.911  13.861   7.772  0.00  0.00     0.186 C 
HETATM   14  O   UNK N   1      34.921  13.087   5.974  0.00  0.00    -0.206 OA
ENDBRANCH  10  11
BRANCH  10  15
HETATM   15  C   UNK N   1      33.803  13.616   9.183  0.00  0.00     0.167 C 
BRANCH  15  16
HETATM   16  C   UNK N   1      34.351  14.343  10.393  0.00  0.00     0.185 C 
BRANCH  16  17
HETATM   17  O   UNK N   1      33.282  14.842  11.135  0.00  0.00    -0.399 OA
HETATM   18  H   UNK N   1      33.193  14.681  12.087  0.00  0.00     0.209 HD
ENDBRANCH  16  17
ENDBRANCH  15  16
ENDBRANCH  10  15
ENDBRANCH   2  10
BRANCH   1  19
HETATM   19  C   UNK N   1      33.429  17.331   8.679  0.00  0.00     0.021 A 
HETATM   20  C   UNK N   1      34.512  18.035   7.874  0.00  0.00     0.010 A 
HETATM   21  C   UNK N   1      33.302  18.806   8.357  0.00  0.00     0.010 A 
ENDBRANCH   1  19
BRANCH   9  22
HETATM   22  C   UNK N   1      28.580  18.048   6.012  0.00  0.00     0.255 C 
HETATM   23  O   UNK N   1      28.030  18.311   7.076  0.00  0.00    -0.268 OA
HETATM   24  N   UNK N   1      28.483  18.913   4.980  0.00  0.00    -0.361 N 
HETATM   25  C   UNK N   1      27.769  20.160   5.085  0.00  0.00     0.149 C 
HETATM   26  H   UNK N   1      28.914  18.683   4.125  0.00  0.00     0.162 HD
ENDBRANCH   9  22
BRANCH   8  27
HETATM   27  C   UNK N   1      27.929  15.382   4.040  0.00  0.00    -0.001 A 
HETATM   28  C   UNK N   1      28.338  14.907   2.784  0.00  0.00     0.017 A 
HETATM   29  C   UNK N   1      27.435  14.834   1.721  0.00  0.00     0.043 A 
HETATM   30  C   UNK N   1      26.117  15.257   1.898  0.00  0.00     0.116 A 
HETATM   31  C   UNK N   1      25.698  15.729   3.143  0.00  0.00     0.043 A 
HETATM   32  F   UNK N   1      25.249  15.222   0.859  0.00  0.00    -0.206 F 
HETATM   33  C   UNK N   1      26.603  15.795   4.206  0.00  0.00     0.017 A 
ENDBRANCH   8  27
TORSDOF 8
ENDMDL
MODEL 8
REMARK VINA RESULT:      -6.5      2.362      3.314
REMARK  8 active torsions:
REMARK  status: ('A' for Active; 'I' for Inactive)
REMARK    1  A    between atoms: C_2  and  C_10 
REMARK    2  A    between atoms: C_17  and  C_4 
REMARK    3  A    between atoms: C_11  and  N_23 
REMARK    4  A    between atoms: C_19  and  C_18 
REMARK       I    between atoms: N_21  and  C_19 
REMARK    5  A    between atoms: N_23  and  S_24 
REMARK    6  A    between atoms: C_29  and  N_23 
REMARK    7  A    between atoms: C_30  and  C_29 
REMARK    8  A    between atoms: O_31  and  C_30 
ROOT
HETATM    1  C   UNK N   1      35.344  14.530   7.857  0.00  0.00    -0.025 A 
HETATM    2  C   UNK N   1      34.200  15.298   8.295  0.00  0.00     0.054 A 
HETATM    3  C   UNK N   1      33.783  15.180   9.638  0.00  0.00     0.069 A 
HETATM    4  C   UNK N   1      35.983  13.652   8.769  0.00  0.00     0.025 A 
HETATM    5  C   UNK N   1      35.510  13.573  10.074  0.00  0.00     0.017 A 
HETATM    6  C   UNK N   1      34.456  14.324  10.485  0.00  0.00     0.089 A 
HETATM    7  O   UNK N   1      34.222  14.128  11.754  0.00  0.00    -0.308 OA
HETATM    8  C   UNK N   1      35.100  13.263  12.226  0.00  0.00     0.103 A 
HETATM    9  C   UNK N   1      35.940  12.841  11.166  0.00  0.00     0.079 A 
ENDROOT
BRANCH   2  10
HETATM   10  N   UNK N   1      33.466  16.183   7.426  0.00  0.00    -0.274 N 
BRANCH  10  11
HETATM   11  S   UNK N   1      32.078  15.590   6.502  0.00  0.00     0.229 S 
HETATM   12  O   UNK N   1      31.902  14.121   6.921  0.00  0.00    -0.206 OA
HETATM   13  C   UNK N   1      30.523  16.516   6.609  0.00  0.00     0.186 C 
HETATM   14  O   UNK N   1      32.589  15.458   5.059  0.00  0.00    -0.206 OA
ENDBRANCH  10  11
BRANCH  10  15
HETATM   15  C   UNK N   1      34.023  17.459   7.039  0.00  0.00     0.167 C 
BRANCH  15  16
HETATM   16  C   UNK N   1      33.852  18.493   8.132  0.00  0.00     0.185 C 
BRANCH  16  17
HETATM   17  O   UNK N   1      35.076  19.127   8.341  0.00  0.00    -0.399 OA
HETATM   18  H   UNK N   1      35.531  19.616   7.638  0.00  0.00     0.209 HD
ENDBRANCH  16  17
ENDBRANCH  15  16
ENDBRANCH  10  15
ENDBRANCH   2  10
BRANCH   1  19
HETATM   19  C   UNK N   1      35.921  14.704   6.466  0.00  0.00     0.021 A 
HETATM   20  C   UNK N   1      36.958  13.660   6.077  0.00  0.00     0.010 A 
HETATM   21  C   UNK N   1      35.535  13.543   5.572  0.00  0.00     0.010 A 
ENDBRANCH   1  19
BRANCH   9  22
HETATM   22  C   UNK N   1      37.056  11.853  11.127  0.00  0.00     0.255 C 
HETATM   23  O   UNK N   1      38.212  12.258  11.085  0.00  0.00    -0.268 OA
HETATM   24  N   UNK N   1      36.812  10.526  11.064  0.00  0.00    -0.361 N 
HETATM   25  C   UNK N   1      37.870   9.553  10.970  0.00  0.00     0.149 C 
HETATM   26  H   UNK N   1      35.878  10.213  11.081  0.00  0.00     0.162 HD
ENDBRANCH   9  22
BRANCH   8  27
HETATM   27  C   UNK N   1      35.156  12.989  13.680  0.00  0.00    -0.001 A 
HETATM   28  C   UNK N   1      36.068  13.716  14.461  0.00  0.00     0.017 A 
HETATM   29  C   UNK N   1      36.271  13.393  15.805  0.00  0.00     0.043 A 
HETATM   30  C   UNK N   1      35.579  12.323  16.375  0.00  0.00     0.116 A 
HETATM   31  C   UNK N   1      34.668  11.594  15.609  0.00  0.00     0.043 A 
HETATM   32  F   UNK N   1      35.802  11.984  17.667  0.00  0.00    -0.206 F 
HETATM   33  C   UNK N   1      34.463  11.925  14.266  0.00  0.00     0.017 A 
ENDBRANCH   8  27
TORSDOF 8
ENDMDL
MODEL 9
REMARK VINA RESULT:      -6.4      7.542     11.465
REMARK  8 active torsions:
REMARK  status: ('A' for Active; 'I' for Inactive)
REMARK    1  A    between atoms: C_2  and  C_10 
REMARK    2  A    between atoms: C_17  and  C_4 
REMARK    3  A    between atoms: C_11  and  N_23 
REMARK    4  A    between atoms: C_19  and  C_18 
REMARK       I    between atoms: N_21  and  C_19 
REMARK    5  A    between atoms: N_23  and  S_24 
REMARK    6  A    between atoms: C_29  and  N_23 
REMARK    7  A    between atoms: C_30  and  C_29 
REMARK    8  A    between atoms: O_31  and  C_30 
ROOT
HETATM    1  C   UNK N   1      29.327  17.899   7.087  0.00  0.00    -0.025 A 
HETATM    2  C   UNK N   1      28.670  17.574   5.840  0.00  0.00     0.054 A 
HETATM    3  C   UNK N   1      29.423  16.946   4.824  0.00  0.00     0.069 A 
HETATM    4  C   UNK N   1      30.710  17.622   7.237  0.00  0.00     0.025 A 
HETATM    5  C   UNK N   1      31.394  17.016   6.190  0.00  0.00     0.017 A 
HETATM    6  C   UNK N   1      30.761  16.684   5.036  0.00  0.00     0.089 A 
HETATM    7  O   UNK N   1      31.583  16.082   4.220  0.00  0.00    -0.308 OA
HETATM    8  C   UNK N   1      32.768  15.987   4.793  0.00  0.00     0.103 A 
HETATM    9  C   UNK N   1      32.711  16.612   6.064  0.00  0.00     0.079 A 
ENDROOT
BRANCH   2  10
HETATM   10  N   UNK N   1      27.280  17.856   5.586  0.00  0.00    -0.274 N 
BRANCH  10  11
HETATM   11  S   UNK N   1      26.767  19.476   5.092  0.00  0.00     0.229 S 
HETATM   12  O   UNK N   1      25.247  19.380   4.878  0.00  0.00    -0.206 OA
HETATM   13  C   UNK N   1      27.213  20.875   6.157  0.00  0.00     0.186 C 
HETATM   14  O   UNK N   1      27.289  19.639   3.656  0.00  0.00    -0.206 OA
ENDBRANCH  10  11
BRANCH  10  15
HETATM   15  C   UNK N   1      26.253  16.943   6.030  0.00  0.00     0.167 C 
BRANCH  15  16
HETATM   16  C   UNK N   1      25.817  16.013   4.917  0.00  0.00     0.185 C 
BRANCH  16  17
HETATM   17  O   UNK N   1      24.598  16.464   4.412  0.00  0.00    -0.399 OA
HETATM   18  H   UNK N   1      23.885  16.781   4.989  0.00  0.00     0.209 HD
ENDBRANCH  16  17
ENDBRANCH  15  16
ENDBRANCH  10  15
ENDBRANCH   2  10
BRANCH   1  19
HETATM   19  C   UNK N   1      28.549  18.457   8.262  0.00  0.00     0.021 A 
HETATM   20  C   UNK N   1      28.156  17.423   9.308  0.00  0.00     0.010 A 
HETATM   21  C   UNK N   1      29.346  18.330   9.546  0.00  0.00     0.010 A 
ENDBRANCH   1  19
BRANCH   9  22
HETATM   22  C   UNK N   1      33.760  16.832   7.100  0.00  0.00     0.255 C 
HETATM   23  O   UNK N   1      34.572  17.737   6.946  0.00  0.00    -0.268 OA
HETATM   24  N   UNK N   1      33.874  16.009   8.164  0.00  0.00    -0.361 N 
HETATM   25  C   UNK N   1      34.912  16.166   9.151  0.00  0.00     0.149 C 
HETATM   26  H   UNK N   1      33.226  15.275   8.269  0.00  0.00     0.162 HD
ENDBRANCH   9  22
BRANCH   8  27
HETATM   27  C   UNK N   1      33.839  15.200   4.143  0.00  0.00    -0.001 A 
HETATM   28  C   UNK N   1      33.774  15.004   2.754  0.00  0.00     0.017 A 
HETATM   29  C   UNK N   1      34.670  14.145   2.113  0.00  0.00     0.043 A 
HETATM   30  C   UNK N   1      35.627  13.455   2.859  0.00  0.00     0.116 A 
HETATM   31  C   UNK N   1      35.703  13.644   4.240  0.00  0.00     0.043 A 
HETATM   32  F   UNK N   1      36.472  12.593   2.245  0.00  0.00    -0.206 F 
HETATM   33  C   UNK N   1      34.809  14.509   4.876  0.00  0.00     0.017 A 
ENDBRANCH   8  27
TORSDOF 8
ENDMDL
