REMARK  8 active torsions:
REMARK  status: ('A' for Active; 'I' for Inactive)
REMARK    1  A    between atoms: C_2  and  C_10 
REMARK    2  A    between atoms: C_17  and  C_4 
REMARK    3  A    between atoms: C_11  and  N_23 
REMARK    4  A    between atoms: C_19  and  C_18 
REMARK       I    between atoms: N_21  and  C_19 
REMARK    5  A    between atoms: N_23  and  S_24 
REMARK    6  A    between atoms: C_29  and  N_23 
REMARK    7  A    between atoms: C_30  and  C_29 
REMARK    8  A    between atoms: O_31  and  C_30 
ROOT
HETATM    1  C   UNK N   1       2.140   0.547  -0.152  0.00  0.00    -0.025 A 
HETATM    2  C   UNK N   1       2.067  -0.892  -0.028  0.00  0.00     0.054 A 
HETATM    3  C   UNK N   1       0.797  -1.494   0.105  0.00  0.00     0.069 A 
HETATM    4  C   UNK N   1       0.947   1.312  -0.092  0.00  0.00     0.025 A 
HETATM    5  C   UNK N   1      -0.269   0.655   0.056  0.00  0.00     0.017 A 
HETATM    6  C   UNK N   1      -0.330  -0.699   0.138  0.00  0.00     0.089 A 
HETATM    7  O   UNK N   1      -1.571  -1.097   0.219  0.00  0.00    -0.308 OA
HETATM    8  C   UNK N   1      -2.365  -0.043   0.187  0.00  0.00     0.103 A 
HETATM    9  C   UNK N   1      -1.568   1.127   0.118  0.00  0.00     0.079 A 
ENDROOT
BRANCH   2  10
HETATM   10  N   UNK N   1       3.229  -1.743  -0.038  0.00  0.00    -0.274 N 
BRANCH  10  11
HETATM   11  S   UNK N   1       3.055  -3.502  -0.125  0.00  0.00     0.229 S 
HETATM   12  O   UNK N   1       1.994  -3.758  -1.208  0.00  0.00    -0.206 OA
HETATM   13  C   UNK N   1       4.548  -4.496  -0.392  0.00  0.00     0.186 C 
HETATM   14  O   UNK N   1       2.309  -3.892   1.161  0.00  0.00    -0.206 OA
ENDBRANCH  10  11
BRANCH  10  15
HETATM   15  C   UNK N   1       4.522  -1.224   0.344  0.00  0.00     0.167 C 
BRANCH  15  16
HETATM   16  C   UNK N   1       5.471  -1.175  -0.835  0.00  0.00     0.185 C 
BRANCH  16  17
HETATM   17  O   UNK N   1       6.582  -0.411  -0.481  0.00  0.00    -0.399 OA
HETATM   18  H   UNK N   1       7.429  -0.814  -0.235  0.00  0.00     0.209 HD
ENDBRANCH  16  17
ENDBRANCH  15  16
ENDBRANCH  10  15
ENDBRANCH   2  10
BRANCH   1  19
HETATM   19  C   UNK N   1       3.457   1.246  -0.424  0.00  0.00     0.021 A 
HETATM   20  C   UNK N   1       3.341   2.746  -0.653  0.00  0.00     0.010 A 
HETATM   21  C   UNK N   1       3.794   2.216   0.691  0.00  0.00     0.010 A 
ENDBRANCH   1  19
BRANCH   9  22
HETATM   22  C   UNK N   1      -1.938   2.571   0.105  0.00  0.00     0.255 C 
HETATM   23  O   UNK N   1      -1.063   3.411  -0.074  0.00  0.00    -0.268 OA
HETATM   24  N   UNK N   1      -3.203   2.970   0.359  0.00  0.00    -0.361 N 
HETATM   25  C   UNK N   1      -3.576   4.361   0.407  0.00  0.00     0.149 C 
HETATM   26  H   UNK N   1      -3.894   2.287   0.518  0.00  0.00     0.162 HD
ENDBRANCH   9  22
BRANCH   8  27
HETATM   27  C   UNK N   1      -3.831  -0.228   0.101  0.00  0.00    -0.001 A 
HETATM   28  C   UNK N   1      -4.350  -1.524   0.251  0.00  0.00     0.017 A 
HETATM   29  C   UNK N   1      -5.705  -1.779   0.027  0.00  0.00     0.043 A 
HETATM   30  C   UNK N   1      -6.551  -0.743  -0.372  0.00  0.00     0.116 A 
HETATM   31  C   UNK N   1      -6.047   0.550  -0.522  0.00  0.00     0.043 A 
HETATM   32  F   UNK N   1      -7.857  -0.995  -0.626  0.00  0.00    -0.206 F 
HETATM   33  C   UNK N   1      -4.692   0.802  -0.291  0.00  0.00     0.017 A 
ENDBRANCH   8  27
TORSDOF 8
