MODEL 1
REMARK VINA RESULT:      -6.1      0.000      0.000
REMARK  5 active torsions:
REMARK  status: ('A' for Active; 'I' for Inactive)
REMARK    1  A    between atoms: N_4  and  C_9 
REMARK    2  A    between atoms: C_9  and  C_10 
REMARK    3  A    between atoms: C_10  and  C_11 
REMARK    4  A    between atoms: C_11  and  C_16 
REMARK    5  A    between atoms: C_16  and  C_20 
ROOT
HETATM    1  O   UNK N   1      28.267  19.341   8.067  0.00  0.00    -0.265 OA
HETATM    2  O   UNK N   1      30.256  15.981   5.747  0.00  0.00    -0.246 OA
HETATM    3  N   UNK N   1      29.294  17.621   7.000  0.00  0.00    -0.264 N 
HETATM    4  N   UNK N   1      28.942  17.416   4.618  0.00  0.00    -0.287 N 
HETATM    5  N   UNK N   1      27.140  20.235   5.565  0.00  0.00    -0.340 N 
HETATM    6  N   UNK N   1      27.536  19.131   3.655  0.00  0.00    -0.336 N 
ATOM      7  HN  UNK N   1      27.532  18.858   2.672  1.00  0.00     0.168 HD
HETATM    8  C   UNK N   1      27.925  19.180   5.830  0.00  0.00     0.149 A 
HETATM    9  C   UNK N   1      28.478  18.742   7.026  0.00  0.00     0.282 A 
HETATM   10  C   UNK N   1      28.162  18.522   4.679  0.00  0.00     0.145 A 
HETATM   11  C   UNK N   1      29.528  16.960   5.786  0.00  0.00     0.332 A 
HETATM   12  C   UNK N   1      26.911  20.193   4.230  0.00  0.00     0.184 A 
HETATM   13  C   UNK N   1      29.169  16.742   3.346  0.00  0.00     0.163 C 
HETATM   14  C   UNK N   1      26.641  21.238   6.489  0.00  0.00     0.157 C 
ENDROOT
BRANCH   3  15
HETATM   15  C   UNK N   1      29.943  17.200   8.250  0.00  0.00     0.137 C 
BRANCH  15  16
HETATM   16  C   UNK N   1      31.198  17.992   8.570  0.00  0.00     0.021 C 
BRANCH  16  17
HETATM   17  C   UNK N   1      32.370  17.130   8.140  0.00  0.00     0.009 C 
BRANCH  17  18
HETATM   18  C   UNK N   1      33.456  17.973   7.512  0.00  0.00     0.078 C 
BRANCH  18  19
HETATM   19  C   UNK N   1      34.573  18.134   8.482  0.00  0.00     0.123 C 
HETATM   20  O   UNK N   1      35.246  19.152   8.477  0.00  0.00    -0.298 OA
HETATM   21  C   UNK N   1      34.875  17.048   9.453  0.00  0.00     0.091 C 
ENDBRANCH  18  19
ENDBRANCH  17  18
ENDBRANCH  16  17
ENDBRANCH  15  16
ENDBRANCH   3  15
TORSDOF 5
ENDMDL
MODEL 2
REMARK VINA RESULT:      -5.9      2.399      7.047
REMARK  5 active torsions:
REMARK  status: ('A' for Active; 'I' for Inactive)
REMARK    1  A    between atoms: N_4  and  C_9 
REMARK    2  A    between atoms: C_9  and  C_10 
REMARK    3  A    between atoms: C_10  and  C_11 
REMARK    4  A    between atoms: C_11  and  C_16 
REMARK    5  A    between atoms: C_16  and  C_20 
ROOT
HETATM    1  O   UNK N   1      30.009  16.779   4.813  0.00  0.00    -0.265 OA
HETATM    2  O   UNK N   1      27.820  19.197   7.974  0.00  0.00    -0.246 OA
HETATM    3  N   UNK N   1      28.833  17.998   6.325  0.00  0.00    -0.264 N 
HETATM    4  N   UNK N   1      29.749  18.196   8.553  0.00  0.00    -0.287 N 
HETATM    5  N   UNK N   1      32.044  16.266   6.794  0.00  0.00    -0.340 N 
HETATM    6  N   UNK N   1      31.864  17.071   8.877  0.00  0.00    -0.336 N 
ATOM      7  HN  UNK N   1      32.058  17.288   9.855  1.00  0.00     0.168 HD
HETATM    8  C   UNK N   1      30.897  16.955   6.893  0.00  0.00     0.149 A 
HETATM    9  C   UNK N   1      29.913  17.214   5.949  0.00  0.00     0.282 A 
HETATM   10  C   UNK N   1      30.795  17.439   8.146  0.00  0.00     0.145 A 
HETATM   11  C   UNK N   1      28.757  18.494   7.634  0.00  0.00     0.332 A 
HETATM   12  C   UNK N   1      32.626  16.347   8.015  0.00  0.00     0.184 A 
HETATM   13  C   UNK N   1      29.687  18.698   9.919  0.00  0.00     0.163 C 
HETATM   14  C   UNK N   1      32.584  15.583   5.631  0.00  0.00     0.157 C 
ENDROOT
BRANCH   3  15
HETATM   15  C   UNK N   1      27.829  18.339   5.307  0.00  0.00     0.137 C 
BRANCH  15  16
HETATM   16  C   UNK N   1      28.075  19.685   4.650  0.00  0.00     0.021 C 
BRANCH  16  17
HETATM   17  C   UNK N   1      26.728  20.378   4.576  0.00  0.00     0.009 C 
BRANCH  17  18
HETATM   18  C   UNK N   1      26.307  20.584   3.138  0.00  0.00     0.078 C 
BRANCH  18  19
HETATM   19  C   UNK N   1      24.849  20.311   3.011  0.00  0.00     0.123 C 
HETATM   20  O   UNK N   1      24.178  20.935   2.207  0.00  0.00    -0.298 OA
HETATM   21  C   UNK N   1      24.210  19.280   3.873  0.00  0.00     0.091 C 
ENDBRANCH  18  19
ENDBRANCH  17  18
ENDBRANCH  16  17
ENDBRANCH  15  16
ENDBRANCH   3  15
TORSDOF 5
ENDMDL
MODEL 3
REMARK VINA RESULT:      -5.9      5.201      7.627
REMARK  5 active torsions:
REMARK  status: ('A' for Active; 'I' for Inactive)
REMARK    1  A    between atoms: N_4  and  C_9 
REMARK    2  A    between atoms: C_9  and  C_10 
REMARK    3  A    between atoms: C_10  and  C_11 
REMARK    4  A    between atoms: C_11  and  C_16 
REMARK    5  A    between atoms: C_16  and  C_20 
ROOT
HETATM    1  O   UNK N   1      23.669  17.340   4.906  0.00  0.00    -0.265 OA
HETATM    2  O   UNK N   1      23.134  21.284   2.718  0.00  0.00    -0.246 OA
HETATM    3  N   UNK N   1      23.503  19.335   3.834  0.00  0.00    -0.264 N 
HETATM    4  N   UNK N   1      21.464  19.781   2.616  0.00  0.00    -0.287 N 
HETATM    5  N   UNK N   1      21.019  16.628   4.010  0.00  0.00    -0.340 N 
HETATM    6  N   UNK N   1      19.816  18.016   2.727  0.00  0.00    -0.336 N 
ATOM      7  HN  UNK N   1      19.061  18.412   2.166  1.00  0.00     0.168 HD
HETATM    8  C   UNK N   1      21.740  17.735   3.777  0.00  0.00     0.149 A 
HETATM    9  C   UNK N   1      23.012  18.092   4.205  0.00  0.00     0.282 A 
HETATM   10  C   UNK N   1      21.012  18.567   3.008  0.00  0.00     0.145 A 
HETATM   11  C   UNK N   1      22.720  20.183   3.038  0.00  0.00     0.332 A 
HETATM   12  C   UNK N   1      19.843  16.815   3.363  0.00  0.00     0.184 A 
HETATM   13  C   UNK N   1      20.636  20.646   1.785  0.00  0.00     0.163 C 
HETATM   14  C   UNK N   1      21.386  15.467   4.802  0.00  0.00     0.157 C 
ENDROOT
BRANCH   3  15
HETATM   15  C   UNK N   1      24.816  19.749   4.350  0.00  0.00     0.137 C 
BRANCH  15  16
HETATM   16  C   UNK N   1      25.967  19.359   3.440  0.00  0.00     0.021 C 
BRANCH  16  17
HETATM   17  C   UNK N   1      27.159  20.188   3.879  0.00  0.00     0.009 C 
BRANCH  17  18
HETATM   18  C   UNK N   1      27.957  19.464   4.940  0.00  0.00     0.078 C 
BRANCH  18  19
HETATM   19  C   UNK N   1      27.729  20.120   6.256  0.00  0.00     0.123 C 
HETATM   20  O   UNK N   1      27.832  19.475   7.287  0.00  0.00    -0.298 OA
HETATM   21  C   UNK N   1      27.367  21.562   6.314  0.00  0.00     0.091 C 
ENDBRANCH  18  19
ENDBRANCH  17  18
ENDBRANCH  16  17
ENDBRANCH  15  16
ENDBRANCH   3  15
TORSDOF 5
ENDMDL
MODEL 4
REMARK VINA RESULT:      -5.8      1.810      3.085
REMARK  5 active torsions:
REMARK  status: ('A' for Active; 'I' for Inactive)
REMARK    1  A    between atoms: N_4  and  C_9 
REMARK    2  A    between atoms: C_9  and  C_10 
REMARK    3  A    between atoms: C_10  and  C_11 
REMARK    4  A    between atoms: C_11  and  C_16 
REMARK    5  A    between atoms: C_16  and  C_20 
ROOT
HETATM    1  O   UNK N   1      28.131  18.241   3.920  0.00  0.00    -0.265 OA
HETATM    2  O   UNK N   1      30.255  16.733   7.640  0.00  0.00    -0.246 OA
HETATM    3  N   UNK N   1      29.253  17.426   5.717  0.00  0.00    -0.264 N 
HETATM    4  N   UNK N   1      28.791  18.426   7.868  0.00  0.00    -0.287 N 
HETATM    5  N   UNK N   1      26.733  20.104   5.625  0.00  0.00    -0.340 N 
HETATM    6  N   UNK N   1      27.131  20.183   7.829  0.00  0.00    -0.336 N 
ATOM      7  HN  UNK N   1      27.094  20.445   8.814  1.00  0.00     0.168 HD
HETATM    8  C   UNK N   1      27.670  19.193   5.927  0.00  0.00     0.149 A 
HETATM    9  C   UNK N   1      28.346  18.288   5.120  0.00  0.00     0.282 A 
HETATM   10  C   UNK N   1      27.904  19.242   7.252  0.00  0.00     0.145 A 
HETATM   11  C   UNK N   1      29.470  17.496   7.100  0.00  0.00     0.332 A 
HETATM   12  C   UNK N   1      26.412  20.701   6.798  0.00  0.00     0.184 A 
HETATM   13  C   UNK N   1      29.006  18.518   9.307  0.00  0.00     0.163 C 
HETATM   14  C   UNK N   1      26.152  20.398   4.326  0.00  0.00     0.157 C 
ENDROOT
BRANCH   3  15
HETATM   15  C   UNK N   1      29.912  16.415   4.878  0.00  0.00     0.137 C 
BRANCH  15  16
HETATM   16  C   UNK N   1      31.116  16.952   4.126  0.00  0.00     0.021 C 
BRANCH  16  17
HETATM   17  C   UNK N   1      32.342  16.464   4.875  0.00  0.00     0.009 C 
BRANCH  17  18
HETATM   18  C   UNK N   1      33.265  17.616   5.202  0.00  0.00     0.078 C 
BRANCH  18  19
HETATM   19  C   UNK N   1      33.943  17.346   6.500  0.00  0.00     0.123 C 
HETATM   20  O   UNK N   1      34.833  16.516   6.563  0.00  0.00    -0.298 OA
HETATM   21  C   UNK N   1      33.525  18.086   7.722  0.00  0.00     0.091 C 
ENDBRANCH  18  19
ENDBRANCH  17  18
ENDBRANCH  16  17
ENDBRANCH  15  16
ENDBRANCH   3  15
TORSDOF 5
ENDMDL
MODEL 5
REMARK VINA RESULT:      -5.7      4.703      6.833
REMARK  5 active torsions:
REMARK  status: ('A' for Active; 'I' for Inactive)
REMARK    1  A    between atoms: N_4  and  C_9 
REMARK    2  A    between atoms: C_9  and  C_10 
REMARK    3  A    between atoms: C_10  and  C_11 
REMARK    4  A    between atoms: C_11  and  C_16 
REMARK    5  A    between atoms: C_16  and  C_20 
ROOT
HETATM    1  O   UNK N   1      23.231  21.210   2.858  0.00  0.00    -0.265 OA
HETATM    2  O   UNK N   1      24.799  17.634   5.177  0.00  0.00    -0.246 OA
HETATM    3  N   UNK N   1      24.094  19.483   4.052  0.00  0.00    -0.264 N 
HETATM    4  N   UNK N   1      22.797  17.448   4.167  0.00  0.00    -0.287 N 
HETATM    5  N   UNK N   1      20.927  19.606   2.186  0.00  0.00    -0.340 N 
HETATM    6  N   UNK N   1      20.716  17.507   2.939  0.00  0.00    -0.336 N 
ATOM      7  HN  UNK N   1      20.351  16.570   3.118  1.00  0.00     0.168 HD
HETATM    8  C   UNK N   1      21.995  19.309   2.941  0.00  0.00     0.149 A 
HETATM    9  C   UNK N   1      23.111  20.068   3.268  0.00  0.00     0.282 A 
HETATM   10  C   UNK N   1      21.865  18.046   3.389  0.00  0.00     0.145 A 
HETATM   11  C   UNK N   1      23.934  18.164   4.498  0.00  0.00     0.332 A 
HETATM   12  C   UNK N   1      20.154  18.494   2.192  0.00  0.00     0.184 A 
HETATM   13  C   UNK N   1      22.610  16.076   4.624  0.00  0.00     0.163 C 
HETATM   14  C   UNK N   1      20.642  20.844   1.481  0.00  0.00     0.157 C 
ENDROOT
BRANCH   3  15
HETATM   15  C   UNK N   1      25.313  20.256   4.335  0.00  0.00     0.137 C 
BRANCH  15  16
HETATM   16  C   UNK N   1      26.473  19.902   3.422  0.00  0.00     0.021 C 
BRANCH  16  17
HETATM   17  C   UNK N   1      27.715  19.894   4.292  0.00  0.00     0.009 C 
BRANCH  17  18
HETATM   18  C   UNK N   1      27.363  20.175   5.736  0.00  0.00     0.078 C 
BRANCH  18  19
HETATM   19  C   UNK N   1      27.915  19.091   6.594  0.00  0.00     0.123 C 
HETATM   20  O   UNK N   1      28.044  19.268   7.794  0.00  0.00    -0.298 OA
HETATM   21  C   UNK N   1      28.318  17.795   5.985  0.00  0.00     0.091 C 
ENDBRANCH  18  19
ENDBRANCH  17  18
ENDBRANCH  16  17
ENDBRANCH  15  16
ENDBRANCH   3  15
TORSDOF 5
ENDMDL
MODEL 6
REMARK VINA RESULT:      -5.6      5.694      8.080
REMARK  5 active torsions:
REMARK  status: ('A' for Active; 'I' for Inactive)
REMARK    1  A    between atoms: N_4  and  C_9 
REMARK    2  A    between atoms: C_9  and  C_10 
REMARK    3  A    between atoms: C_10  and  C_11 
REMARK    4  A    between atoms: C_11  and  C_16 
REMARK    5  A    between atoms: C_16  and  C_20 
ROOT
HETATM    1  O   UNK N   1      23.735  16.138   4.415  0.00  0.00    -0.265 OA
HETATM    2  O   UNK N   1      22.256  20.318   3.428  0.00  0.00    -0.246 OA
HETATM    3  N   UNK N   1      23.093  18.264   3.942  0.00  0.00    -0.264 N 
HETATM    4  N   UNK N   1      20.878  18.585   3.031  0.00  0.00    -0.287 N 
HETATM    5  N   UNK N   1      21.165  15.158   3.538  0.00  0.00    -0.340 N 
HETATM    6  N   UNK N   1      19.592  16.554   2.766  0.00  0.00    -0.336 N 
ATOM      7  HN  UNK N   1      18.719  16.919   2.386  1.00  0.00     0.168 HD
HETATM    8  C   UNK N   1      21.647  16.409   3.568  0.00  0.00     0.149 A 
HETATM    9  C   UNK N   1      22.877  16.895   3.991  0.00  0.00     0.282 A 
HETATM   10  C   UNK N   1      20.698  17.245   3.106  0.00  0.00     0.145 A 
HETATM   11  C   UNK N   1      22.084  19.110   3.462  0.00  0.00     0.332 A 
HETATM   12  C   UNK N   1      19.907  15.262   3.046  0.00  0.00     0.184 A 
HETATM   13  C   UNK N   1      19.817  19.446   2.525  0.00  0.00     0.163 C 
HETATM   14  C   UNK N   1      21.823  13.932   3.956  0.00  0.00     0.157 C 
ENDROOT
BRANCH   3  15
HETATM   15  C   UNK N   1      24.364  18.789   4.462  0.00  0.00     0.137 C 
BRANCH  15  16
HETATM   16  C   UNK N   1      25.446  18.897   3.404  0.00  0.00     0.021 C 
BRANCH  16  17
HETATM   17  C   UNK N   1      26.103  20.250   3.599  0.00  0.00     0.009 C 
BRANCH  17  18
HETATM   18  C   UNK N   1      27.500  20.095   4.156  0.00  0.00     0.078 C 
BRANCH  18  19
HETATM   19  C   UNK N   1      27.461  20.275   5.633  0.00  0.00     0.123 C 
HETATM   20  O   UNK N   1      27.710  19.336   6.370  0.00  0.00    -0.298 OA
HETATM   21  C   UNK N   1      27.108  21.601   6.209  0.00  0.00     0.091 C 
ENDBRANCH  18  19
ENDBRANCH  17  18
ENDBRANCH  16  17
ENDBRANCH  15  16
ENDBRANCH   3  15
TORSDOF 5
ENDMDL
MODEL 7
REMARK VINA RESULT:      -5.6      1.844      2.804
REMARK  5 active torsions:
REMARK  status: ('A' for Active; 'I' for Inactive)
REMARK    1  A    between atoms: N_4  and  C_9 
REMARK    2  A    between atoms: C_9  and  C_10 
REMARK    3  A    between atoms: C_10  and  C_11 
REMARK    4  A    between atoms: C_11  and  C_16 
REMARK    5  A    between atoms: C_16  and  C_20 
ROOT
HETATM    1  O   UNK N   1      31.307  16.968   8.203  0.00  0.00    -0.265 OA
HETATM    2  O   UNK N   1      30.357  16.861   3.763  0.00  0.00    -0.246 OA
HETATM    3  N   UNK N   1      30.917  16.851   5.970  0.00  0.00    -0.264 N 
HETATM    4  N   UNK N   1      28.876  17.844   5.140  0.00  0.00    -0.287 N 
HETATM    5  N   UNK N   1      28.837  18.416   8.569  0.00  0.00    -0.340 N 
HETATM    6  N   UNK N   1      27.500  18.885   6.834  0.00  0.00    -0.336 N 
ATOM      7  HN  UNK N   1      26.721  19.232   6.273  1.00  0.00     0.168 HD
HETATM    8  C   UNK N   1      29.387  17.916   7.452  0.00  0.00     0.149 A 
HETATM    9  C   UNK N   1      30.575  17.223   7.261  0.00  0.00     0.282 A 
HETATM   10  C   UNK N   1      28.581  18.203   6.412  0.00  0.00     0.145 A 
HETATM   11  C   UNK N   1      30.061  17.169   4.906  0.00  0.00     0.332 A 
HETATM   12  C   UNK N   1      27.684  19.008   8.175  0.00  0.00     0.184 A 
HETATM   13  C   UNK N   1      27.970  18.181   4.049  0.00  0.00     0.163 C 
HETATM   14  C   UNK N   1      29.355  18.367   9.925  0.00  0.00     0.157 C 
ENDROOT
BRANCH   3  15
HETATM   15  C   UNK N   1      32.210  16.187   5.753  0.00  0.00     0.137 C 
BRANCH  15  16
HETATM   16  C   UNK N   1      33.368  17.159   5.614  0.00  0.00     0.021 C 
BRANCH  16  17
HETATM   17  C   UNK N   1      34.376  16.779   6.681  0.00  0.00     0.009 C 
BRANCH  17  18
HETATM   18  C   UNK N   1      34.421  17.822   7.775  0.00  0.00     0.078 C 
BRANCH  18  19
HETATM   19  C   UNK N   1      34.770  17.166   9.064  0.00  0.00     0.123 C 
HETATM   20  O   UNK N   1      35.372  17.787   9.924  0.00  0.00    -0.298 OA
HETATM   21  C   UNK N   1      34.392  15.746   9.299  0.00  0.00     0.091 C 
ENDBRANCH  18  19
ENDBRANCH  17  18
ENDBRANCH  16  17
ENDBRANCH  15  16
ENDBRANCH   3  15
TORSDOF 5
ENDMDL
MODEL 8
REMARK VINA RESULT:      -5.5     12.311     14.712
REMARK  5 active torsions:
REMARK  status: ('A' for Active; 'I' for Inactive)
REMARK    1  A    between atoms: N_4  and  C_9 
REMARK    2  A    between atoms: C_9  and  C_10 
REMARK    3  A    between atoms: C_10  and  C_11 
REMARK    4  A    between atoms: C_11  and  C_16 
REMARK    5  A    between atoms: C_16  and  C_20 
ROOT
HETATM    1  O   UNK N   1      27.689  25.278  -3.824  0.00  0.00    -0.265 OA
HETATM    2  O   UNK N   1      25.401  23.321  -7.225  0.00  0.00    -0.246 OA
HETATM    3  N   UNK N   1      26.469  24.372  -5.511  0.00  0.00    -0.264 N 
HETATM    4  N   UNK N   1      27.493  22.608  -6.807  0.00  0.00    -0.287 N 
HETATM    5  N   UNK N   1      29.866  23.479  -4.420  0.00  0.00    -0.340 N 
HETATM    6  N   UNK N   1      29.724  22.001  -6.098  0.00  0.00    -0.336 N 
ATOM      7  HN  UNK N   1      29.949  21.258  -6.760  1.00  0.00     0.168 HD
HETATM    8  C   UNK N   1      28.673  23.618  -5.017  0.00  0.00     0.149 A 
HETATM    9  C   UNK N   1      27.616  24.474  -4.739  0.00  0.00     0.282 A 
HETATM   10  C   UNK N   1      28.591  22.726  -6.023  0.00  0.00     0.145 A 
HETATM   11  C   UNK N   1      26.410  23.430  -6.548  0.00  0.00     0.332 A 
HETATM   12  C   UNK N   1      30.498  22.486  -5.091  0.00  0.00     0.184 A 
HETATM   13  C   UNK N   1      27.455  21.625  -7.882  0.00  0.00     0.163 C 
HETATM   14  C   UNK N   1      30.390  24.211  -3.280  0.00  0.00     0.157 C 
ENDROOT
BRANCH   3  15
HETATM   15  C   UNK N   1      25.319  25.222  -5.169  0.00  0.00     0.137 C 
BRANCH  15  16
HETATM   16  C   UNK N   1      25.250  26.497  -5.991  0.00  0.00     0.021 C 
BRANCH  16  17
HETATM   17  C   UNK N   1      25.153  27.641  -5.000  0.00  0.00     0.009 C 
BRANCH  17  18
HETATM   18  C   UNK N   1      26.427  28.454  -4.991  0.00  0.00     0.078 C 
BRANCH  18  19
HETATM   19  C   UNK N   1      26.526  29.196  -3.705  0.00  0.00     0.123 C 
HETATM   20  O   UNK N   1      26.602  28.586  -2.651  0.00  0.00    -0.298 OA
HETATM   21  C   UNK N   1      26.522  30.684  -3.704  0.00  0.00     0.091 C 
ENDBRANCH  18  19
ENDBRANCH  17  18
ENDBRANCH  16  17
ENDBRANCH  15  16
ENDBRANCH   3  15
TORSDOF 5
ENDMDL
MODEL 9
REMARK VINA RESULT:      -5.5      4.054      8.032
REMARK  5 active torsions:
REMARK  status: ('A' for Active; 'I' for Inactive)
REMARK    1  A    between atoms: N_4  and  C_9 
REMARK    2  A    between atoms: C_9  and  C_10 
REMARK    3  A    between atoms: C_10  and  C_11 
REMARK    4  A    between atoms: C_11  and  C_16 
REMARK    5  A    between atoms: C_16  and  C_20 
ROOT
HETATM    1  O   UNK N   1      32.228  13.886   7.521  0.00  0.00    -0.265 OA
HETATM    2  O   UNK N   1      34.283  17.421   9.498  0.00  0.00    -0.246 OA
HETATM    3  N   UNK N   1      33.179  15.716   8.470  0.00  0.00    -0.264 N 
HETATM    4  N   UNK N   1      35.049  15.357   9.959  0.00  0.00    -0.287 N 
HETATM    5  N   UNK N   1      34.137  12.186   8.863  0.00  0.00    -0.340 N 
HETATM    6  N   UNK N   1      35.698  13.043  10.223  0.00  0.00    -0.336 N 
ATOM      7  HN  UNK N   1      36.484  13.128  10.867  1.00  0.00     0.168 HD
HETATM    8  C   UNK N   1      33.987  13.518   8.907  0.00  0.00     0.149 A 
HETATM    9  C   UNK N   1      33.078  14.348   8.264  0.00  0.00     0.282 A 
HETATM   10  C   UNK N   1      34.929  14.029   9.723  0.00  0.00     0.145 A 
HETATM   11  C   UNK N   1      34.174  16.219   9.320  0.00  0.00     0.332 A 
HETATM   12  C   UNK N   1      35.188  11.909   9.672  0.00  0.00     0.184 A 
HETATM   13  C   UNK N   1      36.087  15.859  10.849  0.00  0.00     0.163 C 
HETATM   14  C   UNK N   1      33.363  11.220   8.103  0.00  0.00     0.157 C 
ENDROOT
BRANCH   3  15
HETATM   15  C   UNK N   1      32.270  16.603   7.730  0.00  0.00     0.137 C 
BRANCH  15  16
HETATM   16  C   UNK N   1      30.944  16.826   8.435  0.00  0.00     0.021 C 
BRANCH  16  17
HETATM   17  C   UNK N   1      30.842  18.316   8.694  0.00  0.00     0.009 C 
BRANCH  17  18
HETATM   18  C   UNK N   1      29.718  18.619   9.658  0.00  0.00     0.078 C 
BRANCH  18  19
HETATM   19  C   UNK N   1      28.415  18.338   8.996  0.00  0.00     0.123 C 
HETATM   20  O   UNK N   1      27.648  17.521   9.478  0.00  0.00    -0.298 OA
HETATM   21  C   UNK N   1      28.053  19.048   7.739  0.00  0.00     0.091 C 
ENDBRANCH  18  19
ENDBRANCH  17  18
ENDBRANCH  16  17
ENDBRANCH  15  16
ENDBRANCH   3  15
TORSDOF 5
ENDMDL
