REMARK  5 active torsions:
REMARK  status: ('A' for Active; 'I' for Inactive)
REMARK    1  A    between atoms: N_4  and  C_9 
REMARK    2  A    between atoms: C_9  and  C_10 
REMARK    3  A    between atoms: C_10  and  C_11 
REMARK    4  A    between atoms: C_11  and  C_16 
REMARK    5  A    between atoms: C_16  and  C_20 
ROOT
HETATM    1  O   UNK N   1       7.339   2.747   0.340  0.00  0.00    -0.265 OA
HETATM    2  O   UNK N   1       4.901  -1.082   0.185  0.00  0.00    -0.246 OA
HETATM    3  N   UNK N   1       6.032   0.892   0.268  0.00  0.00    -0.264 N 
HETATM    4  N   UNK N   1       7.122  -1.226  -0.140  0.00  0.00    -0.287 N 
HETATM    5  N   UNK N   1       9.682   1.126  -0.123  0.00  0.00    -0.340 N 
HETATM    6  N   UNK N   1       9.523  -1.093  -0.391  0.00  0.00    -0.336 N 
ATOM      7  HN  UNK N   1       9.763  -2.073  -0.543  1.00  0.00     0.168 HD
HETATM    8  C   UNK N   1       8.391   0.772  -0.036  0.00  0.00     0.149 A 
HETATM    9  C   UNK N   1       7.256   1.539   0.191  0.00  0.00     0.282 A 
HETATM   10  C   UNK N   1       8.301  -0.562  -0.195  0.00  0.00     0.145 A 
HETATM   11  C   UNK N   1       5.970  -0.499   0.105  0.00  0.00     0.332 A 
HETATM   12  C   UNK N   1      10.363  -0.025  -0.339  0.00  0.00     0.184 A 
HETATM   13  C   UNK N   1       7.079  -2.672  -0.316  0.00  0.00     0.163 C 
HETATM   14  C   UNK N   1      10.260   2.453   0.003  0.00  0.00     0.157 C 
ENDROOT
BRANCH   3  15
HETATM   15  C   UNK N   1       4.839   1.690   0.586  0.00  0.00     0.137 C 
BRANCH  15  16
HETATM   16  C   UNK N   1       3.662   1.399  -0.327  0.00  0.00     0.021 C 
BRANCH  16  17
HETATM   17  C   UNK N   1       2.659   0.620   0.502  0.00  0.00     0.009 C 
BRANCH  17  18
HETATM   18  C   UNK N   1       1.686  -0.121  -0.387  0.00  0.00     0.078 C 
BRANCH  18  19
HETATM   19  C   UNK N   1       0.326   0.458  -0.214  0.00  0.00     0.123 C 
HETATM   20  O   UNK N   1       0.107   1.613  -0.539  0.00  0.00    -0.298 OA
HETATM   21  C   UNK N   1      -0.765  -0.372   0.365  0.00  0.00     0.091 C 
ENDBRANCH  18  19
ENDBRANCH  17  18
ENDBRANCH  16  17
ENDBRANCH  15  16
ENDBRANCH   3  15
TORSDOF 5
