MODEL 1
REMARK VINA RESULT:      -7.0      0.000      0.000
REMARK  6 active torsions:
REMARK  status: ('A' for Active; 'I' for Inactive)
REMARK    1  A    between atoms: N_2  and  C_9 
REMARK    2  A    between atoms: N_3  and  C_4 
REMARK    3  A    between atoms: N_3  and  C_11 
REMARK       I    between atoms: N_3  and  C_12 
REMARK    4  A    between atoms: C_9  and  C_10 
REMARK    5  A    between atoms: C_10  and  C_13 
REMARK    6  A    between atoms: C_12  and  C_14 
ROOT
HETATM    1  N   UNK N   1      36.094  12.970  12.301  0.00  0.00    -0.412 N 
HETATM    2  C   UNK N   1      36.500  15.270  10.545  0.00  0.00     0.096 C 
HETATM    3  C   UNK N   1      37.431  14.058  10.402  0.00  0.00     0.045 C 
HETATM    4  C   UNK N   1      36.069  15.421  11.992  0.00  0.00     0.045 C 
HETATM    5  C   UNK N   1      36.975  12.778  11.134  0.00  0.00     0.119 C 
HETATM    6  C   UNK N   1      35.278  14.187  12.375  0.00  0.00     0.119 C 
ENDROOT
BRANCH   2   7
HETATM    7  N   UNK N   1      35.376  15.468   9.598  0.00  0.00    -0.313 N 
HETATM    8  C   UNK N   1      34.865  16.753   9.521  0.00  0.00     0.224 C 
HETATM    9  O   UNK N   1      35.378  17.655  10.172  0.00  0.00    -0.273 OA
BRANCH   7  10
HETATM   10  C   UNK N   1      34.827  14.380   8.799  0.00  0.00     0.037 A 
HETATM   11  C   UNK N   1      33.818  13.534   9.302  0.00  0.00     0.030 A 
HETATM   12  C   UNK N   1      33.294  12.488   8.536  0.00  0.00     0.002 A 
HETATM   13  C   UNK N   1      33.775  12.259   7.248  0.00  0.00     0.000 A 
HETATM   14  C   UNK N   1      34.773  13.080   6.728  0.00  0.00     0.002 A 
HETATM   15  C   UNK N   1      35.285  14.126   7.498  0.00  0.00     0.030 A 
ENDBRANCH   7  10
BRANCH   8  16
HETATM   16  C   UNK N   1      33.641  17.102   8.719  0.00  0.00     0.099 C 
HETATM   17  C   UNK N   1      33.991  18.006   7.552  0.00  0.00     0.014 C 
ENDBRANCH   8  16
ENDBRANCH   2   7
BRANCH   1  18
HETATM   18  C   UNK N   1      36.720  12.616  13.570  0.00  0.00     0.121 C 
BRANCH  18  19
HETATM   19  C   UNK N   1      35.717  12.448  14.701  0.00  0.00     0.058 C 
BRANCH  19  20
HETATM   20  C   UNK N   1      36.004  13.459  15.757  0.00  0.00    -0.057 A 
HETATM   21  C   UNK N   1      35.293  13.450  16.965  0.00  0.00     0.007 A 
HETATM   22  C   UNK N   1      35.553  14.420  17.938  0.00  0.00     0.001 A 
HETATM   23  C   UNK N   1      36.526  15.398  17.705  0.00  0.00     0.000 A 
HETATM   24  C   UNK N   1      37.239  15.404  16.503  0.00  0.00     0.001 A 
HETATM   25  C   UNK N   1      36.978  14.436  15.530  0.00  0.00     0.007 A 
ENDBRANCH  19  20
ENDBRANCH  18  19
ENDBRANCH   1  18
TORSDOF 6
ENDMDL
MODEL 2
REMARK VINA RESULT:      -6.7      2.489      4.273
REMARK  6 active torsions:
REMARK  status: ('A' for Active; 'I' for Inactive)
REMARK    1  A    between atoms: N_2  and  C_9 
REMARK    2  A    between atoms: N_3  and  C_4 
REMARK    3  A    between atoms: N_3  and  C_11 
REMARK       I    between atoms: N_3  and  C_12 
REMARK    4  A    between atoms: C_9  and  C_10 
REMARK    5  A    between atoms: C_10  and  C_13 
REMARK    6  A    between atoms: C_12  and  C_14 
ROOT
HETATM    1  N   UNK N   1      34.358  15.741  10.487  0.00  0.00    -0.412 N 
HETATM    2  C   UNK N   1      33.831  15.028   7.703  0.00  0.00     0.096 C 
HETATM    3  C   UNK N   1      33.084  14.275   8.812  0.00  0.00     0.045 C 
HETATM    4  C   UNK N   1      35.212  15.427   8.191  0.00  0.00     0.045 C 
HETATM    5  C   UNK N   1      33.177  14.900  10.220  0.00  0.00     0.119 C 
HETATM    6  C   UNK N   1      35.038  16.380   9.355  0.00  0.00     0.119 C 
ENDROOT
BRANCH   2   7
HETATM    7  N   UNK N   1      33.160  16.118   6.954  0.00  0.00    -0.313 N 
HETATM    8  C   UNK N   1      33.771  16.512   5.775  0.00  0.00     0.224 C 
HETATM    9  O   UNK N   1      34.774  15.929   5.383  0.00  0.00    -0.273 OA
BRANCH   7  10
HETATM   10  C   UNK N   1      31.936  16.751   7.426  0.00  0.00     0.037 A 
HETATM   11  C   UNK N   1      30.671  16.364   6.939  0.00  0.00     0.030 A 
HETATM   12  C   UNK N   1      29.496  16.974   7.390  0.00  0.00     0.002 A 
HETATM   13  C   UNK N   1      29.562  17.995   8.337  0.00  0.00     0.000 A 
HETATM   14  C   UNK N   1      30.799  18.398   8.834  0.00  0.00     0.002 A 
HETATM   15  C   UNK N   1      31.965  17.777   8.382  0.00  0.00     0.030 A 
ENDBRANCH   7  10
BRANCH   8  16
HETATM   16  C   UNK N   1      33.305  17.690   4.963  0.00  0.00     0.099 C 
HETATM   17  C   UNK N   1      32.569  17.238   3.717  0.00  0.00     0.014 C 
ENDBRANCH   8  16
ENDBRANCH   2   7
BRANCH   1  18
HETATM   18  C   UNK N   1      35.276  15.164  11.463  0.00  0.00     0.121 C 
BRANCH  18  19
HETATM   19  C   UNK N   1      34.948  13.718  11.804  0.00  0.00     0.058 C 
BRANCH  19  20
HETATM   20  C   UNK N   1      35.371  13.444  13.206  0.00  0.00    -0.057 A 
HETATM   21  C   UNK N   1      34.796  12.390  13.932  0.00  0.00     0.007 A 
HETATM   22  C   UNK N   1      35.183  12.160  15.255  0.00  0.00     0.001 A 
HETATM   23  C   UNK N   1      36.145  12.979  15.855  0.00  0.00     0.000 A 
HETATM   24  C   UNK N   1      36.722  14.026  15.130  0.00  0.00     0.001 A 
HETATM   25  C   UNK N   1      36.335  14.258  13.808  0.00  0.00     0.007 A 
ENDBRANCH  19  20
ENDBRANCH  18  19
ENDBRANCH   1  18
TORSDOF 6
ENDMDL
MODEL 3
REMARK VINA RESULT:      -6.4     17.544     21.397
REMARK  6 active torsions:
REMARK  status: ('A' for Active; 'I' for Inactive)
REMARK    1  A    between atoms: N_2  and  C_9 
REMARK    2  A    between atoms: N_3  and  C_4 
REMARK    3  A    between atoms: N_3  and  C_11 
REMARK       I    between atoms: N_3  and  C_12 
REMARK    4  A    between atoms: C_9  and  C_10 
REMARK    5  A    between atoms: C_10  and  C_13 
REMARK    6  A    between atoms: C_12  and  C_14 
ROOT
HETATM    1  N   UNK N   1      28.619  24.088  -3.804  0.00  0.00    -0.412 N 
HETATM    2  C   UNK N   1      26.309  24.031  -5.592  0.00  0.00     0.096 C 
HETATM    3  C   UNK N   1      26.070  24.095  -4.077  0.00  0.00     0.045 C 
HETATM    4  C   UNK N   1      27.577  23.248  -5.880  0.00  0.00     0.045 C 
HETATM    5  C   UNK N   1      27.309  24.429  -3.221  0.00  0.00     0.119 C 
HETATM    6  C   UNK N   1      28.740  23.999  -5.264  0.00  0.00     0.119 C 
ENDROOT
BRANCH   2   7
HETATM    7  N   UNK N   1      26.200  25.255  -6.421  0.00  0.00    -0.313 N 
HETATM    8  C   UNK N   1      25.852  25.063  -7.748  0.00  0.00     0.224 C 
HETATM    9  O   UNK N   1      25.602  23.936  -8.156  0.00  0.00    -0.273 OA
BRANCH   7  10
HETATM   10  C   UNK N   1      26.453  26.586  -5.884  0.00  0.00     0.037 A 
HETATM   11  C   UNK N   1      25.474  27.281  -5.145  0.00  0.00     0.030 A 
HETATM   12  C   UNK N   1      25.715  28.559  -4.633  0.00  0.00     0.002 A 
HETATM   13  C   UNK N   1      26.944  29.178  -4.857  0.00  0.00     0.000 A 
HETATM   14  C   UNK N   1      27.928  28.514  -5.585  0.00  0.00     0.002 A 
HETATM   15  C   UNK N   1      27.680  27.235  -6.086  0.00  0.00     0.030 A 
ENDBRANCH   7  10
BRANCH   8  16
HETATM   16  C   UNK N   1      25.832  26.176  -8.760  0.00  0.00     0.099 C 
HETATM   17  C   UNK N   1      27.093  26.174  -9.601  0.00  0.00     0.014 C 
ENDBRANCH   8  16
ENDBRANCH   2   7
BRANCH   1  18
HETATM   18  C   UNK N   1      29.309  23.012  -3.101  0.00  0.00     0.121 C 
BRANCH  18  19
HETATM   19  C   UNK N   1      30.812  23.230  -3.009  0.00  0.00     0.058 C 
BRANCH  19  20
HETATM   20  C   UNK N   1      31.510  22.022  -3.533  0.00  0.00    -0.057 A 
HETATM   21  C   UNK N   1      30.877  21.178  -4.456  0.00  0.00     0.007 A 
HETATM   22  C   UNK N   1      31.532  20.034  -4.921  0.00  0.00     0.001 A 
HETATM   23  C   UNK N   1      32.820  19.733  -4.465  0.00  0.00     0.000 A 
HETATM   24  C   UNK N   1      33.454  20.578  -3.549  0.00  0.00     0.001 A 
HETATM   25  C   UNK N   1      32.798  21.721  -3.083  0.00  0.00     0.007 A 
ENDBRANCH  19  20
ENDBRANCH  18  19
ENDBRANCH   1  18
TORSDOF 6
ENDMDL
MODEL 4
REMARK VINA RESULT:      -6.3      8.955     11.723
REMARK  6 active torsions:
REMARK  status: ('A' for Active; 'I' for Inactive)
REMARK    1  A    between atoms: N_2  and  C_9 
REMARK    2  A    between atoms: N_3  and  C_4 
REMARK    3  A    between atoms: N_3  and  C_11 
REMARK       I    between atoms: N_3  and  C_12 
REMARK    4  A    between atoms: C_9  and  C_10 
REMARK    5  A    between atoms: C_10  and  C_13 
REMARK    6  A    between atoms: C_12  and  C_14 
ROOT
HETATM    1  N   UNK N   1      25.299  15.587   6.591  0.00  0.00    -0.412 N 
HETATM    2  C   UNK N   1      27.095  15.874   4.304  0.00  0.00     0.096 C 
HETATM    3  C   UNK N   1      25.615  16.243   4.132  0.00  0.00     0.045 C 
HETATM    4  C   UNK N   1      27.230  14.741   5.304  0.00  0.00     0.045 C 
HETATM    5  C   UNK N   1      24.802  16.361   5.439  0.00  0.00     0.119 C 
HETATM    6  C   UNK N   1      26.722  15.236   6.643  0.00  0.00     0.119 C 
ENDROOT
BRANCH   2   7
HETATM    7  N   UNK N   1      28.113  16.933   4.509  0.00  0.00    -0.313 N 
HETATM    8  C   UNK N   1      29.427  16.568   4.264  0.00  0.00     0.224 C 
HETATM    9  O   UNK N   1      29.682  15.445   3.850  0.00  0.00    -0.273 OA
BRANCH   7  10
HETATM   10  C   UNK N   1      27.764  18.276   4.952  0.00  0.00     0.037 A 
HETATM   11  C   UNK N   1      27.802  18.635   6.315  0.00  0.00     0.030 A 
HETATM   12  C   UNK N   1      27.464  19.924   6.740  0.00  0.00     0.002 A 
HETATM   13  C   UNK N   1      27.071  20.883   5.809  0.00  0.00     0.000 A 
HETATM   14  C   UNK N   1      27.023  20.554   4.456  0.00  0.00     0.002 A 
HETATM   15  C   UNK N   1      27.369  19.267   4.041  0.00  0.00     0.030 A 
ENDBRANCH   7  10
BRANCH   8  16
HETATM   16  C   UNK N   1      30.595  17.471   4.553  0.00  0.00     0.099 C 
HETATM   17  C   UNK N   1      31.248  17.115   5.874  0.00  0.00     0.014 C 
ENDBRANCH   8  16
ENDBRANCH   2   7
BRANCH   1  18
HETATM   18  C   UNK N   1      24.418  14.492   6.982  0.00  0.00     0.121 C 
BRANCH  18  19
HETATM   19  C   UNK N   1      25.072  13.523   7.956  0.00  0.00     0.058 C 
BRANCH  19  20
HETATM   20  C   UNK N   1      24.070  13.121   8.984  0.00  0.00    -0.057 A 
HETATM   21  C   UNK N   1      22.721  13.476   8.842  0.00  0.00     0.007 A 
HETATM   22  C   UNK N   1      21.796  13.115   9.826  0.00  0.00     0.001 A 
HETATM   23  C   UNK N   1      22.217  12.398  10.951  0.00  0.00     0.000 A 
HETATM   24  C   UNK N   1      23.561  12.040  11.090  0.00  0.00     0.001 A 
HETATM   25  C   UNK N   1      24.487  12.402  10.108  0.00  0.00     0.007 A 
ENDBRANCH  19  20
ENDBRANCH  18  19
ENDBRANCH   1  18
TORSDOF 6
ENDMDL
MODEL 5
REMARK VINA RESULT:      -6.3     12.898     15.095
REMARK  6 active torsions:
REMARK  status: ('A' for Active; 'I' for Inactive)
REMARK    1  A    between atoms: N_2  and  C_9 
REMARK    2  A    between atoms: N_3  and  C_4 
REMARK    3  A    between atoms: N_3  and  C_11 
REMARK       I    between atoms: N_3  and  C_12 
REMARK    4  A    between atoms: C_9  and  C_10 
REMARK    5  A    between atoms: C_10  and  C_13 
REMARK    6  A    between atoms: C_12  and  C_14 
ROOT
HETATM    1  N   UNK N   1      21.496  14.708   6.625  0.00  0.00    -0.412 N 
HETATM    2  C   UNK N   1      22.061  17.243   5.286  0.00  0.00     0.096 C 
HETATM    3  C   UNK N   1      23.172  16.188   5.369  0.00  0.00     0.045 C 
HETATM    4  C   UNK N   1      21.175  17.154   6.515  0.00  0.00     0.045 C 
HETATM    5  C   UNK N   1      22.721  14.778   5.808  0.00  0.00     0.119 C 
HETATM    6  C   UNK N   1      20.513  15.791   6.516  0.00  0.00     0.119 C 
ENDROOT
BRANCH   2   7
HETATM    7  N   UNK N   1      21.280  17.413   4.037  0.00  0.00    -0.313 N 
HETATM    8  C   UNK N   1      20.845  18.699   3.762  0.00  0.00     0.224 C 
HETATM    9  O   UNK N   1      21.158  19.621   4.504  0.00  0.00    -0.273 OA
BRANCH   7  10
HETATM   10  C   UNK N   1      20.974  16.299   3.150  0.00  0.00     0.037 A 
HETATM   11  C   UNK N   1      19.794  15.541   3.300  0.00  0.00     0.030 A 
HETATM   12  C   UNK N   1      19.502  14.469   2.451  0.00  0.00     0.002 A 
HETATM   13  C   UNK N   1      20.390  14.125   1.433  0.00  0.00     0.000 A 
HETATM   14  C   UNK N   1      21.563  14.856   1.264  0.00  0.00     0.002 A 
HETATM   15  C   UNK N   1      21.843  15.929   2.113  0.00  0.00     0.030 A 
ENDBRANCH   7  10
BRANCH   8  16
HETATM   16  C   UNK N   1      19.928  19.027   2.615  0.00  0.00     0.099 C 
HETATM   17  C   UNK N   1      20.602  19.956   1.625  0.00  0.00     0.014 C 
ENDBRANCH   8  16
ENDBRANCH   2   7
BRANCH   1  18
HETATM   18  C   UNK N   1      21.736  14.280   7.999  0.00  0.00     0.121 C 
BRANCH  18  19
HETATM   19  C   UNK N   1      23.114  13.666   8.198  0.00  0.00     0.058 C 
BRANCH  19  20
HETATM   20  C   UNK N   1      23.174  13.038   9.548  0.00  0.00    -0.057 A 
HETATM   21  C   UNK N   1      24.403  12.656  10.103  0.00  0.00     0.007 A 
HETATM   22  C   UNK N   1      24.444  12.043  11.359  0.00  0.00     0.001 A 
HETATM   23  C   UNK N   1      23.257  11.814  12.063  0.00  0.00     0.000 A 
HETATM   24  C   UNK N   1      22.031  12.200  11.512  0.00  0.00     0.001 A 
HETATM   25  C   UNK N   1      21.990  12.810  10.255  0.00  0.00     0.007 A 
ENDBRANCH  19  20
ENDBRANCH  18  19
ENDBRANCH   1  18
TORSDOF 6
ENDMDL
MODEL 6
REMARK VINA RESULT:      -6.2     17.485     21.400
REMARK  6 active torsions:
REMARK  status: ('A' for Active; 'I' for Inactive)
REMARK    1  A    between atoms: N_2  and  C_9 
REMARK    2  A    between atoms: N_3  and  C_4 
REMARK    3  A    between atoms: N_3  and  C_11 
REMARK       I    between atoms: N_3  and  C_12 
REMARK    4  A    between atoms: C_9  and  C_10 
REMARK    5  A    between atoms: C_10  and  C_13 
REMARK    6  A    between atoms: C_12  and  C_14 
ROOT
HETATM    1  N   UNK N   1      29.696  24.876  -3.988  0.00  0.00    -0.412 N 
HETATM    2  C   UNK N   1      28.449  24.104  -6.515  0.00  0.00     0.096 C 
HETATM    3  C   UNK N   1      27.905  23.508  -5.210  0.00  0.00     0.045 C 
HETATM    4  C   UNK N   1      29.942  24.344  -6.387  0.00  0.00     0.045 C 
HETATM    5  C   UNK N   1      28.397  24.183  -3.912  0.00  0.00     0.119 C 
HETATM    6  C   UNK N   1      30.159  25.367  -5.291  0.00  0.00     0.119 C 
ENDROOT
BRANCH   2   7
HETATM    7  N   UNK N   1      27.749  25.233  -7.172  0.00  0.00    -0.313 N 
HETATM    8  C   UNK N   1      27.934  25.350  -8.540  0.00  0.00     0.224 C 
HETATM    9  O   UNK N   1      28.599  24.515  -9.140  0.00  0.00    -0.273 OA
BRANCH   7  10
HETATM   10  C   UNK N   1      26.922  26.177  -6.432  0.00  0.00     0.037 A 
HETATM   11  C   UNK N   1      27.472  27.335  -5.845  0.00  0.00     0.030 A 
HETATM   12  C   UNK N   1      26.679  28.239  -5.131  0.00  0.00     0.002 A 
HETATM   13  C   UNK N   1      25.313  27.999  -4.981  0.00  0.00     0.000 A 
HETATM   14  C   UNK N   1      24.745  26.862  -5.550  0.00  0.00     0.002 A 
HETATM   15  C   UNK N   1      25.545  25.969  -6.267  0.00  0.00     0.030 A 
ENDBRANCH   7  10
BRANCH   8  16
HETATM   16  C   UNK N   1      27.413  26.512  -9.342  0.00  0.00     0.099 C 
HETATM   17  C   UNK N   1      26.139  26.142 -10.075  0.00  0.00     0.014 C 
ENDBRANCH   8  16
ENDBRANCH   2   7
BRANCH   1  18
HETATM   18  C   UNK N   1      30.747  24.233  -3.206  0.00  0.00     0.121 C 
BRANCH  18  19
HETATM   19  C   UNK N   1      30.339  22.867  -2.673  0.00  0.00     0.058 C 
BRANCH  19  20
HETATM   20  C   UNK N   1      31.189  21.824  -3.313  0.00  0.00    -0.057 A 
HETATM   21  C   UNK N   1      32.500  21.601  -2.869  0.00  0.00     0.007 A 
HETATM   22  C   UNK N   1      33.295  20.637  -3.496  0.00  0.00     0.001 A 
HETATM   23  C   UNK N   1      32.782  19.894  -4.564  0.00  0.00     0.000 A 
HETATM   24  C   UNK N   1      31.472  20.113  -5.004  0.00  0.00     0.001 A 
HETATM   25  C   UNK N   1      30.678  21.078  -4.379  0.00  0.00     0.007 A 
ENDBRANCH  19  20
ENDBRANCH  18  19
ENDBRANCH   1  18
TORSDOF 6
ENDMDL
MODEL 7
REMARK VINA RESULT:      -6.0      3.407      5.481
REMARK  6 active torsions:
REMARK  status: ('A' for Active; 'I' for Inactive)
REMARK    1  A    between atoms: N_2  and  C_9 
REMARK    2  A    between atoms: N_3  and  C_4 
REMARK    3  A    between atoms: N_3  and  C_11 
REMARK       I    between atoms: N_3  and  C_12 
REMARK    4  A    between atoms: C_9  and  C_10 
REMARK    5  A    between atoms: C_10  and  C_13 
REMARK    6  A    between atoms: C_12  and  C_14 
ROOT
HETATM    1  N   UNK N   1      34.033  15.740   8.569  0.00  0.00    -0.412 N 
HETATM    2  C   UNK N   1      31.852  17.481   7.701  0.00  0.00     0.096 C 
HETATM    3  C   UNK N   1      33.292  18.007   7.627  0.00  0.00     0.045 C 
HETATM    4  C   UNK N   1      31.712  16.529   8.875  0.00  0.00     0.045 C 
HETATM    5  C   UNK N   1      34.399  16.946   7.805  0.00  0.00     0.119 C 
HETATM    6  C   UNK N   1      32.622  15.343   8.626  0.00  0.00     0.119 C 
ENDROOT
BRANCH   2   7
HETATM    7  N   UNK N   1      31.174  16.978   6.482  0.00  0.00    -0.313 N 
HETATM    8  C   UNK N   1      29.790  16.941   6.528  0.00  0.00     0.224 C 
HETATM    9  O   UNK N   1      29.200  17.363   7.515  0.00  0.00    -0.273 OA
BRANCH   7  10
HETATM   10  C   UNK N   1      31.910  16.536   5.305  0.00  0.00     0.037 A 
HETATM   11  C   UNK N   1      32.166  17.407   4.226  0.00  0.00     0.030 A 
HETATM   12  C   UNK N   1      32.869  16.981   3.095  0.00  0.00     0.002 A 
HETATM   13  C   UNK N   1      33.327  15.667   3.014  0.00  0.00     0.000 A 
HETATM   14  C   UNK N   1      33.086  14.786   4.065  0.00  0.00     0.002 A 
HETATM   15  C   UNK N   1      32.390  15.222   5.194  0.00  0.00     0.030 A 
ENDBRANCH   7  10
BRANCH   8  16
HETATM   16  C   UNK N   1      28.950  16.334   5.438  0.00  0.00     0.099 C 
HETATM   17  C   UNK N   1      28.394  17.403   4.517  0.00  0.00     0.014 C 
ENDBRANCH   8  16
ENDBRANCH   2   7
BRANCH   1  18
HETATM   18  C   UNK N   1      34.716  15.634   9.854  0.00  0.00     0.121 C 
BRANCH  18  19
HETATM   19  C   UNK N   1      36.027  14.867   9.768  0.00  0.00     0.058 C 
BRANCH  19  20
HETATM   20  C   UNK N   1      36.290  14.207  11.078  0.00  0.00    -0.057 A 
HETATM   21  C   UNK N   1      37.002  13.001  11.139  0.00  0.00     0.007 A 
HETATM   22  C   UNK N   1      37.219  12.378  12.371  0.00  0.00     0.001 A 
HETATM   23  C   UNK N   1      36.726  12.960  13.544  0.00  0.00     0.000 A 
HETATM   24  C   UNK N   1      36.021  14.166  13.484  0.00  0.00     0.001 A 
HETATM   25  C   UNK N   1      35.802  14.788  12.252  0.00  0.00     0.007 A 
ENDBRANCH  19  20
ENDBRANCH  18  19
ENDBRANCH   1  18
TORSDOF 6
ENDMDL
MODEL 8
REMARK VINA RESULT:      -6.0      2.282      3.787
REMARK  6 active torsions:
REMARK  status: ('A' for Active; 'I' for Inactive)
REMARK    1  A    between atoms: N_2  and  C_9 
REMARK    2  A    between atoms: N_3  and  C_4 
REMARK    3  A    between atoms: N_3  and  C_11 
REMARK       I    between atoms: N_3  and  C_12 
REMARK    4  A    between atoms: C_9  and  C_10 
REMARK    5  A    between atoms: C_10  and  C_13 
REMARK    6  A    between atoms: C_12  and  C_14 
ROOT
HETATM    1  N   UNK N   1      35.686  10.370  14.120  0.00  0.00    -0.412 N 
HETATM    2  C   UNK N   1      36.024  13.102  13.140  0.00  0.00     0.096 C 
HETATM    3  C   UNK N   1      37.183  12.441  13.899  0.00  0.00     0.045 C 
HETATM    4  C   UNK N   1      34.700  12.591  13.675  0.00  0.00     0.045 C 
HETATM    5  C   UNK N   1      37.055  10.918  14.114  0.00  0.00     0.119 C 
HETATM    6  C   UNK N   1      34.632  11.101  13.408  0.00  0.00     0.119 C 
ENDROOT
BRANCH   2   7
HETATM    7  N   UNK N   1      36.045  13.177  11.659  0.00  0.00    -0.313 N 
HETATM    8  C   UNK N   1      35.066  13.966  11.076  0.00  0.00     0.224 C 
HETATM    9  O   UNK N   1      34.287  14.593  11.783  0.00  0.00    -0.273 OA
BRANCH   7  10
HETATM   10  C   UNK N   1      37.024  12.459  10.854  0.00  0.00     0.037 A 
HETATM   11  C   UNK N   1      36.815  11.121  10.460  0.00  0.00     0.030 A 
HETATM   12  C   UNK N   1      37.756  10.431   9.691  0.00  0.00     0.002 A 
HETATM   13  C   UNK N   1      38.936  11.063   9.303  0.00  0.00     0.000 A 
HETATM   14  C   UNK N   1      39.168  12.383   9.679  0.00  0.00     0.002 A 
HETATM   15  C   UNK N   1      38.219  13.067  10.442  0.00  0.00     0.030 A 
ENDBRANCH   7  10
BRANCH   8  16
HETATM   16  C   UNK N   1      34.854  14.045   9.589  0.00  0.00     0.099 C 
HETATM   17  C   UNK N   1      35.161  15.435   9.067  0.00  0.00     0.014 C 
ENDBRANCH   8  16
ENDBRANCH   2   7
BRANCH   1  18
HETATM   18  C   UNK N   1      35.264   9.869  15.423  0.00  0.00     0.121 C 
BRANCH  18  19
HETATM   19  C   UNK N   1      36.374   9.908  16.463  0.00  0.00     0.058 C 
BRANCH  19  20
HETATM   20  C   UNK N   1      35.984  10.845  17.553  0.00  0.00    -0.057 A 
HETATM   21  C   UNK N   1      36.091  10.459  18.897  0.00  0.00     0.007 A 
HETATM   22  C   UNK N   1      35.697  11.338  19.911  0.00  0.00     0.001 A 
HETATM   23  C   UNK N   1      35.198  12.603  19.583  0.00  0.00     0.000 A 
HETATM   24  C   UNK N   1      35.098  12.990  18.243  0.00  0.00     0.001 A 
HETATM   25  C   UNK N   1      35.489  12.111  17.230  0.00  0.00     0.007 A 
ENDBRANCH  19  20
ENDBRANCH  18  19
ENDBRANCH   1  18
TORSDOF 6
ENDMDL
MODEL 9
REMARK VINA RESULT:      -6.0     17.340     20.670
REMARK  6 active torsions:
REMARK  status: ('A' for Active; 'I' for Inactive)
REMARK    1  A    between atoms: N_2  and  C_9 
REMARK    2  A    between atoms: N_3  and  C_4 
REMARK    3  A    between atoms: N_3  and  C_11 
REMARK       I    between atoms: N_3  and  C_12 
REMARK    4  A    between atoms: C_9  and  C_10 
REMARK    5  A    between atoms: C_10  and  C_13 
REMARK    6  A    between atoms: C_12  and  C_14 
ROOT
HETATM    1  N   UNK N   1      29.018  23.834  -4.013  0.00  0.00    -0.412 N 
HETATM    2  C   UNK N   1      30.389  21.429  -4.949  0.00  0.00     0.096 C 
HETATM    3  C   UNK N   1      29.317  22.065  -5.846  0.00  0.00     0.045 C 
HETATM    4  C   UNK N   1      30.033  21.644  -3.490  0.00  0.00     0.045 C 
HETATM    5  C   UNK N   1      28.861  23.481  -5.436  0.00  0.00     0.119 C 
HETATM    6  C   UNK N   1      30.037  23.135  -3.222  0.00  0.00     0.119 C 
ENDROOT
BRANCH   2   7
HETATM    7  N   UNK N   1      31.828  21.664  -5.221  0.00  0.00    -0.313 N 
HETATM    8  C   UNK N   1      32.675  20.595  -4.975  0.00  0.00     0.224 C 
HETATM    9  O   UNK N   1      32.213  19.521  -4.610  0.00  0.00    -0.273 OA
BRANCH   7  10
HETATM   10  C   UNK N   1      32.333  22.941  -5.706  0.00  0.00     0.037 A 
HETATM   11  C   UNK N   1      32.750  23.954  -4.818  0.00  0.00     0.030 A 
HETATM   12  C   UNK N   1      33.232  25.181  -5.284  0.00  0.00     0.002 A 
HETATM   13  C   UNK N   1      33.300  25.427  -6.654  0.00  0.00     0.000 A 
HETATM   14  C   UNK N   1      32.893  24.444  -7.553  0.00  0.00     0.002 A 
HETATM   15  C   UNK N   1      32.420  23.219  -7.078  0.00  0.00     0.030 A 
ENDBRANCH   7  10
BRANCH   8  16
HETATM   16  C   UNK N   1      34.173  20.700  -5.063  0.00  0.00     0.099 C 
HETATM   17  C   UNK N   1      34.786  20.936  -3.696  0.00  0.00     0.014 C 
ENDBRANCH   8  16
ENDBRANCH   2   7
BRANCH   1  18
HETATM   18  C   UNK N   1      27.751  23.997  -3.309  0.00  0.00     0.121 C 
BRANCH  18  19
HETATM   19  C   UNK N   1      26.550  24.008  -4.244  0.00  0.00     0.058 C 
BRANCH  19  20
HETATM   20  C   UNK N   1      26.060  25.408  -4.386  0.00  0.00    -0.057 A 
HETATM   21  C   UNK N   1      25.299  25.787  -5.501  0.00  0.00     0.007 A 
HETATM   22  C   UNK N   1      24.867  27.110  -5.636  0.00  0.00     0.001 A 
HETATM   23  C   UNK N   1      25.195  28.055  -4.658  0.00  0.00     0.000 A 
HETATM   24  C   UNK N   1      25.950  27.676  -3.544  0.00  0.00     0.001 A 
HETATM   25  C   UNK N   1      26.383  26.354  -3.409  0.00  0.00     0.007 A 
ENDBRANCH  19  20
ENDBRANCH  18  19
ENDBRANCH   1  18
TORSDOF 6
ENDMDL
