MODEL 1
REMARK VINA RESULT:      -5.0      0.000      0.000
REMARK  3 active torsions:
REMARK  status: ('A' for Active; 'I' for Inactive)
REMARK    1  A    between atoms: O_1  and  C_6 
REMARK    2  A    between atoms: C_2  and  C_4 
REMARK    3  A    between atoms: C_3  and  C_5 
ROOT
HETATM    1  C   UNK N   1      35.360  11.618  19.035  0.00  0.00    -0.021 A 
HETATM    2  C   UNK N   1      35.092  11.863  16.606  0.00  0.00    -0.021 A 
HETATM    3  C   UNK N   1      35.258  11.039  17.747  0.00  0.00     0.079 A 
HETATM    4  C   UNK N   1      35.295  13.013  19.163  0.00  0.00     0.010 A 
HETATM    5  C   UNK N   1      35.031  13.253  16.774  0.00  0.00     0.010 A 
HETATM    6  C   UNK N   1      35.131  13.825  18.041  0.00  0.00     0.001 A 
ENDROOT
BRANCH   1   7
HETATM    7  C   UNK N   1      35.535  10.778  20.288  0.00  0.00     0.013 C 
HETATM    8  C   UNK N   1      36.925  10.444  20.803  0.00  0.00     0.015 C 
HETATM    9  C   UNK N   1      34.366  10.206  21.073  0.00  0.00     0.015 C 
ENDBRANCH   1   7
BRANCH   3  10
HETATM   10  O   UNK N   1      35.318   9.704  17.607  0.00  0.00    -0.360 OA
HETATM   11  H   UNK N   1      34.833   9.282  16.926  0.00  0.00     0.217 HD
ENDBRANCH   3  10
BRANCH   2  12
HETATM   12  C   UNK N   1      34.980  11.289  15.205  0.00  0.00     0.013 C 
HETATM   13  C   UNK N   1      36.190  11.258  14.286  0.00  0.00     0.015 C 
HETATM   14  C   UNK N   1      33.679  10.751  14.631  0.00  0.00     0.015 C 
ENDBRANCH   2  12
TORSDOF 3
ENDMDL
MODEL 2
REMARK VINA RESULT:      -5.0      0.047      4.371
REMARK  3 active torsions:
REMARK  status: ('A' for Active; 'I' for Inactive)
REMARK    1  A    between atoms: O_1  and  C_6 
REMARK    2  A    between atoms: C_2  and  C_4 
REMARK    3  A    between atoms: C_3  and  C_5 
ROOT
HETATM    1  C   UNK N   1      35.082  11.844  16.611  0.00  0.00    -0.021 A 
HETATM    2  C   UNK N   1      35.371  11.574  19.035  0.00  0.00    -0.021 A 
HETATM    3  C   UNK N   1      35.261  11.008  17.740  0.00  0.00     0.079 A 
HETATM    4  C   UNK N   1      35.013  13.231  16.794  0.00  0.00     0.010 A 
HETATM    5  C   UNK N   1      35.299  12.965  19.177  0.00  0.00     0.010 A 
HETATM    6  C   UNK N   1      35.122  13.789  18.067  0.00  0.00     0.001 A 
ENDROOT
BRANCH   1   7
HETATM    7  C   UNK N   1      34.962  11.286  15.204  0.00  0.00     0.013 C 
HETATM    8  C   UNK N   1      36.168  11.262  14.280  0.00  0.00     0.015 C 
HETATM    9  C   UNK N   1      33.658  10.757  14.629  0.00  0.00     0.015 C 
ENDBRANCH   1   7
BRANCH   3  10
HETATM   10  O   UNK N   1      35.329   9.676  17.583  0.00  0.00    -0.360 OA
HETATM   11  H   UNK N   1      35.965   9.179  18.059  0.00  0.00     0.217 HD
ENDBRANCH   3  10
BRANCH   2  12
HETATM   12  C   UNK N   1      35.562  10.720  20.276  0.00  0.00     0.013 C 
HETATM   13  C   UNK N   1      36.959  10.379  20.768  0.00  0.00     0.015 C 
HETATM   14  C   UNK N   1      34.403  10.138  21.070  0.00  0.00     0.015 C 
ENDBRANCH   2  12
TORSDOF 3
ENDMDL
MODEL 3
REMARK VINA RESULT:      -4.7     10.495     13.085
REMARK  3 active torsions:
REMARK  status: ('A' for Active; 'I' for Inactive)
REMARK    1  A    between atoms: O_1  and  C_6 
REMARK    2  A    between atoms: C_2  and  C_4 
REMARK    3  A    between atoms: C_3  and  C_5 
ROOT
HETATM    1  C   UNK N   1      29.901  17.571   7.387  0.00  0.00    -0.021 A 
HETATM    2  C   UNK N   1      32.323  17.207   7.558  0.00  0.00    -0.021 A 
HETATM    3  C   UNK N   1      31.106  17.660   8.125  0.00  0.00     0.079 A 
HETATM    4  C   UNK N   1      29.931  17.031   6.094  0.00  0.00     0.010 A 
HETATM    5  C   UNK N   1      32.313  16.672   6.263  0.00  0.00     0.010 A 
HETATM    6  C   UNK N   1      31.127  16.584   5.535  0.00  0.00     0.001 A 
ENDROOT
BRANCH   1   7
HETATM    7  C   UNK N   1      28.571  18.041   7.951  0.00  0.00     0.013 C 
HETATM    8  C   UNK N   1      27.925  19.317   7.440  0.00  0.00     0.015 C 
HETATM    9  C   UNK N   1      27.832  17.303   9.055  0.00  0.00     0.015 C 
ENDBRANCH   1   7
BRANCH   3  10
HETATM   10  O   UNK N   1      31.095  18.174   9.365  0.00  0.00    -0.360 OA
HETATM   11  H   UNK N   1      31.805  18.712   9.656  0.00  0.00     0.217 HD
ENDBRANCH   3  10
BRANCH   2  12
HETATM   12  C   UNK N   1      33.641  17.282   8.308  0.00  0.00     0.013 C 
HETATM   13  C   UNK N   1      34.058  16.163   9.247  0.00  0.00     0.015 C 
HETATM   14  C   UNK N   1      34.592  18.463   8.198  0.00  0.00     0.015 C 
ENDBRANCH   2  12
TORSDOF 3
ENDMDL
MODEL 4
REMARK VINA RESULT:      -4.7      2.253      3.946
REMARK  3 active torsions:
REMARK  status: ('A' for Active; 'I' for Inactive)
REMARK    1  A    between atoms: O_1  and  C_6 
REMARK    2  A    between atoms: C_2  and  C_4 
REMARK    3  A    between atoms: C_3  and  C_5 
ROOT
HETATM    1  C   UNK N   1      35.099  11.802  15.929  0.00  0.00    -0.021 A 
HETATM    2  C   UNK N   1      35.542  12.449  13.602  0.00  0.00    -0.021 A 
HETATM    3  C   UNK N   1      35.809  12.585  14.987  0.00  0.00     0.079 A 
HETATM    4  C   UNK N   1      34.132  10.895  15.472  0.00  0.00     0.010 A 
HETATM    5  C   UNK N   1      34.569  11.531  13.184  0.00  0.00     0.010 A 
HETATM    6  C   UNK N   1      33.869  10.760  14.109  0.00  0.00     0.001 A 
ENDROOT
BRANCH   1   7
HETATM    7  C   UNK N   1      35.350  11.909  17.423  0.00  0.00     0.013 C 
HETATM    8  C   UNK N   1      35.842  10.706  18.209  0.00  0.00     0.015 C 
HETATM    9  C   UNK N   1      35.105  13.182  18.216  0.00  0.00     0.015 C 
ENDBRANCH   1   7
BRANCH   3  10
HETATM   10  O   UNK N   1      36.739  13.458  15.407  0.00  0.00    -0.360 OA
HETATM   11  H   UNK N   1      36.825  14.290  14.985  0.00  0.00     0.217 HD
ENDBRANCH   3  10
BRANCH   2  12
HETATM   12  C   UNK N   1      36.276  13.266  12.553  0.00  0.00     0.013 C 
HETATM   13  C   UNK N   1      35.888  14.712  12.294  0.00  0.00     0.015 C 
HETATM   14  C   UNK N   1      37.396  12.700  11.695  0.00  0.00     0.015 C 
ENDBRANCH   2  12
TORSDOF 3
ENDMDL
MODEL 5
REMARK VINA RESULT:      -4.7     26.254     28.619
REMARK  3 active torsions:
REMARK  status: ('A' for Active; 'I' for Inactive)
REMARK    1  A    between atoms: O_1  and  C_6 
REMARK    2  A    between atoms: C_2  and  C_4 
REMARK    3  A    between atoms: C_3  and  C_5 
ROOT
HETATM    1  C   UNK N   1      26.678  27.799  -4.987  0.00  0.00    -0.021 A 
HETATM    2  C   UNK N   1      27.027  25.397  -4.618  0.00  0.00    -0.021 A 
HETATM    3  C   UNK N   1      27.480  26.735  -4.508  0.00  0.00     0.079 A 
HETATM    4  C   UNK N   1      25.436  27.510  -5.568  0.00  0.00     0.010 A 
HETATM    5  C   UNK N   1      25.779  25.147  -5.205  0.00  0.00     0.010 A 
HETATM    6  C   UNK N   1      24.989  26.194  -5.676  0.00  0.00     0.001 A 
ENDROOT
BRANCH   1   7
HETATM    7  C   UNK N   1      27.118  29.250  -4.890  0.00  0.00     0.013 C 
HETATM    8  C   UNK N   1      26.546  30.158  -3.815  0.00  0.00     0.015 C 
HETATM    9  C   UNK N   1      28.110  29.882  -5.852  0.00  0.00     0.015 C 
ENDBRANCH   1   7
BRANCH   3  10
HETATM   10  O   UNK N   1      28.673  26.994  -3.949  0.00  0.00    -0.360 OA
HETATM   11  H   UNK N   1      28.760  27.008  -3.016  0.00  0.00     0.217 HD
ENDBRANCH   3  10
BRANCH   2  12
HETATM   12  C   UNK N   1      27.850  24.221  -4.122  0.00  0.00     0.013 C 
HETATM   13  C   UNK N   1      27.736  23.755  -2.681  0.00  0.00     0.015 C 
HETATM   14  C   UNK N   1      28.840  23.472  -5.000  0.00  0.00     0.015 C 
ENDBRANCH   2  12
TORSDOF 3
ENDMDL
MODEL 6
REMARK VINA RESULT:      -4.7     26.277     28.554
REMARK  3 active torsions:
REMARK  status: ('A' for Active; 'I' for Inactive)
REMARK    1  A    between atoms: O_1  and  C_6 
REMARK    2  A    between atoms: C_2  and  C_4 
REMARK    3  A    between atoms: C_3  and  C_5 
ROOT
HETATM    1  C   UNK N   1      27.037  25.392  -4.645  0.00  0.00    -0.021 A 
HETATM    2  C   UNK N   1      26.699  27.792  -5.040  0.00  0.00    -0.021 A 
HETATM    3  C   UNK N   1      27.499  26.727  -4.554  0.00  0.00     0.079 A 
HETATM    4  C   UNK N   1      25.783  25.141  -5.219  0.00  0.00     0.010 A 
HETATM    5  C   UNK N   1      25.452  27.501  -5.608  0.00  0.00     0.010 A 
HETATM    6  C   UNK N   1      24.996  26.188  -5.698  0.00  0.00     0.001 A 
ENDROOT
BRANCH   1   7
HETATM    7  C   UNK N   1      27.857  24.217  -4.141  0.00  0.00     0.013 C 
HETATM    8  C   UNK N   1      27.748  23.765  -2.695  0.00  0.00     0.015 C 
HETATM    9  C   UNK N   1      28.837  23.454  -5.017  0.00  0.00     0.015 C 
ENDBRANCH   1   7
BRANCH   3  10
HETATM   10  O   UNK N   1      28.698  26.985  -4.007  0.00  0.00    -0.360 OA
HETATM   11  H   UNK N   1      29.359  26.322  -3.992  0.00  0.00     0.217 HD
ENDBRANCH   3  10
BRANCH   2  12
HETATM   12  C   UNK N   1      27.150  29.240  -4.964  0.00  0.00     0.013 C 
HETATM   13  C   UNK N   1      26.589  30.167  -3.899  0.00  0.00     0.015 C 
HETATM   14  C   UNK N   1      28.142  29.852  -5.941  0.00  0.00     0.015 C 
ENDBRANCH   2  12
TORSDOF 3
ENDMDL
MODEL 7
REMARK VINA RESULT:      -4.7     11.217     13.605
REMARK  3 active torsions:
REMARK  status: ('A' for Active; 'I' for Inactive)
REMARK    1  A    between atoms: O_1  and  C_6 
REMARK    2  A    between atoms: C_2  and  C_4 
REMARK    3  A    between atoms: C_3  and  C_5 
ROOT
HETATM    1  C   UNK N   1      32.967  17.269   6.462  0.00  0.00    -0.021 A 
HETATM    2  C   UNK N   1      30.613  17.205   5.765  0.00  0.00    -0.021 A 
HETATM    3  C   UNK N   1      31.596  17.115   6.782  0.00  0.00     0.079 A 
HETATM    4  C   UNK N   1      33.334  17.510   5.131  0.00  0.00     0.010 A 
HETATM    5  C   UNK N   1      31.019  17.447   4.446  0.00  0.00     0.010 A 
HETATM    6  C   UNK N   1      32.367  17.599   4.130  0.00  0.00     0.001 A 
ENDROOT
BRANCH   1   7
HETATM    7  C   UNK N   1      34.057  17.185   7.516  0.00  0.00     0.013 C 
HETATM    8  C   UNK N   1      34.565  18.442   8.201  0.00  0.00     0.015 C 
HETATM    9  C   UNK N   1      34.716  15.878   7.924  0.00  0.00     0.015 C 
ENDBRANCH   1   7
BRANCH   3  10
HETATM   10  O   UNK N   1      31.226  16.884   8.052  0.00  0.00    -0.360 OA
HETATM   11  H   UNK N   1      31.582  17.402   8.746  0.00  0.00     0.217 HD
ENDBRANCH   3  10
BRANCH   2  12
HETATM   12  C   UNK N   1      29.131  17.045   6.057  0.00  0.00     0.013 C 
HETATM   13  C   UNK N   1      28.426  15.731   5.768  0.00  0.00     0.015 C 
HETATM   14  C   UNK N   1      28.270  18.167   6.614  0.00  0.00     0.015 C 
ENDBRANCH   2  12
TORSDOF 3
ENDMDL
MODEL 8
REMARK VINA RESULT:      -4.6     11.287     13.890
REMARK  3 active torsions:
REMARK  status: ('A' for Active; 'I' for Inactive)
REMARK    1  A    between atoms: O_1  and  C_6 
REMARK    2  A    between atoms: C_2  and  C_4 
REMARK    3  A    between atoms: C_3  and  C_5 
ROOT
HETATM    1  C   UNK N   1      30.608  17.194   5.738  0.00  0.00    -0.021 A 
HETATM    2  C   UNK N   1      32.967  17.258   6.417  0.00  0.00    -0.021 A 
HETATM    3  C   UNK N   1      31.598  17.100   6.746  0.00  0.00     0.079 A 
HETATM    4  C   UNK N   1      31.002  17.444   4.416  0.00  0.00     0.010 A 
HETATM    5  C   UNK N   1      33.322  17.506   5.084  0.00  0.00     0.010 A 
HETATM    6  C   UNK N   1      32.349  17.598   4.091  0.00  0.00     0.001 A 
ENDROOT
BRANCH   1   7
HETATM    7  C   UNK N   1      29.129  17.030   6.040  0.00  0.00     0.013 C 
HETATM    8  C   UNK N   1      28.422  15.720   5.738  0.00  0.00     0.015 C 
HETATM    9  C   UNK N   1      28.272  18.144   6.619  0.00  0.00     0.015 C 
ENDBRANCH   1   7
BRANCH   3  10
HETATM   10  O   UNK N   1      31.238  16.861   8.018  0.00  0.00    -0.360 OA
HETATM   11  H   UNK N   1      31.843  16.459   8.609  0.00  0.00     0.217 HD
ENDBRANCH   3  10
BRANCH   2  12
HETATM   12  C   UNK N   1      34.065  17.168   7.462  0.00  0.00     0.013 C 
HETATM   13  C   UNK N   1      34.552  18.416   8.177  0.00  0.00     0.015 C 
HETATM   14  C   UNK N   1      34.753  15.863   7.831  0.00  0.00     0.015 C 
ENDBRANCH   2  12
TORSDOF 3
ENDMDL
MODEL 9
REMARK VINA RESULT:      -4.6      2.070      5.074
REMARK  3 active torsions:
REMARK  status: ('A' for Active; 'I' for Inactive)
REMARK    1  A    between atoms: O_1  and  C_6 
REMARK    2  A    between atoms: C_2  and  C_4 
REMARK    3  A    between atoms: C_3  and  C_5 
ROOT
HETATM    1  C   UNK N   1      36.577  12.370  15.434  0.00  0.00    -0.021 A 
HETATM    2  C   UNK N   1      36.027  10.708  17.156  0.00  0.00    -0.021 A 
HETATM    3  C   UNK N   1      35.910  12.019  16.633  0.00  0.00     0.079 A 
HETATM    4  C   UNK N   1      37.352  11.403  14.777  0.00  0.00     0.010 A 
HETATM    5  C   UNK N   1      36.809   9.769  16.470  0.00  0.00     0.010 A 
HETATM    6  C   UNK N   1      37.467  10.112  15.291  0.00  0.00     0.001 A 
ENDROOT
BRANCH   1   7
HETATM    7  C   UNK N   1      36.481  13.761  14.832  0.00  0.00     0.013 C 
HETATM    8  C   UNK N   1      35.730  13.986  13.531  0.00  0.00     0.015 C 
HETATM    9  C   UNK N   1      37.137  14.982  15.456  0.00  0.00     0.015 C 
ENDBRANCH   1   7
BRANCH   3  10
HETATM   10  O   UNK N   1      35.164  12.933  17.275  0.00  0.00    -0.360 OA
HETATM   11  H   UNK N   1      35.549  13.738  17.558  0.00  0.00     0.217 HD
ENDBRANCH   3  10
BRANCH   2  12
HETATM   12  C   UNK N   1      35.332  10.284  18.438  0.00  0.00     0.013 C 
HETATM   13  C   UNK N   1      34.195   9.278  18.402  0.00  0.00     0.015 C 
HETATM   14  C   UNK N   1      35.695  10.847  19.803  0.00  0.00     0.015 C 
ENDBRANCH   2  12
TORSDOF 3
ENDMDL
