MODEL 1
REMARK VINA RESULT:      -8.7      0.000      0.000
REMARK  1 active torsions:
REMARK  status: ('A' for Active; 'I' for Inactive)
REMARK    1  A    between atoms: C_9  and  C_16 
ROOT
HETATM    1  O   UNK N   1      29.506  13.007   4.107  0.00  0.00    -0.271 OA
HETATM    2  O   UNK N   1      25.902  16.408   2.300  0.00  0.00    -0.271 OA
HETATM    3  N   UNK N   1      27.140  15.772   4.088  0.00  0.00    -0.323 N 
HETATM    4  N   UNK N   1      27.373  18.045   7.112  0.00  0.00    -0.356 N 
HETATM    5  N   UNK N   1      28.266  13.730   2.395  0.00  0.00    -0.346 N 
HETATM    6  C   UNK N   1      28.159  14.861   4.630  0.00  0.00     0.185 A 
HETATM    7  C   UNK N   1      26.555  16.766   5.044  0.00  0.00     0.172 C 
HETATM    8  C   UNK N   1      29.360  15.677   5.140  0.00  0.00     0.076 C 
HETATM    9  C   UNK N   1      27.573  17.182   6.084  0.00  0.00     0.045 A 
HETATM   10  C   UNK N   1      28.856  16.685   6.105  0.00  0.00    -0.018 A 
HETATM   11  C   UNK N   1      28.683  13.809   3.685  0.00  0.00     0.243 A 
HETATM   12  C   UNK N   1      29.480  17.265   7.174  0.00  0.00    -0.001 A 
HETATM   13  C   UNK N   1      26.743  15.667   2.769  0.00  0.00     0.239 A 
HETATM   14  C   UNK N   1      27.304  14.637   1.834  0.00  0.00     0.228 A 
HETATM   15  C   UNK N   1      28.556  18.087   7.767  0.00  0.00     0.043 A 
HETATM   16  C   UNK N   1      30.774  17.124   7.670  0.00  0.00     0.014 A 
HETATM   17  C   UNK N   1      28.863  18.830   8.904  0.00  0.00     0.030 A 
HETATM   18  C   UNK N   1      28.792  12.704   1.530  0.00  0.00     0.153 C 
HETATM   19  C   UNK N   1      31.116  17.865   8.815  0.00  0.00     0.001 A 
HETATM   20  C   UNK N   1      30.165  18.713   9.430  0.00  0.00     0.002 A 
HETATM   21  H   UNK N   1      26.548  18.535   7.333  0.00  0.00     0.166 HD
ENDROOT
BRANCH   7  22
HETATM   22  C   UNK N   1      25.827  17.954   4.444  0.00  0.00    -0.027 A 
HETATM   23  C   UNK N   1      24.413  17.968   4.421  0.00  0.00     0.049 A 
HETATM   24  C   UNK N   1      23.784  19.028   3.774  0.00  0.00     0.105 A 
HETATM   25  O   UNK N   1      22.481  19.219   3.575  0.00  0.00    -0.323 OA
HETATM   26  C   UNK N   1      24.468  20.034   3.219  0.00  0.00     0.105 A 
HETATM   27  C   UNK N   1      22.315  20.405   2.852  0.00  0.00     0.352 A 
HETATM   28  O   UNK N   1      23.613  20.889   2.660  0.00  0.00    -0.323 OA
HETATM   29  C   UNK N   1      25.858  20.094   3.246  0.00  0.00     0.040 A 
HETATM   30  C   UNK N   1      26.544  19.029   3.858  0.00  0.00     0.012 A 
ENDBRANCH   7  22
TORSDOF 1
ENDMDL
MODEL 2
REMARK VINA RESULT:      -8.6      3.057      6.613
REMARK  1 active torsions:
REMARK  status: ('A' for Active; 'I' for Inactive)
REMARK    1  A    between atoms: C_9  and  C_16 
ROOT
HETATM    1  O   UNK N   1      28.298  13.269   1.601  0.00  0.00    -0.271 OA
HETATM    2  O   UNK N   1      31.868  14.487   5.286  0.00  0.00    -0.271 OA
HETATM    3  N   UNK N   1      30.261  15.288   3.904  0.00  0.00    -0.323 N 
HETATM    4  N   UNK N   1      28.954  18.812   4.394  0.00  0.00    -0.356 N 
HETATM    5  N   UNK N   1      29.877  12.573   3.019  0.00  0.00    -0.346 N 
HETATM    6  C   UNK N   1      29.236  14.993   2.891  0.00  0.00     0.185 A 
HETATM    7  C   UNK N   1      30.446  16.729   4.269  0.00  0.00     0.172 C 
HETATM    8  C   UNK N   1      27.860  15.455   3.401  0.00  0.00     0.076 C 
HETATM    9  C   UNK N   1      29.141  17.488   4.162  0.00  0.00     0.045 A 
HETATM   10  C   UNK N   1      27.965  16.887   3.777  0.00  0.00    -0.018 A 
HETATM   11  C   UNK N   1      29.112  13.551   2.469  0.00  0.00     0.243 A 
HETATM   12  C   UNK N   1      27.010  17.865   3.780  0.00  0.00    -0.001 A 
HETATM   13  C   UNK N   1      31.016  14.267   4.448  0.00  0.00     0.239 A 
HETATM   14  C   UNK N   1      30.852  12.833   4.041  0.00  0.00     0.228 A 
HETATM   15  C   UNK N   1      27.639  19.024   4.159  0.00  0.00     0.043 A 
HETATM   16  C   UNK N   1      25.652  17.825   3.470  0.00  0.00     0.014 A 
HETATM   17  C   UNK N   1      26.949  20.230   4.256  0.00  0.00     0.030 A 
HETATM   18  C   UNK N   1      29.725  11.208   2.579  0.00  0.00     0.153 C 
HETATM   19  C   UNK N   1      24.928  19.027   3.563  0.00  0.00     0.001 A 
HETATM   20  C   UNK N   1      25.574  20.224   3.953  0.00  0.00     0.002 A 
HETATM   21  H   UNK N   1      29.627  19.474   4.674  0.00  0.00     0.166 HD
ENDROOT
BRANCH   7  22
HETATM   22  C   UNK N   1      31.178  17.024   5.565  0.00  0.00    -0.027 A 
HETATM   23  C   UNK N   1      32.520  17.469   5.523  0.00  0.00     0.049 A 
HETATM   24  C   UNK N   1      33.188  17.634   6.734  0.00  0.00     0.105 A 
HETATM   25  O   UNK N   1      34.457  17.981   6.937  0.00  0.00    -0.323 OA
HETATM   26  C   UNK N   1      32.593  17.424   7.913  0.00  0.00     0.105 A 
HETATM   27  C   UNK N   1      34.696  17.991   8.316  0.00  0.00     0.352 A 
HETATM   28  O   UNK N   1      33.471  17.638   8.891  0.00  0.00    -0.323 OA
HETATM   29  C   UNK N   1      31.264  17.024   8.017  0.00  0.00     0.040 A 
HETATM   30  C   UNK N   1      30.553  16.810   6.821  0.00  0.00     0.012 A 
ENDBRANCH   7  22
TORSDOF 1
ENDMDL
MODEL 3
REMARK VINA RESULT:      -8.0     11.134     13.511
REMARK  1 active torsions:
REMARK  status: ('A' for Active; 'I' for Inactive)
REMARK    1  A    between atoms: C_9  and  C_16 
ROOT
HETATM    1  O   UNK N   1      31.026  23.455  -2.187  0.00  0.00    -0.271 OA
HETATM    2  O   UNK N   1      28.710  21.749  -6.607  0.00  0.00    -0.271 OA
HETATM    3  N   UNK N   1      28.582  23.199  -4.871  0.00  0.00    -0.323 N 
HETATM    4  N   UNK N   1      26.091  26.053  -4.990  0.00  0.00    -0.356 N 
HETATM    5  N   UNK N   1      31.077  22.086  -3.951  0.00  0.00    -0.346 N 
HETATM    6  C   UNK N   1      29.203  23.723  -3.645  0.00  0.00     0.185 A 
HETATM    7  C   UNK N   1      27.256  23.783  -5.252  0.00  0.00     0.172 C 
HETATM    8  C   UNK N   1      29.463  25.232  -3.804  0.00  0.00     0.076 C 
HETATM    9  C   UNK N   1      27.159  25.231  -4.825  0.00  0.00     0.045 A 
HETATM   10  C   UNK N   1      28.182  25.883  -4.177  0.00  0.00    -0.018 A 
HETATM   11  C   UNK N   1      30.497  23.074  -3.222  0.00  0.00     0.243 A 
HETATM   12  C   UNK N   1      27.744  27.156  -3.939  0.00  0.00    -0.001 A 
HETATM   13  C   UNK N   1      29.204  22.197  -5.592  0.00  0.00     0.239 A 
HETATM   14  C   UNK N   1      30.510  21.590  -5.174  0.00  0.00     0.228 A 
HETATM   15  C   UNK N   1      26.470  27.231  -4.444  0.00  0.00     0.043 A 
HETATM   16  C   UNK N   1      28.358  28.237  -3.313  0.00  0.00     0.014 A 
HETATM   17  C   UNK N   1      25.720  28.400  -4.359  0.00  0.00     0.030 A 
HETATM   18  C   UNK N   1      32.312  21.492  -3.505  0.00  0.00     0.153 C 
HETATM   19  C   UNK N   1      27.626  29.434  -3.214  0.00  0.00     0.001 A 
HETATM   20  C   UNK N   1      26.313  29.515  -3.734  0.00  0.00     0.002 A 
HETATM   21  H   UNK N   1      25.229  25.839  -5.415  0.00  0.00     0.166 HD
ENDROOT
BRANCH   7  22
HETATM   22  C   UNK N   1      26.796  23.571  -6.682  0.00  0.00    -0.027 A 
HETATM   23  C   UNK N   1      27.363  24.346  -7.720  0.00  0.00     0.049 A 
HETATM   24  C   UNK N   1      26.844  24.193  -9.003  0.00  0.00     0.105 A 
HETATM   25  O   UNK N   1      27.173  24.852 -10.112  0.00  0.00    -0.323 OA
HETATM   26  C   UNK N   1      25.869  23.321  -9.281  0.00  0.00     0.105 A 
HETATM   27  C   UNK N   1      26.369  24.386 -11.158  0.00  0.00     0.352 A 
HETATM   28  O   UNK N   1      25.562  23.403 -10.574  0.00  0.00    -0.323 OA
HETATM   29  C   UNK N   1      25.301  22.503  -8.308  0.00  0.00     0.040 A 
HETATM   30  C   UNK N   1      25.766  22.643  -6.987  0.00  0.00     0.012 A 
ENDBRANCH   7  22
TORSDOF 1
ENDMDL
MODEL 4
REMARK VINA RESULT:      -7.8     11.492     13.665
REMARK  1 active torsions:
REMARK  status: ('A' for Active; 'I' for Inactive)
REMARK    1  A    between atoms: C_9  and  C_16 
ROOT
HETATM    1  O   UNK N   1      27.137  20.967  -9.150  0.00  0.00    -0.271 OA
HETATM    2  O   UNK N   1      25.705  25.919  -8.037  0.00  0.00    -0.271 OA
HETATM    3  N   UNK N   1      26.598  24.003  -7.220  0.00  0.00    -0.323 N 
HETATM    4  N   UNK N   1      28.308  24.026  -3.837  0.00  0.00    -0.356 N 
HETATM    5  N   UNK N   1      26.296  22.907  -9.867  0.00  0.00    -0.346 N 
HETATM    6  C   UNK N   1      27.034  22.625  -7.489  0.00  0.00     0.185 A 
HETATM    7  C   UNK N   1      26.729  24.483  -5.806  0.00  0.00     0.172 C 
HETATM    8  C   UNK N   1      28.530  22.483  -7.157  0.00  0.00     0.076 C 
HETATM    9  C   UNK N   1      27.915  23.838  -5.122  0.00  0.00     0.045 A 
HETATM   10  C   UNK N   1      28.737  22.936  -5.759  0.00  0.00    -0.018 A 
HETATM   11  C   UNK N   1      26.823  22.121  -8.894  0.00  0.00     0.243 A 
HETATM   12  C   UNK N   1      29.680  22.557  -4.845  0.00  0.00    -0.001 A 
HETATM   13  C   UNK N   1      26.072  24.778  -8.236  0.00  0.00     0.239 A 
HETATM   14  C   UNK N   1      25.905  24.270  -9.637  0.00  0.00     0.228 A 
HETATM   15  C   UNK N   1      29.395  23.235  -3.686  0.00  0.00     0.043 A 
HETATM   16  C   UNK N   1      30.748  21.669  -4.941  0.00  0.00     0.014 A 
HETATM   17  C   UNK N   1      30.165  23.072  -2.538  0.00  0.00     0.030 A 
HETATM   18  C   UNK N   1      26.108  22.380 -11.196  0.00  0.00     0.153 C 
HETATM   19  C   UNK N   1      31.546  21.485  -3.798  0.00  0.00     0.001 A 
HETATM   20  C   UNK N   1      31.256  22.182  -2.601  0.00  0.00     0.002 A 
HETATM   21  H   UNK N   1      27.894  24.610  -3.162  0.00  0.00     0.166 HD
ENDROOT
BRANCH   7  22
HETATM   22  C   UNK N   1      26.680  25.982  -5.580  0.00  0.00    -0.027 A 
HETATM   23  C   UNK N   1      27.780  26.783  -5.964  0.00  0.00     0.049 A 
HETATM   24  C   UNK N   1      27.738  28.139  -5.650  0.00  0.00     0.105 A 
HETATM   25  O   UNK N   1      28.672  29.065  -5.855  0.00  0.00    -0.323 OA
HETATM   26  C   UNK N   1      26.688  28.700  -5.041  0.00  0.00     0.105 A 
HETATM   27  C   UNK N   1      28.206  30.283  -5.350  0.00  0.00     0.352 A 
HETATM   28  O   UNK N   1      26.931  29.995  -4.851  0.00  0.00    -0.323 OA
HETATM   29  C   UNK N   1      25.561  27.969  -4.675  0.00  0.00     0.040 A 
HETATM   30  C   UNK N   1      25.567  26.587  -4.939  0.00  0.00     0.012 A 
ENDBRANCH   7  22
TORSDOF 1
ENDMDL
MODEL 5
REMARK VINA RESULT:      -7.8      8.227     11.358
REMARK  1 active torsions:
REMARK  status: ('A' for Active; 'I' for Inactive)
REMARK    1  A    between atoms: C_9  and  C_16 
ROOT
HETATM    1  O   UNK N   1      35.499  17.693  10.151  0.00  0.00    -0.271 OA
HETATM    2  O   UNK N   1      33.663  13.628   7.337  0.00  0.00    -0.271 OA
HETATM    3  N   UNK N   1      35.008  14.261   9.047  0.00  0.00    -0.323 N 
HETATM    4  N   UNK N   1      36.365  11.647  11.432  0.00  0.00    -0.356 N 
HETATM    5  N   UNK N   1      34.179  16.966   8.503  0.00  0.00    -0.346 N 
HETATM    6  C   UNK N   1      35.528  15.361   9.874  0.00  0.00     0.185 A 
HETATM    7  C   UNK N   1      35.532  12.890   9.349  0.00  0.00     0.172 C 
HETATM    8  C   UNK N   1      35.167  15.111  11.349  0.00  0.00     0.076 C 
HETATM    9  C   UNK N   1      35.851  12.744  10.821  0.00  0.00     0.045 A 
HETATM   10  C   UNK N   1      35.665  13.764  11.724  0.00  0.00    -0.018 A 
HETATM   11  C   UNK N   1      35.060  16.747   9.511  0.00  0.00     0.243 A 
HETATM   12  C   UNK N   1      36.064  13.286  12.941  0.00  0.00    -0.001 A 
HETATM   13  C   UNK N   1      34.107  14.520   8.033  0.00  0.00     0.239 A 
HETATM   14  C   UNK N   1      33.625  15.903   7.712  0.00  0.00     0.228 A 
HETATM   15  C   UNK N   1      36.485  11.996  12.733  0.00  0.00     0.043 A 
HETATM   16  C   UNK N   1      36.101  13.884  14.198  0.00  0.00     0.014 A 
HETATM   17  C   UNK N   1      36.972  11.211  13.775  0.00  0.00     0.030 A 
HETATM   18  C   UNK N   1      33.763  18.311   8.189  0.00  0.00     0.153 C 
HETATM   19  C   UNK N   1      36.584  13.115  15.271  0.00  0.00     0.001 A 
HETATM   20  C   UNK N   1      37.019  11.785  15.061  0.00  0.00     0.002 A 
HETATM   21  H   UNK N   1      36.599  10.783  11.019  0.00  0.00     0.166 HD
ENDROOT
BRANCH   7  22
HETATM   22  C   UNK N   1      34.737  11.715   8.813  0.00  0.00    -0.027 A 
HETATM   23  C   UNK N   1      33.481  11.404   9.381  0.00  0.00     0.049 A 
HETATM   24  C   UNK N   1      32.828  10.260   8.929  0.00  0.00     0.105 A 
HETATM   25  O   UNK N   1      31.678   9.741   9.355  0.00  0.00    -0.323 OA
HETATM   26  C   UNK N   1      33.330   9.485   7.962  0.00  0.00     0.105 A 
HETATM   27  C   UNK N   1      31.427   8.571   8.631  0.00  0.00     0.352 A 
HETATM   28  O   UNK N   1      32.507   8.459   7.749  0.00  0.00    -0.323 OA
HETATM   29  C   UNK N   1      34.543   9.764   7.338  0.00  0.00     0.040 A 
HETATM   30  C   UNK N   1      35.260  10.890   7.782  0.00  0.00     0.012 A 
ENDBRANCH   7  22
TORSDOF 1
ENDMDL
MODEL 6
REMARK VINA RESULT:      -7.7      4.749      7.957
REMARK  1 active torsions:
REMARK  status: ('A' for Active; 'I' for Inactive)
REMARK    1  A    between atoms: C_9  and  C_16 
ROOT
HETATM    1  O   UNK N   1      32.197  13.371   1.715  0.00  0.00    -0.271 OA
HETATM    2  O   UNK N   1      35.296  15.334   5.504  0.00  0.00    -0.271 OA
HETATM    3  N   UNK N   1      33.225  15.356   4.586  0.00  0.00    -0.323 N 
HETATM    4  N   UNK N   1      30.363  16.991   6.457  0.00  0.00    -0.356 N 
HETATM    5  N   UNK N   1      34.197  13.399   2.708  0.00  0.00    -0.346 N 
HETATM    6  C   UNK N   1      32.317  14.819   3.561  0.00  0.00     0.185 A 
HETATM    7  C   UNK N   1      32.666  16.415   5.487  0.00  0.00     0.172 C 
HETATM    8  C   UNK N   1      31.102  14.164   4.242  0.00  0.00     0.076 C 
HETATM    9  C   UNK N   1      31.185  16.206   5.716  0.00  0.00     0.045 A 
HETATM   10  C   UNK N   1      30.488  15.164   5.151  0.00  0.00    -0.018 A 
HETATM   11  C   UNK N   1      32.909  13.814   2.606  0.00  0.00     0.243 A 
HETATM   12  C   UNK N   1      29.190  15.296   5.560  0.00  0.00    -0.001 A 
HETATM   13  C   UNK N   1      34.528  14.905   4.666  0.00  0.00     0.239 A 
HETATM   14  C   UNK N   1      35.088  13.877   3.729  0.00  0.00     0.228 A 
HETATM   15  C   UNK N   1      29.143  16.415   6.353  0.00  0.00     0.043 A 
HETATM   16  C   UNK N   1      28.058  14.531   5.289  0.00  0.00     0.014 A 
HETATM   17  C   UNK N   1      27.954  16.848   6.934  0.00  0.00     0.030 A 
HETATM   18  C   UNK N   1      34.721  12.439   1.768  0.00  0.00     0.153 C 
HETATM   19  C   UNK N   1      26.842  14.941   5.865  0.00  0.00     0.001 A 
HETATM   20  C   UNK N   1      26.790  16.095   6.682  0.00  0.00     0.002 A 
HETATM   21  H   UNK N   1      30.601  17.803   6.961  0.00  0.00     0.166 HD
ENDROOT
BRANCH   7  22
HETATM   22  C   UNK N   1      33.415  16.688   6.778  0.00  0.00    -0.027 A 
HETATM   23  C   UNK N   1      33.482  15.684   7.772  0.00  0.00     0.049 A 
HETATM   24  C   UNK N   1      34.093  16.007   8.981  0.00  0.00     0.105 A 
HETATM   25  O   UNK N   1      34.216  15.253  10.072  0.00  0.00    -0.323 OA
HETATM   26  C   UNK N   1      34.642  17.205   9.207  0.00  0.00     0.105 A 
HETATM   27  C   UNK N   1      34.875  16.002  11.053  0.00  0.00     0.352 A 
HETATM   28  O   UNK N   1      35.133  17.236  10.445  0.00  0.00    -0.323 OA
HETATM   29  C   UNK N   1      34.643  18.216   8.252  0.00  0.00     0.040 A 
HETATM   30  C   UNK N   1      34.007  17.954   7.024  0.00  0.00     0.012 A 
ENDBRANCH   7  22
TORSDOF 1
ENDMDL
MODEL 7
REMARK VINA RESULT:      -7.6      6.097      7.047
REMARK  1 active torsions:
REMARK  status: ('A' for Active; 'I' for Inactive)
REMARK    1  A    between atoms: C_9  and  C_16 
ROOT
HETATM    1  O   UNK N   1      20.701  10.561   2.871  0.00  0.00    -0.271 OA
HETATM    2  O   UNK N   1      21.364  15.632   1.582  0.00  0.00    -0.271 OA
HETATM    3  N   UNK N   1      20.743  14.183   3.211  0.00  0.00    -0.323 N 
HETATM    4  N   UNK N   1      20.349  15.421   6.771  0.00  0.00    -0.356 N 
HETATM    5  N   UNK N   1      21.322  12.067   1.343  0.00  0.00    -0.346 N 
HETATM    6  C   UNK N   1      20.565  12.783   3.623  0.00  0.00     0.185 A 
HETATM    7  C   UNK N   1      20.362  15.230   4.213  0.00  0.00     0.172 C 
HETATM    8  C   UNK N   1      21.443  12.493   4.854  0.00  0.00     0.076 C 
HETATM    9  C   UNK N   1      20.606  14.742   5.625  0.00  0.00     0.045 A 
HETATM   10  C   UNK N   1      21.114  13.493   5.900  0.00  0.00    -0.018 A 
HETATM   11  C   UNK N   1      20.872  11.737   2.581  0.00  0.00     0.243 A 
HETATM   12  C   UNK N   1      21.187  13.394   7.261  0.00  0.00    -0.001 A 
HETATM   13  C   UNK N   1      21.209  14.482   1.945  0.00  0.00     0.239 A 
HETATM   14  C   UNK N   1      21.544  13.426   0.935  0.00  0.00     0.228 A 
HETATM   15  C   UNK N   1      20.716  14.580   7.765  0.00  0.00     0.043 A 
HETATM   16  C   UNK N   1      21.617  12.357   8.086  0.00  0.00     0.014 A 
HETATM   17  C   UNK N   1      20.644  14.813   9.136  0.00  0.00     0.030 A 
HETATM   18  C   UNK N   1      21.597  11.031   0.378  0.00  0.00     0.153 C 
HETATM   19  C   UNK N   1      21.559  12.564   9.476  0.00  0.00     0.001 A 
HETATM   20  C   UNK N   1      21.074  13.786   9.998  0.00  0.00     0.002 A 
HETATM   21  H   UNK N   1      19.978  16.329   6.861  0.00  0.00     0.166 HD
ENDROOT
BRANCH   7  22
HETATM   22  C   UNK N   1      20.901  16.630   3.987  0.00  0.00    -0.027 A 
HETATM   23  C   UNK N   1      20.049  17.630   3.465  0.00  0.00     0.049 A 
HETATM   24  C   UNK N   1      20.606  18.874   3.179  0.00  0.00     0.105 A 
HETATM   25  O   UNK N   1      20.019  19.936   2.631  0.00  0.00    -0.323 OA
HETATM   26  C   UNK N   1      21.891  19.154   3.417  0.00  0.00     0.105 A 
HETATM   27  C   UNK N   1      20.973  20.952   2.505  0.00  0.00     0.352 A 
HETATM   28  O   UNK N   1      22.147  20.402   3.031  0.00  0.00    -0.323 OA
HETATM   29  C   UNK N   1      22.767  18.223   3.967  0.00  0.00     0.040 A 
HETATM   30  C   UNK N   1      22.263  16.938   4.243  0.00  0.00     0.012 A 
ENDBRANCH   7  22
TORSDOF 1
ENDMDL
MODEL 8
REMARK VINA RESULT:      -7.6      8.777     12.779
REMARK  1 active torsions:
REMARK  status: ('A' for Active; 'I' for Inactive)
REMARK    1  A    between atoms: C_9  and  C_16 
ROOT
HETATM    1  O   UNK N   1      34.578  13.454  13.105  0.00  0.00    -0.271 OA
HETATM    2  O   UNK N   1      38.585  11.731  10.141  0.00  0.00    -0.271 OA
HETATM    3  N   UNK N   1      36.581  12.789  10.141  0.00  0.00    -0.323 N 
HETATM    4  N   UNK N   1      35.433  14.634   7.036  0.00  0.00    -0.356 N 
HETATM    5  N   UNK N   1      36.570  12.451  13.003  0.00  0.00    -0.346 N 
HETATM    6  C   UNK N   1      35.452  13.307  10.929  0.00  0.00     0.185 A 
HETATM    7  C   UNK N   1      36.487  12.946   8.654  0.00  0.00     0.172 C 
HETATM    8  C   UNK N   1      35.314  14.822  10.697  0.00  0.00     0.076 C 
HETATM    9  C   UNK N   1      35.725  14.201   8.288  0.00  0.00     0.045 A 
HETATM   10  C   UNK N   1      35.207  15.055   9.235  0.00  0.00    -0.018 A 
HETATM   11  C   UNK N   1      35.515  13.072  12.417  0.00  0.00     0.243 A 
HETATM   12  C   UNK N   1      34.583  16.061   8.551  0.00  0.00    -0.001 A 
HETATM   13  C   UNK N   1      37.642  12.167  10.771  0.00  0.00     0.239 A 
HETATM   14  C   UNK N   1      37.702  11.977  12.257  0.00  0.00     0.228 A 
HETATM   15  C   UNK N   1      34.736  15.779   7.217  0.00  0.00     0.043 A 
HETATM   16  C   UNK N   1      33.888  17.183   8.997  0.00  0.00     0.014 A 
HETATM   17  C   UNK N   1      34.204  16.606   6.231  0.00  0.00     0.030 A 
HETATM   18  C   UNK N   1      36.583  12.244  14.430  0.00  0.00     0.153 C 
HETATM   19  C   UNK N   1      33.342  18.039   8.024  0.00  0.00     0.001 A 
HETATM   20  C   UNK N   1      33.498  17.752   6.648  0.00  0.00     0.002 A 
HETATM   21  H   UNK N   1      35.677  14.210   6.182  0.00  0.00     0.166 HD
ENDROOT
BRANCH   7  22
HETATM   22  C   UNK N   1      37.773  12.802   7.863  0.00  0.00    -0.027 A 
HETATM   23  C   UNK N   1      38.698  13.871   7.834  0.00  0.00     0.049 A 
HETATM   24  C   UNK N   1      39.819  13.739   7.018  0.00  0.00     0.105 A 
HETATM   25  O   UNK N   1      40.782  14.629   6.787  0.00  0.00    -0.323 OA
HETATM   26  C   UNK N   1      40.058  12.633   6.305  0.00  0.00     0.105 A 
HETATM   27  C   UNK N   1      41.687  14.072   5.876  0.00  0.00     0.352 A 
HETATM   28  O   UNK N   1      41.182  12.795   5.610  0.00  0.00    -0.323 OA
HETATM   29  C   UNK N   1      39.205  11.534   6.326  0.00  0.00     0.040 A 
HETATM   30  C   UNK N   1      38.039  11.630   7.108  0.00  0.00     0.012 A 
ENDBRANCH   7  22
TORSDOF 1
ENDMDL
MODEL 9
REMARK VINA RESULT:      -7.5      5.304      8.402
REMARK  1 active torsions:
REMARK  status: ('A' for Active; 'I' for Inactive)
REMARK    1  A    between atoms: C_9  and  C_16 
ROOT
HETATM    1  O   UNK N   1      34.174  14.935  11.305  0.00  0.00    -0.271 OA
HETATM    2  O   UNK N   1      35.193  13.632   6.298  0.00  0.00    -0.271 OA
HETATM    3  N   UNK N   1      33.622  14.372   7.753  0.00  0.00    -0.323 N 
HETATM    4  N   UNK N   1      30.369  15.801   6.434  0.00  0.00    -0.356 N 
HETATM    5  N   UNK N   1      35.658  14.239   9.788  0.00  0.00    -0.346 N 
HETATM    6  C   UNK N   1      33.298  14.769   9.132  0.00  0.00     0.185 A 
HETATM    7  C   UNK N   1      32.498  14.408   6.764  0.00  0.00     0.172 C 
HETATM    8  C   UNK N   1      32.801  16.225   9.146  0.00  0.00     0.076 C 
HETATM    9  C   UNK N   1      31.512  15.505   7.103  0.00  0.00     0.045 A 
HETATM   10  C   UNK N   1      31.673  16.337   8.187  0.00  0.00    -0.018 A 
HETATM   11  C   UNK N   1      34.413  14.651  10.140  0.00  0.00     0.243 A 
HETATM   12  C   UNK N   1      30.602  17.185   8.189  0.00  0.00    -0.001 A 
HETATM   13  C   UNK N   1      34.902  13.964   7.430  0.00  0.00     0.239 A 
HETATM   14  C   UNK N   1      36.007  13.889   8.440  0.00  0.00     0.228 A 
HETATM   15  C   UNK N   1      29.826  16.837   7.113  0.00  0.00     0.043 A 
HETATM   16  C   UNK N   1      30.249  18.219   9.054  0.00  0.00     0.014 A 
HETATM   17  C   UNK N   1      28.637  17.503   6.824  0.00  0.00     0.030 A 
HETATM   18  C   UNK N   1      36.692  14.138  10.788  0.00  0.00     0.153 C 
HETATM   19  C   UNK N   1      29.056  18.913   8.786  0.00  0.00     0.001 A 
HETATM   20  C   UNK N   1      28.253  18.556   7.677  0.00  0.00     0.002 A 
HETATM   21  H   UNK N   1      30.012  15.358   5.630  0.00  0.00     0.166 HD
ENDROOT
BRANCH   7  22
HETATM   22  C   UNK N   1      32.872  14.405   5.294  0.00  0.00    -0.027 A 
HETATM   23  C   UNK N   1      32.832  13.193   4.566  0.00  0.00     0.049 A 
HETATM   24  C   UNK N   1      33.277  13.213   3.246  0.00  0.00     0.105 A 
HETATM   25  O   UNK N   1      33.388  12.194   2.396  0.00  0.00    -0.323 OA
HETATM   26  C   UNK N   1      33.697  14.333   2.650  0.00  0.00     0.105 A 
HETATM   27  C   UNK N   1      33.908  12.679   1.192  0.00  0.00     0.352 A 
HETATM   28  O   UNK N   1      34.077  14.051   1.405  0.00  0.00    -0.323 OA
HETATM   29  C   UNK N   1      33.720  15.561   3.303  0.00  0.00     0.040 A 
HETATM   30  C   UNK N   1      33.313  15.591   4.650  0.00  0.00     0.012 A 
ENDBRANCH   7  22
TORSDOF 1
ENDMDL
