MODEL 1
REMARK VINA RESULT:      -7.5      0.000      0.000
REMARK  4 active torsions:
REMARK  status: ('A' for Active; 'I' for Inactive)
REMARK    1  A    between atoms: C_16  and  O_4 
REMARK    2  A    between atoms: O_6  and  C_26 
REMARK    3  A    between atoms: C_11  and  C_22 
REMARK    4  A    between atoms: C_22  and  C_26 
ROOT
HETATM    1  F   UNK N   1      33.176  13.250   7.508  0.00  0.00    -0.245 F 
HETATM    2  O   UNK N   1      26.774  16.275   6.562  0.00  0.00    -0.334 OA
HETATM    3  O   UNK N   1      26.395  15.122   4.568  0.00  0.00    -0.347 OA
HETATM    4  O   UNK N   1      35.564  16.700  10.273  0.00  0.00    -0.289 OA
HETATM    5  C   UNK N   1      28.930  17.226   5.854  0.00  0.00     0.004 C 
HETATM    6  C   UNK N   1      29.514  15.821   5.853  0.00  0.00     0.004 C 
HETATM    7  C   UNK N   1      31.062  15.858   5.808  0.00  0.00     0.001 C 
HETATM    8  C   UNK N   1      27.442  16.960   5.540  0.00  0.00     0.160 C 
HETATM    9  C   UNK N   1      31.663  17.086   6.601  0.00  0.00     0.035 C 
HETATM   10  C   UNK N   1      27.531  15.918   4.437  0.00  0.00     0.168 C 
HETATM   11  C   UNK N   1      28.815  15.100   4.704  0.00  0.00     0.041 C 
HETATM   12  C   UNK N   1      29.281  17.881   7.217  0.00  0.00     0.045 C 
HETATM   13  C   UNK N   1      30.696  17.476   7.758  0.00  0.00     0.124 C 
HETATM   14  C   UNK N   1      33.158  16.820   6.942  0.00  0.00     0.006 C 
HETATM   15  C   UNK N   1      31.657  14.483   6.180  0.00  0.00     0.047 C 
HETATM   16  C   UNK N   1      29.504  18.086   4.708  0.00  0.00     0.019 C 
HETATM   17  C   UNK N   1      32.384  14.383   7.530  0.00  0.00     0.200 C 
HETATM   18  C   UNK N   1      25.935  15.352   5.884  0.00  0.00     0.159 C 
HETATM   19  C   UNK N   1      33.224  15.597   7.851  0.00  0.00    -0.030 C 
HETATM   20  C   UNK N   1      33.915  16.512   5.652  0.00  0.00     0.025 C 
HETATM   21  C   UNK N   1      33.850  18.053   7.503  0.00  0.00    -0.008 C 
HETATM   22  C   UNK N   1      24.513  15.889   5.830  0.00  0.00     0.078 C 
HETATM   23  C   UNK N   1      25.931  14.038   6.641  0.00  0.00     0.078 C 
HETATM   24  C   UNK N   1      33.978  15.588   8.963  0.00  0.00     0.061 C 
HETATM   25  C   UNK N   1      34.609  18.020   8.604  0.00  0.00     0.052 C 
HETATM   26  C   UNK N   1      34.776  16.764   9.343  0.00  0.00     0.172 C 
ENDROOT
BRANCH   8  27
HETATM   27  C   UNK N   1      26.674  18.241   5.215  0.00  0.00     0.188 C 
HETATM   28  O   UNK N   1      26.524  19.084   6.085  0.00  0.00    -0.292 OA
BRANCH  27  29
HETATM   29  C   UNK N   1      26.162  18.524   3.834  0.00  0.00     0.245 C 
BRANCH  29  30
HETATM   30  O   UNK N   1      26.581  19.784   3.408  0.00  0.00    -0.393 OA
HETATM   31  H   UNK N   1      26.222  20.219   2.618  0.00  0.00     0.209 HD
ENDBRANCH  29  30
ENDBRANCH  27  29
ENDBRANCH   8  27
BRANCH  13  32
HETATM   32  O   UNK N   1      31.198  18.530   8.522  0.00  0.00    -0.395 OA
HETATM   33  H   UNK N   1      32.149  18.661   8.662  0.00  0.00     0.210 HD
ENDBRANCH  13  32
TORSDOF 4
ENDMDL
MODEL 2
REMARK VINA RESULT:      -7.4      2.772      7.427
REMARK  4 active torsions:
REMARK  status: ('A' for Active; 'I' for Inactive)
REMARK    1  A    between atoms: C_16  and  O_4 
REMARK    2  A    between atoms: O_6  and  C_26 
REMARK    3  A    between atoms: C_11  and  C_22 
REMARK    4  A    between atoms: C_22  and  C_26 
ROOT
HETATM    1  F   UNK N   1      25.359  15.451   6.965  0.00  0.00    -0.245 F 
HETATM    2  O   UNK N   1      32.487  15.309   7.414  0.00  0.00    -0.334 OA
HETATM    3  O   UNK N   1      32.554  17.192   8.792  0.00  0.00    -0.347 OA
HETATM    4  O   UNK N   1      24.544  13.188   2.554  0.00  0.00    -0.289 OA
HETATM    5  C   UNK N   1      31.183  16.392   5.632  0.00  0.00     0.004 C 
HETATM    6  C   UNK N   1      30.003  16.477   6.589  0.00  0.00     0.004 C 
HETATM    7  C   UNK N   1      28.689  16.791   5.833  0.00  0.00     0.001 C 
HETATM    8  C   UNK N   1      32.388  16.440   6.595  0.00  0.00     0.160 C 
HETATM    9  C   UNK N   1      28.641  16.131   4.397  0.00  0.00     0.035 C 
HETATM   10  C   UNK N   1      31.972  17.529   7.571  0.00  0.00     0.168 C 
HETATM   11  C   UNK N   1      30.430  17.478   7.659  0.00  0.00     0.041 C 
HETATM   12  C   UNK N   1      30.994  15.121   4.763  0.00  0.00     0.045 C 
HETATM   13  C   UNK N   1      29.496  14.828   4.401  0.00  0.00     0.124 C 
HETATM   14  C   UNK N   1      27.171  16.052   3.895  0.00  0.00     0.006 C 
HETATM   15  C   UNK N   1      27.459  16.511   6.724  0.00  0.00     0.047 C 
HETATM   16  C   UNK N   1      31.266  17.632   4.715  0.00  0.00     0.019 C 
HETATM   17  C   UNK N   1      26.585  15.306   6.342  0.00  0.00     0.200 C 
HETATM   18  C   UNK N   1      32.870  15.818   8.682  0.00  0.00     0.159 C 
HETATM   19  C   UNK N   1      26.394  15.152   4.851  0.00  0.00    -0.030 C 
HETATM   20  C   UNK N   1      26.557  17.449   3.931  0.00  0.00     0.025 C 
HETATM   21  C   UNK N   1      27.082  15.635   2.435  0.00  0.00    -0.008 C 
HETATM   22  C   UNK N   1      34.365  15.632   8.885  0.00  0.00     0.078 C 
HETATM   23  C   UNK N   1      32.132  15.056   9.765  0.00  0.00     0.078 C 
HETATM   24  C   UNK N   1      25.575  14.188   4.399  0.00  0.00     0.061 C 
HETATM   25  C   UNK N   1      26.248  14.682   2.003  0.00  0.00     0.052 C 
HETATM   26  C   UNK N   1      25.393  13.968   2.956  0.00  0.00     0.172 C 
ENDROOT
BRANCH   8  27
HETATM   27  C   UNK N   1      33.715  16.643   5.863  0.00  0.00     0.188 C 
HETATM   28  O   UNK N   1      34.252  17.738   5.892  0.00  0.00    -0.292 OA
BRANCH  27  29
HETATM   29  C   UNK N   1      34.413  15.510   5.171  0.00  0.00     0.245 C 
BRANCH  29  30
HETATM   30  O   UNK N   1      35.710  15.364   5.662  0.00  0.00    -0.393 OA
HETATM   31  H   UNK N   1      36.002  15.749   6.503  0.00  0.00     0.209 HD
ENDBRANCH  29  30
ENDBRANCH  27  29
ENDBRANCH   8  27
BRANCH  13  32
HETATM   32  O   UNK N   1      29.455  14.177   3.168  0.00  0.00    -0.395 OA
HETATM   33  H   UNK N   1      29.073  14.588   2.377  0.00  0.00     0.210 HD
ENDBRANCH  13  32
TORSDOF 4
ENDMDL
MODEL 3
REMARK VINA RESULT:      -7.3      4.518      8.624
REMARK  4 active torsions:
REMARK  status: ('A' for Active; 'I' for Inactive)
REMARK    1  A    between atoms: C_16  and  O_4 
REMARK    2  A    between atoms: O_6  and  C_26 
REMARK    3  A    between atoms: C_11  and  C_22 
REMARK    4  A    between atoms: C_22  and  C_26 
ROOT
HETATM    1  F   UNK N   1      20.026  15.648   8.064  0.00  0.00    -0.245 F 
HETATM    2  O   UNK N   1      26.401  17.483   5.415  0.00  0.00    -0.334 OA
HETATM    3  O   UNK N   1      25.500  18.077   3.345  0.00  0.00    -0.347 OA
HETATM    4  O   UNK N   1      21.283  12.277  11.572  0.00  0.00    -0.289 OA
HETATM    5  C   UNK N   1      25.449  15.215   5.422  0.00  0.00     0.004 C 
HETATM    6  C   UNK N   1      24.061  15.831   5.526  0.00  0.00     0.004 C 
HETATM    7  C   UNK N   1      23.008  14.774   5.942  0.00  0.00     0.001 C 
HETATM    8  C   UNK N   1      26.236  16.310   4.670  0.00  0.00     0.160 C 
HETATM    9  C   UNK N   1      23.593  13.692   6.934  0.00  0.00     0.035 C 
HETATM   10  C   UNK N   1      25.247  16.730   3.594  0.00  0.00     0.168 C 
HETATM   11  C   UNK N   1      23.835  16.530   4.189  0.00  0.00     0.041 C 
HETATM   12  C   UNK N   1      25.908  14.843   6.856  0.00  0.00     0.045 C 
HETATM   13  C   UNK N   1      24.743  14.328   7.772  0.00  0.00     0.124 C 
HETATM   14  C   UNK N   1      22.435  12.978   7.688  0.00  0.00     0.006 C 
HETATM   15  C   UNK N   1      21.701  15.451   6.407  0.00  0.00     0.047 C 
HETATM   16  C   UNK N   1      25.447  13.949   4.539  0.00  0.00     0.019 C 
HETATM   17  C   UNK N   1      21.370  15.367   7.905  0.00  0.00     0.200 C 
HETATM   18  C   UNK N   1      26.215  18.532   4.477  0.00  0.00     0.159 C 
HETATM   19  C   UNK N   1      21.696  14.024   8.517  0.00  0.00    -0.030 C 
HETATM   20  C   UNK N   1      21.464  12.390   6.666  0.00  0.00     0.025 C 
HETATM   21  C   UNK N   1      22.919  11.778   8.487  0.00  0.00    -0.008 C 
HETATM   22  C   UNK N   1      27.564  19.073   4.031  0.00  0.00     0.078 C 
HETATM   23  C   UNK N   1      25.434  19.653   5.135  0.00  0.00     0.078 C 
HETATM   24  C   UNK N   1      21.368  13.801   9.800  0.00  0.00     0.061 C 
HETATM   25  C   UNK N   1      22.568  11.565   9.760  0.00  0.00     0.052 C 
HETATM   26  C   UNK N   1      21.706  12.527  10.455  0.00  0.00     0.172 C 
ENDROOT
BRANCH   8  27
HETATM   27  C   UNK N   1      27.605  15.825   4.194  0.00  0.00     0.188 C 
HETATM   28  O   UNK N   1      27.830  15.750   2.997  0.00  0.00    -0.292 OA
BRANCH  27  29
HETATM   29  C   UNK N   1      28.707  15.508   5.161  0.00  0.00     0.245 C 
BRANCH  29  30
HETATM   30  O   UNK N   1      28.914  16.578   6.032  0.00  0.00    -0.393 OA
HETATM   31  H   UNK N   1      28.918  17.503   5.739  0.00  0.00     0.209 HD
ENDBRANCH  29  30
ENDBRANCH  27  29
ENDBRANCH   8  27
BRANCH  13  32
HETATM   32  O   UNK N   1      25.269  13.429   8.699  0.00  0.00    -0.395 OA
HETATM   33  H   UNK N   1      25.723  13.722   9.505  0.00  0.00     0.210 HD
ENDBRANCH  13  32
TORSDOF 4
ENDMDL
MODEL 4
REMARK VINA RESULT:      -7.3      2.427      7.513
REMARK  4 active torsions:
REMARK  status: ('A' for Active; 'I' for Inactive)
REMARK    1  A    between atoms: C_16  and  O_4 
REMARK    2  A    between atoms: O_6  and  C_26 
REMARK    3  A    between atoms: C_11  and  C_22 
REMARK    4  A    between atoms: C_22  and  C_26 
ROOT
HETATM    1  F   UNK N   1      27.583  18.001   8.790  0.00  0.00    -0.245 F 
HETATM    2  O   UNK N   1      33.819  14.569   8.191  0.00  0.00    -0.334 OA
HETATM    3  O   UNK N   1      35.042  16.426   8.904  0.00  0.00    -0.347 OA
HETATM    4  O   UNK N   1      24.725  15.566   5.450  0.00  0.00    -0.289 OA
HETATM    5  C   UNK N   1      32.657  15.760   6.380  0.00  0.00     0.004 C 
HETATM    6  C   UNK N   1      31.932  16.588   7.430  0.00  0.00     0.004 C 
HETATM    7  C   UNK N   1      30.719  17.332   6.819  0.00  0.00     0.001 C 
HETATM    8  C   UNK N   1      33.984  15.420   7.091  0.00  0.00     0.160 C 
HETATM    9  C   UNK N   1      30.009  16.501   5.677  0.00  0.00     0.035 C 
HETATM   10  C   UNK N   1      34.346  16.746   7.741  0.00  0.00     0.168 C 
HETATM   11  C   UNK N   1      33.013  17.456   8.069  0.00  0.00     0.041 C 
HETATM   12  C   UNK N   1      31.724  14.587   5.977  0.00  0.00     0.045 C 
HETATM   13  C   UNK N   1      30.205  14.979   5.949  0.00  0.00     0.124 C 
HETATM   14  C   UNK N   1      28.565  17.033   5.448  0.00  0.00     0.006 C 
HETATM   15  C   UNK N   1      29.780  17.857   7.927  0.00  0.00     0.047 C 
HETATM   16  C   UNK N   1      32.998  16.597   5.127  0.00  0.00     0.019 C 
HETATM   17  C   UNK N   1      28.414  17.167   8.064  0.00  0.00     0.200 C 
HETATM   18  C   UNK N   1      34.710  15.078   9.172  0.00  0.00     0.159 C 
HETATM   19  C   UNK N   1      27.777  16.827   6.737  0.00  0.00    -0.030 C 
HETATM   20  C   UNK N   1      28.629  18.529   5.148  0.00  0.00     0.025 C 
HETATM   21  C   UNK N   1      27.915  16.426   4.215  0.00  0.00    -0.008 C 
HETATM   22  C   UNK N   1      35.982  14.246   9.197  0.00  0.00     0.078 C 
HETATM   23  C   UNK N   1      34.048  14.995  10.533  0.00  0.00     0.078 C 
HETATM   24  C   UNK N   1      26.540  16.302   6.728  0.00  0.00     0.061 C 
HETATM   25  C   UNK N   1      26.676  15.921   4.223  0.00  0.00     0.052 C 
HETATM   26  C   UNK N   1      25.896  15.910   5.464  0.00  0.00     0.172 C 
ENDROOT
BRANCH   8  27
HETATM   27  C   UNK N   1      35.018  14.813   6.143  0.00  0.00     0.188 C 
HETATM   28  O   UNK N   1      36.040  15.432   5.899  0.00  0.00    -0.292 OA
BRANCH  27  29
HETATM   29  C   UNK N   1      34.843  13.441   5.562  0.00  0.00     0.245 C 
BRANCH  29  30
HETATM   30  O   UNK N   1      34.554  12.519   6.568  0.00  0.00    -0.393 OA
HETATM   31  H   UNK N   1      34.564  11.560   6.422  0.00  0.00     0.209 HD
ENDBRANCH  29  30
ENDBRANCH  27  29
ENDBRANCH   8  27
BRANCH  13  32
HETATM   32  O   UNK N   1      29.560  14.193   4.994  0.00  0.00    -0.395 OA
HETATM   33  H   UNK N   1      29.988  13.429   4.577  0.00  0.00     0.210 HD
ENDBRANCH  13  32
TORSDOF 4
ENDMDL
MODEL 5
REMARK VINA RESULT:      -7.2      3.390      8.565
REMARK  4 active torsions:
REMARK  status: ('A' for Active; 'I' for Inactive)
REMARK    1  A    between atoms: C_16  and  O_4 
REMARK    2  A    between atoms: O_6  and  C_26 
REMARK    3  A    between atoms: C_11  and  C_22 
REMARK    4  A    between atoms: C_22  and  C_26 
ROOT
HETATM    1  F   UNK N   1      31.692  18.680   8.824  0.00  0.00    -0.245 F 
HETATM    2  O   UNK N   1      35.071  12.644  10.607  0.00  0.00    -0.334 OA
HETATM    3  O   UNK N   1      36.968  13.787  11.344  0.00  0.00    -0.347 OA
HETATM    4  O   UNK N   1      28.564  17.101   5.223  0.00  0.00    -0.289 OA
HETATM    5  C   UNK N   1      35.055  13.674   8.373  0.00  0.00     0.004 C 
HETATM    6  C   UNK N   1      34.734  15.010   9.024  0.00  0.00     0.004 C 
HETATM    7  C   UNK N   1      34.237  16.039   7.979  0.00  0.00     0.001 C 
HETATM    8  C   UNK N   1      35.848  12.951   9.483  0.00  0.00     0.160 C 
HETATM    9  C   UNK N   1      33.389  15.370   6.825  0.00  0.00     0.035 C 
HETATM   10  C   UNK N   1      36.759  14.056   9.994  0.00  0.00     0.168 C 
HETATM   11  C   UNK N   1      35.991  15.384   9.805  0.00  0.00     0.041 C 
HETATM   12  C   UNK N   1      33.716  13.043   7.906  0.00  0.00     0.045 C 
HETATM   13  C   UNK N   1      32.681  14.097   7.377  0.00  0.00     0.124 C 
HETATM   14  C   UNK N   1      32.525  16.446   6.106  0.00  0.00     0.006 C 
HETATM   15  C   UNK N   1      33.566  17.246   8.670  0.00  0.00     0.047 C 
HETATM   16  C   UNK N   1      35.994  13.840   7.159  0.00  0.00     0.019 C 
HETATM   17  C   UNK N   1      32.044  17.380   8.511  0.00  0.00     0.200 C 
HETATM   18  C   UNK N   1      35.921  12.912  11.712  0.00  0.00     0.159 C 
HETATM   19  C   UNK N   1      31.552  17.028   7.126  0.00  0.00    -0.030 C 
HETATM   20  C   UNK N   1      33.437  17.565   5.608  0.00  0.00     0.025 C 
HETATM   21  C   UNK N   1      31.862  15.907   4.848  0.00  0.00    -0.008 C 
HETATM   22  C   UNK N   1      36.515  11.614  12.235  0.00  0.00     0.078 C 
HETATM   23  C   UNK N   1      35.107  13.555  12.818  0.00  0.00     0.078 C 
HETATM   24  C   UNK N   1      30.249  17.192   6.841  0.00  0.00     0.061 C 
HETATM   25  C   UNK N   1      30.565  16.095   4.575  0.00  0.00     0.052 C 
HETATM   26  C   UNK N   1      29.713  16.820   5.522  0.00  0.00     0.172 C 
ENDROOT
BRANCH   8  27
HETATM   27  C   UNK N   1      36.527  11.676   8.983  0.00  0.00     0.188 C 
HETATM   28  O   UNK N   1      37.746  11.622   8.949  0.00  0.00    -0.292 OA
BRANCH  27  29
HETATM   29  C   UNK N   1      35.735  10.460   8.604  0.00  0.00     0.245 C 
BRANCH  29  30
HETATM   30  O   UNK N   1      34.843  10.122   9.621  0.00  0.00    -0.393 OA
HETATM   31  H   UNK N   1      34.952   9.336  10.178  0.00  0.00     0.209 HD
ENDBRANCH  29  30
ENDBRANCH  27  29
ENDBRANCH   8  27
BRANCH  13  32
HETATM   32  O   UNK N   1      31.880  13.487   6.410  0.00  0.00    -0.395 OA
HETATM   33  H   UNK N   1      32.253  13.050   5.629  0.00  0.00     0.210 HD
ENDBRANCH  13  32
TORSDOF 4
ENDMDL
MODEL 6
REMARK VINA RESULT:      -7.2      3.262      5.331
REMARK  4 active torsions:
REMARK  status: ('A' for Active; 'I' for Inactive)
REMARK    1  A    between atoms: C_16  and  O_4 
REMARK    2  A    between atoms: O_6  and  C_26 
REMARK    3  A    between atoms: C_11  and  C_22 
REMARK    4  A    between atoms: C_22  and  C_26 
ROOT
HETATM    1  F   UNK N   1      36.652  10.881   9.345  0.00  0.00    -0.245 F 
HETATM    2  O   UNK N   1      31.422  14.482   6.073  0.00  0.00    -0.334 OA
HETATM    3  O   UNK N   1      32.557  14.509   4.034  0.00  0.00    -0.347 OA
HETATM    4  O   UNK N   1      36.059  12.293  14.130  0.00  0.00    -0.289 OA
HETATM    5  C   UNK N   1      33.265  15.481   7.359  0.00  0.00     0.004 C 
HETATM    6  C   UNK N   1      34.081  14.221   7.111  0.00  0.00     0.004 C 
HETATM    7  C   UNK N   1      35.306  14.151   8.056  0.00  0.00     0.001 C 
HETATM    8  C   UNK N   1      32.351  15.529   6.116  0.00  0.00     0.160 C 
HETATM    9  C   UNK N   1      35.010  14.769   9.480  0.00  0.00     0.035 C 
HETATM   10  C   UNK N   1      33.316  15.169   4.998  0.00  0.00     0.168 C 
HETATM   11  C   UNK N   1      34.375  14.226   5.613  0.00  0.00     0.041 C 
HETATM   12  C   UNK N   1      32.595  15.342   8.752  0.00  0.00     0.045 C 
HETATM   13  C   UNK N   1      33.495  14.608   9.807  0.00  0.00     0.124 C 
HETATM   14  C   UNK N   1      36.050  14.248  10.514  0.00  0.00     0.006 C 
HETATM   15  C   UNK N   1      35.909  12.729   8.071  0.00  0.00     0.047 C 
HETATM   16  C   UNK N   1      34.148  16.748   7.340  0.00  0.00     0.019 C 
HETATM   17  C   UNK N   1      35.732  11.913   9.361  0.00  0.00     0.200 C 
HETATM   18  C   UNK N   1      31.388  14.090   4.710  0.00  0.00     0.159 C 
HETATM   19  C   UNK N   1      35.895  12.735  10.618  0.00  0.00    -0.030 C 
HETATM   20  C   UNK N   1      37.455  14.562  10.006  0.00  0.00     0.025 C 
HETATM   21  C   UNK N   1      35.955  14.978  11.845  0.00  0.00    -0.008 C 
HETATM   22  C   UNK N   1      30.173  14.696   4.026  0.00  0.00     0.078 C 
HETATM   23  C   UNK N   1      31.289  12.579   4.631  0.00  0.00     0.078 C 
HETATM   24  C   UNK N   1      35.851  12.113  11.808  0.00  0.00     0.061 C 
HETATM   25  C   UNK N   1      35.928  14.341  13.021  0.00  0.00     0.052 C 
HETATM   26  C   UNK N   1      35.958  12.875  13.062  0.00  0.00     0.172 C 
ENDROOT
BRANCH   8  27
HETATM   27  C   UNK N   1      31.609  16.859   5.985  0.00  0.00     0.188 C 
HETATM   28  O   UNK N   1      31.852  17.586   5.035  0.00  0.00    -0.292 OA
BRANCH  27  29
HETATM   29  C   UNK N   1      30.536  17.260   6.952  0.00  0.00     0.245 C 
BRANCH  29  30
HETATM   30  O   UNK N   1      29.384  16.502   6.744  0.00  0.00    -0.393 OA
HETATM   31  H   UNK N   1      29.207  16.027   5.917  0.00  0.00     0.209 HD
ENDBRANCH  29  30
ENDBRANCH  27  29
ENDBRANCH   8  27
BRANCH  13  32
HETATM   32  O   UNK N   1      33.182  15.098  11.076  0.00  0.00    -0.395 OA
HETATM   33  H   UNK N   1      33.753  14.945  11.845  0.00  0.00     0.210 HD
ENDBRANCH  13  32
TORSDOF 4
ENDMDL
MODEL 7
REMARK VINA RESULT:      -7.1     11.835     14.397
REMARK  4 active torsions:
REMARK  status: ('A' for Active; 'I' for Inactive)
REMARK    1  A    between atoms: C_16  and  O_4 
REMARK    2  A    between atoms: O_6  and  C_26 
REMARK    3  A    between atoms: C_11  and  C_22 
REMARK    4  A    between atoms: C_22  and  C_26 
ROOT
HETATM    1  F   UNK N   1      31.975  21.971  -8.214  0.00  0.00    -0.245 F 
HETATM    2  O   UNK N   1      26.465  25.531  -5.386  0.00  0.00    -0.334 OA
HETATM    3  O   UNK N   1      26.844  27.409  -6.718  0.00  0.00    -0.347 OA
HETATM    4  O   UNK N   1      33.209  18.828  -4.493  0.00  0.00    -0.289 OA
HETATM    5  C   UNK N   1      28.746  25.454  -4.469  0.00  0.00     0.004 C 
HETATM    6  C   UNK N   1      29.260  25.108  -5.858  0.00  0.00     0.004 C 
HETATM    7  C   UNK N   1      30.711  24.569  -5.802  0.00  0.00     0.001 C 
HETATM    8  C   UNK N   1      27.482  26.282  -4.784  0.00  0.00     0.160 C 
HETATM    9  C   UNK N   1      30.992  23.721  -4.498  0.00  0.00     0.035 C 
HETATM   10  C   UNK N   1      27.961  27.172  -5.921  0.00  0.00     0.168 C 
HETATM   11  C   UNK N   1      29.033  26.368  -6.690  0.00  0.00     0.041 C 
HETATM   12  C   UNK N   1      28.570  24.124  -3.688  0.00  0.00     0.045 C 
HETATM   13  C   UNK N   1      29.668  23.054  -4.021  0.00  0.00     0.124 C 
HETATM   14  C   UNK N   1      32.242  22.818  -4.709  0.00  0.00     0.006 C 
HETATM   15  C   UNK N   1      31.094  23.879  -7.129  0.00  0.00     0.047 C 
HETATM   16  C   UNK N   1      29.728  26.369  -3.706  0.00  0.00     0.019 C 
HETATM   17  C   UNK N   1      31.255  22.351  -7.095  0.00  0.00     0.200 C 
HETATM   18  C   UNK N   1      25.926  26.390  -6.378  0.00  0.00     0.159 C 
HETATM   19  C   UNK N   1      31.936  21.846  -5.845  0.00  0.00    -0.030 C 
HETATM   20  C   UNK N   1      33.424  23.693  -5.121  0.00  0.00     0.025 C 
HETATM   21  C   UNK N   1      32.695  22.149  -3.421  0.00  0.00    -0.008 C 
HETATM   22  C   UNK N   1      24.641  27.026  -5.871  0.00  0.00     0.078 C 
HETATM   23  C   UNK N   1      25.610  25.578  -7.619  0.00  0.00     0.078 C 
HETATM   24  C   UNK N   1      32.213  20.536  -5.742  0.00  0.00     0.061 C 
HETATM   25  C   UNK N   1      32.981  20.845  -3.343  0.00  0.00     0.052 C 
HETATM   26  C   UNK N   1      32.832  19.989  -4.524  0.00  0.00     0.172 C 
ENDROOT
BRANCH   8  27
HETATM   27  C   UNK N   1      26.919  26.985  -3.550  0.00  0.00     0.188 C 
HETATM   28  O   UNK N   1      26.347  26.327  -2.697  0.00  0.00    -0.292 OA
BRANCH  27  29
HETATM   29  C   UNK N   1      27.116  28.454  -3.323  0.00  0.00     0.245 C 
BRANCH  29  30
HETATM   30  O   UNK N   1      25.887  29.115  -3.315  0.00  0.00    -0.393 OA
HETATM   31  H   UNK N   1      25.050  28.674  -3.527  0.00  0.00     0.209 HD
ENDBRANCH  29  30
ENDBRANCH  27  29
ENDBRANCH   8  27
BRANCH  13  32
HETATM   32  O   UNK N   1      29.865  22.254  -2.895  0.00  0.00    -0.395 OA
HETATM   33  H   UNK N   1      29.930  21.288  -2.951  0.00  0.00     0.210 HD
ENDBRANCH  13  32
TORSDOF 4
ENDMDL
MODEL 8
REMARK VINA RESULT:      -7.0     11.907     15.285
REMARK  4 active torsions:
REMARK  status: ('A' for Active; 'I' for Inactive)
REMARK    1  A    between atoms: C_16  and  O_4 
REMARK    2  A    between atoms: O_6  and  C_26 
REMARK    3  A    between atoms: C_11  and  C_22 
REMARK    4  A    between atoms: C_22  and  C_26 
ROOT
HETATM    1  F   UNK N   1      26.620  25.282  -8.327  0.00  0.00    -0.245 F 
HETATM    2  O   UNK N   1      32.518  21.729  -6.423  0.00  0.00    -0.334 OA
HETATM    3  O   UNK N   1      31.744  19.724  -7.333  0.00  0.00    -0.347 OA
HETATM    4  O   UNK N   1      26.480  28.975  -4.922  0.00  0.00    -0.289 OA
HETATM    5  C   UNK N   1      30.543  22.097  -5.004  0.00  0.00     0.004 C 
HETATM    6  C   UNK N   1      29.712  22.292  -6.263  0.00  0.00     0.004 C 
HETATM    7  C   UNK N   1      28.344  22.941  -5.937  0.00  0.00     0.001 C 
HETATM    8  C   UNK N   1      31.654  21.143  -5.490  0.00  0.00     0.160 C 
HETATM    9  C   UNK N   1      28.431  23.973  -4.744  0.00  0.00     0.035 C 
HETATM   10  C   UNK N   1      30.872  20.148  -6.333  0.00  0.00     0.168 C 
HETATM   11  C   UNK N   1      29.675  20.920  -6.931  0.00  0.00     0.041 C 
HETATM   12  C   UNK N   1      30.961  23.502  -4.493  0.00  0.00     0.045 C 
HETATM   13  C   UNK N   1      29.858  24.597  -4.704  0.00  0.00     0.124 C 
HETATM   14  C   UNK N   1      27.204  24.931  -4.777  0.00  0.00     0.006 C 
HETATM   15  C   UNK N   1      27.668  23.475  -7.219  0.00  0.00     0.047 C 
HETATM   16  C   UNK N   1      29.748  21.367  -3.900  0.00  0.00     0.019 C 
HETATM   17  C   UNK N   1      27.581  25.002  -7.373  0.00  0.00     0.200 C 
HETATM   18  C   UNK N   1      32.758  20.708  -7.379  0.00  0.00     0.159 C 
HETATM   19  C   UNK N   1      27.255  25.717  -6.083  0.00  0.00    -0.030 C 
HETATM   20  C   UNK N   1      25.924  24.099  -4.757  0.00  0.00     0.025 C 
HETATM   21  C   UNK N   1      27.115  25.796  -3.530  0.00  0.00    -0.008 C 
HETATM   22  C   UNK N   1      34.103  20.052  -7.110  0.00  0.00     0.078 C 
HETATM   23  C   UNK N   1      32.785  21.323  -8.765  0.00  0.00     0.078 C 
HETATM   24  C   UNK N   1      27.064  27.047  -6.110  0.00  0.00     0.061 C 
HETATM   25  C   UNK N   1      26.909  27.118  -3.578  0.00  0.00     0.052 C 
HETATM   26  C   UNK N   1      26.791  27.795  -4.873  0.00  0.00     0.172 C 
ENDROOT
BRANCH   8  27
HETATM   27  C   UNK N   1      32.480  20.570  -4.339  0.00  0.00     0.188 C 
HETATM   28  O   UNK N   1      32.580  19.359  -4.219  0.00  0.00    -0.292 OA
BRANCH  27  29
HETATM   29  C   UNK N   1      33.235  21.457  -3.394  0.00  0.00     0.245 C 
BRANCH  29  30
HETATM   30  O   UNK N   1      32.847  21.208  -2.077  0.00  0.00    -0.393 OA
HETATM   31  H   UNK N   1      31.924  21.248  -1.783  0.00  0.00     0.209 HD
ENDBRANCH  29  30
ENDBRANCH  27  29
ENDBRANCH   8  27
BRANCH  13  32
HETATM   32  O   UNK N   1      29.980  25.552  -3.694  0.00  0.00    -0.395 OA
HETATM   33  H   UNK N   1      29.912  25.323  -2.754  0.00  0.00     0.210 HD
ENDBRANCH  13  32
TORSDOF 4
ENDMDL
MODEL 9
REMARK VINA RESULT:      -7.0      2.926      5.245
REMARK  4 active torsions:
REMARK  status: ('A' for Active; 'I' for Inactive)
REMARK    1  A    between atoms: C_16  and  O_4 
REMARK    2  A    between atoms: O_6  and  C_26 
REMARK    3  A    between atoms: C_11  and  C_22 
REMARK    4  A    between atoms: C_22  and  C_26 
ROOT
HETATM    1  F   UNK N   1      31.021  16.793   3.921  0.00  0.00    -0.245 F 
HETATM    2  O   UNK N   1      24.891  13.183   3.273  0.00  0.00    -0.334 OA
HETATM    3  O   UNK N   1      24.677  13.724   1.013  0.00  0.00    -0.347 OA
HETATM    4  O   UNK N   1      31.022  17.982   8.803  0.00  0.00    -0.289 OA
HETATM    5  C   UNK N   1      25.111  15.513   4.031  0.00  0.00     0.004 C 
HETATM    6  C   UNK N   1      26.445  15.591   3.305  0.00  0.00     0.004 C 
HETATM    7  C   UNK N   1      27.260  16.826   3.761  0.00  0.00     0.001 C 
HETATM    8  C   UNK N   1      24.343  14.469   3.192  0.00  0.00     0.160 C 
HETATM    9  C   UNK N   1      27.043  17.167   5.289  0.00  0.00     0.035 C 
HETATM   10  C   UNK N   1      24.682  14.892   1.772  0.00  0.00     0.168 C 
HETATM   11  C   UNK N   1      26.095  15.515   1.821  0.00  0.00     0.041 C 
HETATM   12  C   UNK N   1      25.403  15.180   5.519  0.00  0.00     0.045 C 
HETATM   13  C   UNK N   1      26.707  15.858   6.066  0.00  0.00     0.124 C 
HETATM   14  C   UNK N   1      28.208  18.058   5.808  0.00  0.00     0.006 C 
HETATM   15  C   UNK N   1      28.735  16.707   3.319  0.00  0.00     0.047 C 
HETATM   16  C   UNK N   1      24.334  16.845   3.947  0.00  0.00     0.019 C 
HETATM   17  C   UNK N   1      29.774  16.470   4.426  0.00  0.00     0.200 C 
HETATM   18  C   UNK N   1      24.804  12.674   1.951  0.00  0.00     0.159 C 
HETATM   19  C   UNK N   1      29.503  17.262   5.684  0.00  0.00    -0.030 C 
HETATM   20  C   UNK N   1      28.312  19.301   4.927  0.00  0.00     0.025 C 
HETATM   21  C   UNK N   1      27.941  18.603   7.202  0.00  0.00    -0.008 C 
HETATM   22  C   UNK N   1      23.605  11.748   1.830  0.00  0.00     0.078 C 
HETATM   23  C   UNK N   1      26.062  11.887   1.640  0.00  0.00     0.078 C 
HETATM   24  C   UNK N   1      30.392  17.206   6.689  0.00  0.00     0.061 C 
HETATM   25  C   UNK N   1      28.846  18.551   8.186  0.00  0.00     0.052 C 
HETATM   26  C   UNK N   1      30.150  17.922   7.952  0.00  0.00     0.172 C 
ENDROOT
BRANCH   8  27
HETATM   27  C   UNK N   1      22.860  14.402   3.555  0.00  0.00     0.188 C 
HETATM   28  O   UNK N   1      22.027  14.738   2.728  0.00  0.00    -0.292 OA
BRANCH  27  29
HETATM   29  C   UNK N   1      22.396  13.864   4.876  0.00  0.00     0.245 C 
BRANCH  29  30
HETATM   30  O   UNK N   1      22.956  12.609   5.115  0.00  0.00    -0.393 OA
HETATM   31  H   UNK N   1      23.909  12.438   5.057  0.00  0.00     0.209 HD
ENDBRANCH  29  30
ENDBRANCH  27  29
ENDBRANCH   8  27
BRANCH  13  32
HETATM   32  O   UNK N   1      26.548  16.092   7.432  0.00  0.00    -0.395 OA
HETATM   33  H   UNK N   1      27.303  16.182   8.034  0.00  0.00     0.210 HD
ENDBRANCH  13  32
TORSDOF 4
ENDMDL
