MODEL 1
REMARK VINA RESULT:      -7.6      0.000      0.000
REMARK  4 active torsions:
REMARK  status: ('A' for Active; 'I' for Inactive)
REMARK    1  A    between atoms: C_7  and  O_1 
REMARK    2  A    between atoms: N_3  and  C_29 
REMARK    3  A    between atoms: C_7  and  C_19 
REMARK    4  A    between atoms: C_11  and  C_17 
ROOT
HETATM    1  C   UNK N   1      32.795   9.049  20.932  0.00  0.00    -0.068 C 
HETATM    2  C   UNK N   1      31.756   8.467  20.739  0.00  0.00    -0.108 C 
HETATM    3  C   UNK N   1      30.529   7.764  20.356  0.00  0.00     0.112 C 
ENDROOT
BRANCH   1   4
HETATM    4  C   UNK N   1      34.087   9.751  20.866  0.00  0.00     0.128 C 
HETATM    5  C   UNK N   1      34.937   9.613  19.594  0.00  0.00     0.004 C 
HETATM    6  C   UNK N   1      35.722   8.320  19.764  0.00  0.00     0.006 C 
HETATM    7  C   UNK N   1      34.162   9.481  18.307  0.00  0.00     0.027 C 
HETATM    8  C   UNK N   1      35.884  10.838  19.528  0.00  0.00     0.020 C 
HETATM    9  C   UNK N   1      36.916   8.284  18.764  0.00  0.00     0.021 C 
HETATM   10  C   UNK N   1      36.097   8.339  21.243  0.00  0.00     0.010 C 
HETATM   11  C   UNK N   1      36.503   8.707  17.345  0.00  0.00    -0.060 C 
HETATM   12  C   UNK N   1      37.658   6.954  18.721  0.00  0.00     0.014 C 
HETATM   13  C   UNK N   1      35.105   9.352  17.111  0.00  0.00     0.049 C 
HETATM   14  C   UNK N   1      37.387   8.507  16.317  0.00  0.00    -0.048 C 
HETATM   15  C   UNK N   1      38.685   7.800  16.571  0.00  0.00    -0.048 C 
HETATM   16  C   UNK N   1      37.064   8.983  14.914  0.00  0.00     0.047 C 
HETATM   17  C   UNK N   1      38.946   7.129  17.898  0.00  0.00     0.040 C 
HETATM   18  C   UNK N   1      39.617   7.699  15.612  0.00  0.00     0.057 C 
HETATM   19  C   UNK N   1      39.390   8.207  14.248  0.00  0.00     0.150 C 
HETATM   20  O   UNK N   1      40.305   8.215  13.442  0.00  0.00    -0.293 OA
HETATM   21  C   UNK N   1      38.011   8.561  13.793  0.00  0.00     0.087 C 
HETATM   22  C   UNK N   1      35.022   9.202  21.947  0.00  0.00     0.052 C 
BRANCH   4  23
HETATM   23  O   UNK N   1      33.785  11.096  21.104  0.00  0.00    -0.377 OA
HETATM   24  H   UNK N   1      32.990  11.564  21.404  0.00  0.00     0.211 HD
ENDBRANCH   4  23
BRANCH  13  25
HETATM   25  C   UNK N   1      34.997  10.614  16.320  0.00  0.00    -0.050 C 
HETATM   26  C   UNK N   1      35.873  11.695  16.487  0.00  0.00     0.010 C 
HETATM   27  C   UNK N   1      35.955  12.666  15.490  0.00  0.00     0.030 C 
HETATM   28  C   UNK N   1      35.146  12.572  14.342  0.00  0.00     0.029 C 
HETATM   29  C   UNK N   1      34.167  11.575  14.272  0.00  0.00     0.030 C 
HETATM   30  C   UNK N   1      34.104  10.597  15.249  0.00  0.00     0.010 C 
BRANCH  28  31
HETATM   31  N   UNK N   1      35.431  13.353  13.188  0.00  0.00    -0.390 N 
HETATM   32  C   UNK N   1      35.228  12.799  11.872  0.00  0.00     0.149 C 
HETATM   33  C   UNK N   1      36.268  14.519  13.303  0.00  0.00     0.149 C 
ENDBRANCH  28  31
ENDBRANCH  13  25
ENDBRANCH   1   4
TORSDOF 4
ENDMDL
MODEL 2
REMARK VINA RESULT:      -7.6      2.907      6.566
REMARK  4 active torsions:
REMARK  status: ('A' for Active; 'I' for Inactive)
REMARK    1  A    between atoms: C_7  and  O_1 
REMARK    2  A    between atoms: N_3  and  C_29 
REMARK    3  A    between atoms: C_7  and  C_19 
REMARK    4  A    between atoms: C_11  and  C_17 
ROOT
HETATM    1  C   UNK N   1      36.236  13.672  15.043  0.00  0.00    -0.068 C 
HETATM    2  C   UNK N   1      36.825  14.621  15.501  0.00  0.00    -0.108 C 
HETATM    3  C   UNK N   1      37.562  15.687  16.182  0.00  0.00     0.112 C 
ENDROOT
BRANCH   1   4
HETATM    4  C   UNK N   1      35.576  12.389  14.754  0.00  0.00     0.128 C 
HETATM    5  C   UNK N   1      35.815  11.206  15.703  0.00  0.00     0.004 C 
HETATM    6  C   UNK N   1      37.117  10.566  15.240  0.00  0.00     0.006 C 
HETATM    7  C   UNK N   1      36.004  11.567  17.156  0.00  0.00     0.027 C 
HETATM    8  C   UNK N   1      34.623  10.228  15.543  0.00  0.00     0.020 C 
HETATM    9  C   UNK N   1      37.247   9.132  15.833  0.00  0.00     0.021 C 
HETATM   10  C   UNK N   1      37.017  10.649  13.721  0.00  0.00     0.010 C 
HETATM   11  C   UNK N   1      36.901   9.084  17.330  0.00  0.00    -0.060 C 
HETATM   12  C   UNK N   1      38.598   8.471  15.585  0.00  0.00     0.014 C 
HETATM   13  C   UNK N   1      36.233  10.317  18.005  0.00  0.00     0.049 C 
HETATM   14  C   UNK N   1      37.188   7.943  18.034  0.00  0.00    -0.048 C 
HETATM   15  C   UNK N   1      37.914   6.813  17.367  0.00  0.00    -0.048 C 
HETATM   16  C   UNK N   1      36.790   7.811  19.491  0.00  0.00     0.047 C 
HETATM   17  C   UNK N   1      38.510   6.989  15.991  0.00  0.00     0.040 C 
HETATM   18  C   UNK N   1      38.100   5.643  17.995  0.00  0.00     0.057 C 
HETATM   19  C   UNK N   1      37.671   5.430  19.388  0.00  0.00     0.150 C 
HETATM   20  O   UNK N   1      37.738   4.317  19.881  0.00  0.00    -0.293 OA
HETATM   21  C   UNK N   1      37.307   6.593  20.253  0.00  0.00     0.087 C 
HETATM   22  C   UNK N   1      36.083  11.845  13.416  0.00  0.00     0.052 C 
BRANCH   4  23
HETATM   23  O   UNK N   1      34.210  12.688  14.685  0.00  0.00    -0.377 OA
HETATM   24  H   UNK N   1      33.402  12.153  14.722  0.00  0.00     0.211 HD
ENDBRANCH   4  23
BRANCH  13  25
HETATM   25  C   UNK N   1      35.019  10.128  18.855  0.00  0.00    -0.050 C 
HETATM   26  C   UNK N   1      34.025   9.184  18.562  0.00  0.00     0.010 C 
HETATM   27  C   UNK N   1      33.133   8.801  19.563  0.00  0.00     0.030 C 
HETATM   28  C   UNK N   1      33.216   9.380  20.844  0.00  0.00     0.029 C 
HETATM   29  C   UNK N   1      34.110  10.433  21.065  0.00  0.00     0.030 C 
HETATM   30  C   UNK N   1      35.012  10.793  20.080  0.00  0.00     0.010 C 
BRANCH  28  31
HETATM   31  N   UNK N   1      32.543   8.791  21.950  0.00  0.00    -0.390 N 
HETATM   32  C   UNK N   1      31.761   7.593  21.767  0.00  0.00     0.149 C 
HETATM   33  C   UNK N   1      32.313   9.567  23.142  0.00  0.00     0.149 C 
ENDBRANCH  28  31
ENDBRANCH  13  25
ENDBRANCH   1   4
TORSDOF 4
ENDMDL
MODEL 3
REMARK VINA RESULT:      -7.5     14.035     18.727
REMARK  4 active torsions:
REMARK  status: ('A' for Active; 'I' for Inactive)
REMARK    1  A    between atoms: C_7  and  O_1 
REMARK    2  A    between atoms: N_3  and  C_29 
REMARK    3  A    between atoms: C_7  and  C_19 
REMARK    4  A    between atoms: C_11  and  C_17 
ROOT
HETATM    1  C   UNK N   1      21.398  19.053   4.186  0.00  0.00    -0.068 C 
HETATM    2  C   UNK N   1      21.185  19.944   3.402  0.00  0.00    -0.108 C 
HETATM    3  C   UNK N   1      20.991  20.937   2.343  0.00  0.00     0.112 C 
ENDROOT
BRANCH   1   4
HETATM    4  C   UNK N   1      21.784  17.828   4.906  0.00  0.00     0.128 C 
HETATM    5  C   UNK N   1      23.064  17.095   4.480  0.00  0.00     0.004 C 
HETATM    6  C   UNK N   1      22.658  16.205   3.313  0.00  0.00     0.006 C 
HETATM    7  C   UNK N   1      24.182  17.977   3.981  0.00  0.00     0.027 C 
HETATM    8  C   UNK N   1      23.545  16.251   5.687  0.00  0.00     0.020 C 
HETATM    9  C   UNK N   1      23.742  15.113   3.073  0.00  0.00     0.021 C 
HETATM   10  C   UNK N   1      21.285  15.694   3.735  0.00  0.00     0.010 C 
HETATM   11  C   UNK N   1      25.167  15.688   3.091  0.00  0.00    -0.060 C 
HETATM   12  C   UNK N   1      23.527  14.282   1.812  0.00  0.00     0.014 C 
HETATM   13  C   UNK N   1      25.402  17.145   3.587  0.00  0.00     0.049 C 
HETATM   14  C   UNK N   1      26.203  14.894   2.670  0.00  0.00    -0.048 C 
HETATM   15  C   UNK N   1      25.922  13.529   2.115  0.00  0.00    -0.048 C 
HETATM   16  C   UNK N   1      27.635  15.382   2.748  0.00  0.00     0.047 C 
HETATM   17  C   UNK N   1      24.506  13.095   1.826  0.00  0.00     0.040 C 
HETATM   18  C   UNK N   1      26.920  12.688   1.810  0.00  0.00     0.057 C 
HETATM   19  C   UNK N   1      28.335  13.080   1.933  0.00  0.00     0.150 C 
HETATM   20  O   UNK N   1      29.212  12.248   1.773  0.00  0.00    -0.293 OA
HETATM   21  C   UNK N   1      28.709  14.518   2.092  0.00  0.00     0.087 C 
HETATM   22  C   UNK N   1      20.709  16.757   4.701  0.00  0.00     0.052 C 
BRANCH   4  23
HETATM   23  O   UNK N   1      21.864  18.204   6.251  0.00  0.00    -0.377 OA
HETATM   24  H   UNK N   1      21.270  18.112   7.012  0.00  0.00     0.211 HD
ENDBRANCH   4  23
BRANCH  13  25
HETATM   25  C   UNK N   1      26.472  17.420   4.593  0.00  0.00    -0.050 C 
HETATM   26  C   UNK N   1      26.666  16.629   5.733  0.00  0.00     0.010 C 
HETATM   27  C   UNK N   1      27.879  16.706   6.417  0.00  0.00     0.030 C 
HETATM   28  C   UNK N   1      28.884  17.589   5.978  0.00  0.00     0.029 C 
HETATM   29  C   UNK N   1      28.606  18.482   4.938  0.00  0.00     0.030 C 
HETATM   30  C   UNK N   1      27.414  18.388   4.244  0.00  0.00     0.010 C 
BRANCH  28  31
HETATM   31  N   UNK N   1      30.219  17.460   6.451  0.00  0.00    -0.390 N 
HETATM   32  C   UNK N   1      31.291  17.187   5.524  0.00  0.00     0.149 C 
HETATM   33  C   UNK N   1      30.462  17.212   7.849  0.00  0.00     0.149 C 
ENDBRANCH  28  31
ENDBRANCH  13  25
ENDBRANCH   1   4
TORSDOF 4
ENDMDL
MODEL 4
REMARK VINA RESULT:      -7.4     15.536     18.735
REMARK  4 active torsions:
REMARK  status: ('A' for Active; 'I' for Inactive)
REMARK    1  A    between atoms: C_7  and  O_1 
REMARK    2  A    between atoms: N_3  and  C_29 
REMARK    3  A    between atoms: C_7  and  C_19 
REMARK    4  A    between atoms: C_11  and  C_17 
ROOT
HETATM    1  C   UNK N   1      21.969  12.504   8.004  0.00  0.00    -0.068 C 
HETATM    2  C   UNK N   1      21.786  12.567   9.195  0.00  0.00    -0.108 C 
HETATM    3  C   UNK N   1      21.464  12.754  10.611  0.00  0.00     0.112 C 
ENDROOT
BRANCH   1   4
HETATM    4  C   UNK N   1      21.994  12.656   6.540  0.00  0.00     0.128 C 
HETATM    5  C   UNK N   1      22.533  13.964   5.943  0.00  0.00     0.004 C 
HETATM    6  C   UNK N   1      21.360  14.935   5.959  0.00  0.00     0.006 C 
HETATM    7  C   UNK N   1      23.647  14.621   6.719  0.00  0.00     0.027 C 
HETATM    8  C   UNK N   1      22.992  13.665   4.493  0.00  0.00     0.020 C 
HETATM    9  C   UNK N   1      21.647  16.134   5.006  0.00  0.00     0.021 C 
HETATM   10  C   UNK N   1      20.179  14.051   5.573  0.00  0.00     0.010 C 
HETATM   11  C   UNK N   1      23.065  16.698   5.186  0.00  0.00    -0.060 C 
HETATM   12  C   UNK N   1      20.620  17.258   5.086  0.00  0.00     0.014 C 
HETATM   13  C   UNK N   1      24.104  15.910   6.035  0.00  0.00     0.049 C 
HETATM   14  C   UNK N   1      23.380  17.889   4.584  0.00  0.00    -0.048 C 
HETATM   15  C   UNK N   1      22.323  18.660   3.851  0.00  0.00    -0.048 C 
HETATM   16  C   UNK N   1      24.787  18.447   4.659  0.00  0.00     0.047 C 
HETATM   17  C   UNK N   1      20.874  18.246   3.934  0.00  0.00     0.040 C 
HETATM   18  C   UNK N   1      22.630  19.763   3.152  0.00  0.00     0.057 C 
HETATM   19  C   UNK N   1      23.996  20.314   3.128  0.00  0.00     0.150 C 
HETATM   20  O   UNK N   1      24.265  21.239   2.380  0.00  0.00    -0.293 OA
HETATM   21  C   UNK N   1      25.012  19.860   4.125  0.00  0.00     0.087 C 
HETATM   22  C   UNK N   1      20.563  12.613   5.998  0.00  0.00     0.052 C 
BRANCH   4  23
HETATM   23  O   UNK N   1      22.738  11.567   6.072  0.00  0.00    -0.377 OA
HETATM   24  H   UNK N   1      22.807  10.636   6.337  0.00  0.00     0.211 HD
ENDBRANCH   4  23
BRANCH  13  25
HETATM   25  C   UNK N   1      25.472  15.663   5.488  0.00  0.00    -0.050 C 
HETATM   26  C   UNK N   1      25.713  15.403   4.133  0.00  0.00     0.010 C 
HETATM   27  C   UNK N   1      27.006  15.551   3.630  0.00  0.00     0.030 C 
HETATM   28  C   UNK N   1      28.058  15.930   4.485  0.00  0.00     0.029 C 
HETATM   29  C   UNK N   1      27.824  16.026   5.861  0.00  0.00     0.030 C 
HETATM   30  C   UNK N   1      26.538  15.905   6.354  0.00  0.00     0.010 C 
BRANCH  28  31
HETATM   31  N   UNK N   1      29.294  16.390   3.952  0.00  0.00    -0.390 N 
HETATM   32  C   UNK N   1      29.719  15.965   2.641  0.00  0.00     0.149 C 
HETATM   33  C   UNK N   1      30.289  16.946   4.833  0.00  0.00     0.149 C 
ENDBRANCH  28  31
ENDBRANCH  13  25
ENDBRANCH   1   4
TORSDOF 4
ENDMDL
MODEL 5
REMARK VINA RESULT:      -7.4     23.700     28.736
REMARK  4 active torsions:
REMARK  status: ('A' for Active; 'I' for Inactive)
REMARK    1  A    between atoms: C_7  and  O_1 
REMARK    2  A    between atoms: N_3  and  C_29 
REMARK    3  A    between atoms: C_7  and  C_19 
REMARK    4  A    between atoms: C_11  and  C_17 
ROOT
HETATM    1  C   UNK N   1      27.196  29.026  -4.896  0.00  0.00    -0.068 C 
HETATM    2  C   UNK N   1      27.815  29.934  -5.394  0.00  0.00    -0.108 C 
HETATM    3  C   UNK N   1      28.689  30.944  -5.994  0.00  0.00     0.112 C 
ENDROOT
BRANCH   1   4
HETATM    4  C   UNK N   1      26.706  27.774  -4.297  0.00  0.00     0.128 C 
HETATM    5  C   UNK N   1      27.180  26.438  -4.888  0.00  0.00     0.004 C 
HETATM    6  C   UNK N   1      26.254  26.160  -6.065  0.00  0.00     0.006 C 
HETATM    7  C   UNK N   1      28.586  26.432  -5.435  0.00  0.00     0.027 C 
HETATM    8  C   UNK N   1      27.027  25.357  -3.788  0.00  0.00     0.020 C 
HETATM    9  C   UNK N   1      26.350  24.661  -6.477  0.00  0.00     0.021 C 
HETATM   10  C   UNK N   1      24.895  26.620  -5.547  0.00  0.00     0.010 C 
HETATM   11  C   UNK N   1      27.803  24.168  -6.558  0.00  0.00    -0.060 C 
HETATM   12  C   UNK N   1      25.605  24.315  -7.761  0.00  0.00     0.014 C 
HETATM   13  C   UNK N   1      28.950  25.057  -5.995  0.00  0.00     0.049 C 
HETATM   14  C   UNK N   1      28.051  22.944  -7.125  0.00  0.00    -0.048 C 
HETATM   15  C   UNK N   1      26.928  22.161  -7.737  0.00  0.00    -0.048 C 
HETATM   16  C   UNK N   1      29.455  22.374  -7.153  0.00  0.00     0.047 C 
HETATM   17  C   UNK N   1      25.565  22.784  -7.916  0.00  0.00     0.040 C 
HETATM   18  C   UNK N   1      27.121  20.913  -8.189  0.00  0.00     0.057 C 
HETATM   19  C   UNK N   1      28.450  20.277  -8.177  0.00  0.00     0.150 C 
HETATM   20  O   UNK N   1      28.562  19.099  -8.472  0.00  0.00    -0.293 OA
HETATM   21  C   UNK N   1      29.679  21.099  -7.963  0.00  0.00     0.087 C 
HETATM   22  C   UNK N   1      25.187  27.687  -4.465  0.00  0.00     0.052 C 
BRANCH   4  23
HETATM   23  O   UNK N   1      27.055  27.856  -2.944  0.00  0.00    -0.377 OA
HETATM   24  H   UNK N   1      26.555  27.790  -2.115  0.00  0.00     0.211 HD
ENDBRANCH   4  23
BRANCH  13  25
HETATM   25  C   UNK N   1      29.968  24.459  -5.081  0.00  0.00    -0.050 C 
HETATM   26  C   UNK N   1      29.657  23.472  -4.137  0.00  0.00     0.010 C 
HETATM   27  C   UNK N   1      30.685  22.704  -3.590  0.00  0.00     0.030 C 
HETATM   28  C   UNK N   1      32.021  22.941  -3.964  0.00  0.00     0.029 C 
HETATM   29  C   UNK N   1      32.321  24.035  -4.783  0.00  0.00     0.030 C 
HETATM   30  C   UNK N   1      31.300  24.779  -5.345  0.00  0.00     0.010 C 
BRANCH  28  31
HETATM   31  N   UNK N   1      33.035  21.986  -3.675  0.00  0.00    -0.390 N 
HETATM   32  C   UNK N   1      34.014  21.645  -4.678  0.00  0.00     0.149 C 
HETATM   33  C   UNK N   1      32.872  21.085  -2.563  0.00  0.00     0.149 C 
ENDBRANCH  28  31
ENDBRANCH  13  25
ENDBRANCH   1   4
TORSDOF 4
ENDMDL
MODEL 6
REMARK VINA RESULT:      -7.4      2.547      7.560
REMARK  4 active torsions:
REMARK  status: ('A' for Active; 'I' for Inactive)
REMARK    1  A    between atoms: C_7  and  O_1 
REMARK    2  A    between atoms: N_3  and  C_29 
REMARK    3  A    between atoms: C_7  and  C_19 
REMARK    4  A    between atoms: C_11  and  C_17 
ROOT
HETATM    1  C   UNK N   1      35.345  12.078  11.229  0.00  0.00    -0.068 C 
HETATM    2  C   UNK N   1      34.590  12.031  10.289  0.00  0.00    -0.108 C 
HETATM    3  C   UNK N   1      33.777  12.058   9.072  0.00  0.00     0.112 C 
ENDROOT
BRANCH   1   4
HETATM    4  C   UNK N   1      36.437  12.303  12.191  0.00  0.00     0.128 C 
HETATM    5  C   UNK N   1      36.299  11.732  13.610  0.00  0.00     0.004 C 
HETATM    6  C   UNK N   1      35.488  12.758  14.388  0.00  0.00     0.006 C 
HETATM    7  C   UNK N   1      35.554  10.424  13.713  0.00  0.00     0.027 C 
HETATM    8  C   UNK N   1      37.726  11.584  14.197  0.00  0.00     0.020 C 
HETATM    9  C   UNK N   1      35.641  12.511  15.918  0.00  0.00     0.021 C 
HETATM   10  C   UNK N   1      36.033  14.087  13.874  0.00  0.00     0.010 C 
HETATM   11  C   UNK N   1      35.490  11.027  16.289  0.00  0.00    -0.060 C 
HETATM   12  C   UNK N   1      34.725  13.365  16.787  0.00  0.00     0.014 C 
HETATM   13  C   UNK N   1      35.479   9.950  15.165  0.00  0.00     0.049 C 
HETATM   14  C   UNK N   1      35.374  10.689  17.613  0.00  0.00    -0.048 C 
HETATM   15  C   UNK N   1      35.299  11.763  18.657  0.00  0.00    -0.048 C 
HETATM   16  C   UNK N   1      35.309   9.235  18.038  0.00  0.00     0.047 C 
HETATM   17  C   UNK N   1      35.148  13.211  18.258  0.00  0.00     0.040 C 
HETATM   18  C   UNK N   1      35.307  11.460  19.963  0.00  0.00     0.057 C 
HETATM   19  C   UNK N   1      35.315  10.066  20.439  0.00  0.00     0.150 C 
HETATM   20  O   UNK N   1      35.454   9.830  21.628  0.00  0.00    -0.293 OA
HETATM   21  C   UNK N   1      34.994   8.946  19.504  0.00  0.00     0.087 C 
HETATM   22  C   UNK N   1      36.582  13.804  12.455  0.00  0.00     0.052 C 
BRANCH   4  23
HETATM   23  O   UNK N   1      37.582  11.792  11.571  0.00  0.00    -0.377 OA
HETATM   24  H   UNK N   1      38.333  12.195  11.107  0.00  0.00     0.211 HD
ENDBRANCH   4  23
BRANCH  13  25
HETATM   25  C   UNK N   1      36.352   8.745  15.285  0.00  0.00    -0.050 C 
HETATM   26  C   UNK N   1      37.661   8.801  15.782  0.00  0.00     0.010 C 
HETATM   27  C   UNK N   1      38.278   7.627  16.213  0.00  0.00     0.030 C 
HETATM   28  C   UNK N   1      37.599   6.397  16.122  0.00  0.00     0.029 C 
HETATM   29  C   UNK N   1      36.359   6.344  15.475  0.00  0.00     0.030 C 
HETATM   30  C   UNK N   1      35.738   7.512  15.073  0.00  0.00     0.010 C 
BRANCH  28  31
HETATM   31  N   UNK N   1      38.066   5.257  16.833  0.00  0.00    -0.390 N 
HETATM   32  C   UNK N   1      37.124   4.343  17.433  0.00  0.00     0.149 C 
HETATM   33  C   UNK N   1      39.431   5.209  17.289  0.00  0.00     0.149 C 
ENDBRANCH  28  31
ENDBRANCH  13  25
ENDBRANCH   1   4
TORSDOF 4
ENDMDL
MODEL 7
REMARK VINA RESULT:      -7.3     11.806     15.968
REMARK  4 active torsions:
REMARK  status: ('A' for Active; 'I' for Inactive)
REMARK    1  A    between atoms: C_7  and  O_1 
REMARK    2  A    between atoms: N_3  and  C_29 
REMARK    3  A    between atoms: C_7  and  C_19 
REMARK    4  A    between atoms: C_11  and  C_17 
ROOT
HETATM    1  C   UNK N   1      24.828  18.540   4.885  0.00  0.00    -0.068 C 
HETATM    2  C   UNK N   1      23.668  18.226   4.992  0.00  0.00    -0.108 C 
HETATM    3  C   UNK N   1      22.225  17.989   5.086  0.00  0.00     0.112 C 
ENDROOT
BRANCH   1   4
HETATM    4  C   UNK N   1      26.131  19.197   4.694  0.00  0.00     0.128 C 
HETATM    5  C   UNK N   1      27.394  18.496   5.214  0.00  0.00     0.004 C 
HETATM    6  C   UNK N   1      27.494  18.870   6.687  0.00  0.00     0.006 C 
HETATM    7  C   UNK N   1      27.372  16.988   5.152  0.00  0.00     0.027 C 
HETATM    8  C   UNK N   1      28.601  19.048   4.413  0.00  0.00     0.020 C 
HETATM    9  C   UNK N   1      28.931  18.582   7.214  0.00  0.00     0.021 C 
HETATM   10  C   UNK N   1      27.064  20.333   6.698  0.00  0.00     0.010 C 
HETATM   11  C   UNK N   1      29.452  17.205   6.773  0.00  0.00    -0.060 C 
HETATM   12  C   UNK N   1      29.090  18.746   8.721  0.00  0.00     0.014 C 
HETATM   13  C   UNK N   1      28.674  16.399   5.692  0.00  0.00     0.049 C 
HETATM   14  C   UNK N   1      30.600  16.723   7.346  0.00  0.00    -0.048 C 
HETATM   15  C   UNK N   1      31.267  17.490   8.448  0.00  0.00    -0.048 C 
HETATM   16  C   UNK N   1      31.203  15.410   6.886  0.00  0.00     0.047 C 
HETATM   17  C   UNK N   1      30.587  18.684   9.073  0.00  0.00     0.040 C 
HETATM   18  C   UNK N   1      32.453  17.104   8.941  0.00  0.00     0.057 C 
HETATM   19  C   UNK N   1      33.124  15.874   8.483  0.00  0.00     0.150 C 
HETATM   20  O   UNK N   1      34.257  15.625   8.857  0.00  0.00    -0.293 OA
HETATM   21  C   UNK N   1      32.371  14.852   7.696  0.00  0.00     0.087 C 
HETATM   22  C   UNK N   1      26.151  20.521   5.462  0.00  0.00     0.052 C 
BRANCH   4  23
HETATM   23  O   UNK N   1      26.231  19.418   3.316  0.00  0.00    -0.377 OA
HETATM   24  H   UNK N   1      25.698  19.149   2.551  0.00  0.00     0.211 HD
ENDBRANCH   4  23
BRANCH  13  25
HETATM   25  C   UNK N   1      29.412  15.814   4.533  0.00  0.00    -0.050 C 
HETATM   26  C   UNK N   1      30.469  16.474   3.892  0.00  0.00     0.010 C 
HETATM   27  C   UNK N   1      31.340  15.743   3.085  0.00  0.00     0.030 C 
HETATM   28  C   UNK N   1      31.140  14.362   2.898  0.00  0.00     0.029 C 
HETATM   29  C   UNK N   1      29.989  13.759   3.416  0.00  0.00     0.030 C 
HETATM   30  C   UNK N   1      29.140  14.478   4.237  0.00  0.00     0.010 C 
BRANCH  28  31
HETATM   31  N   UNK N   1      32.172  13.548   2.354  0.00  0.00    -0.390 N 
HETATM   32  C   UNK N   1      31.847  12.284   1.739  0.00  0.00     0.149 C 
HETATM   33  C   UNK N   1      33.540  13.771   2.745  0.00  0.00     0.149 C 
ENDBRANCH  28  31
ENDBRANCH  13  25
ENDBRANCH   1   4
TORSDOF 4
ENDMDL
MODEL 8
REMARK VINA RESULT:      -7.0      3.320      7.123
REMARK  4 active torsions:
REMARK  status: ('A' for Active; 'I' for Inactive)
REMARK    1  A    between atoms: C_7  and  O_1 
REMARK    2  A    between atoms: N_3  and  C_29 
REMARK    3  A    between atoms: C_7  and  C_19 
REMARK    4  A    between atoms: C_11  and  C_17 
ROOT
HETATM    1  C   UNK N   1      37.517   7.788  11.026  0.00  0.00    -0.068 C 
HETATM    2  C   UNK N   1      38.689   7.551  10.861  0.00  0.00    -0.108 C 
HETATM    3  C   UNK N   1      40.139   7.369  10.770  0.00  0.00     0.112 C 
ENDROOT
BRANCH   1   4
HETATM    4  C   UNK N   1      36.189   8.277  11.430  0.00  0.00     0.128 C 
HETATM    5  C   UNK N   1      36.104   9.464  12.400  0.00  0.00     0.004 C 
HETATM    6  C   UNK N   1      36.235   8.865  13.793  0.00  0.00     0.006 C 
HETATM    7  C   UNK N   1      37.201  10.491  12.267  0.00  0.00     0.027 C 
HETATM    8  C   UNK N   1      34.718  10.131  12.205  0.00  0.00     0.020 C 
HETATM    9  C   UNK N   1      35.744   9.886  14.862  0.00  0.00     0.021 C 
HETATM   10  C   UNK N   1      35.427   7.575  13.689  0.00  0.00     0.010 C 
HETATM   11  C   UNK N   1      36.297  11.299  14.619  0.00  0.00    -0.060 C 
HETATM   12  C   UNK N   1      36.003   9.460  16.303  0.00  0.00     0.014 C 
HETATM   13  C   UNK N   1      37.016  11.624  13.277  0.00  0.00     0.049 C 
HETATM   14  C   UNK N   1      36.137  12.245  15.599  0.00  0.00    -0.048 C 
HETATM   15  C   UNK N   1      35.521  11.866  16.913  0.00  0.00    -0.048 C 
HETATM   16  C   UNK N   1      36.589  13.674  15.377  0.00  0.00     0.047 C 
HETATM   17  C   UNK N   1      35.256  10.418  17.247  0.00  0.00     0.040 C 
HETATM   18  C   UNK N   1      35.243  12.794  17.840  0.00  0.00     0.057 C 
HETATM   19  C   UNK N   1      35.593  14.212  17.651  0.00  0.00     0.150 C 
HETATM   20  O   UNK N   1      35.209  15.045  18.455  0.00  0.00    -0.293 OA
HETATM   21  C   UNK N   1      36.547  14.619  16.576  0.00  0.00     0.087 C 
HETATM   22  C   UNK N   1      35.450   7.175  12.193  0.00  0.00     0.052 C 
BRANCH   4  23
HETATM   23  O   UNK N   1      35.532   8.581  10.232  0.00  0.00    -0.377 OA
HETATM   24  H   UNK N   1      34.632   8.432   9.902  0.00  0.00     0.211 HD
ENDBRANCH   4  23
BRANCH  13  25
HETATM   25  C   UNK N   1      36.632  12.846  12.510  0.00  0.00    -0.050 C 
HETATM   26  C   UNK N   1      37.438  13.397  11.504  0.00  0.00     0.010 C 
HETATM   27  C   UNK N   1      36.875  14.288  10.591  0.00  0.00     0.030 C 
HETATM   28  C   UNK N   1      35.518  14.647  10.698  0.00  0.00     0.029 C 
HETATM   29  C   UNK N   1      34.777  14.211  11.802  0.00  0.00     0.030 C 
HETATM   30  C   UNK N   1      35.329  13.307  12.692  0.00  0.00     0.010 C 
BRANCH  28  31
HETATM   31  N   UNK N   1      34.850  15.287   9.618  0.00  0.00    -0.390 N 
HETATM   32  C   UNK N   1      34.815  14.662   8.318  0.00  0.00     0.149 C 
HETATM   33  C   UNK N   1      34.552  16.694   9.694  0.00  0.00     0.149 C 
ENDBRANCH  28  31
ENDBRANCH  13  25
ENDBRANCH   1   4
TORSDOF 4
ENDMDL
MODEL 9
REMARK VINA RESULT:      -7.0     15.575     20.457
REMARK  4 active torsions:
REMARK  status: ('A' for Active; 'I' for Inactive)
REMARK    1  A    between atoms: C_7  and  O_1 
REMARK    2  A    between atoms: N_3  and  C_29 
REMARK    3  A    between atoms: C_7  and  C_19 
REMARK    4  A    between atoms: C_11  and  C_17 
ROOT
HETATM    1  C   UNK N   1      24.285  10.865   2.285  0.00  0.00    -0.068 C 
HETATM    2  C   UNK N   1      23.846   9.889   2.842  0.00  0.00    -0.108 C 
HETATM    3  C   UNK N   1      23.181   8.732   3.446  0.00  0.00     0.112 C 
ENDROOT
BRANCH   1   4
HETATM    4  C   UNK N   1      24.541  12.079   1.492  0.00  0.00     0.128 C 
HETATM    5  C   UNK N   1      23.997  13.421   2.002  0.00  0.00     0.004 C 
HETATM    6  C   UNK N   1      22.554  13.488   1.518  0.00  0.00     0.006 C 
HETATM    7  C   UNK N   1      23.957  13.579   3.501  0.00  0.00     0.027 C 
HETATM    8  C   UNK N   1      24.853  14.546   1.366  0.00  0.00     0.020 C 
HETATM    9  C   UNK N   1      22.033  14.954   1.597  0.00  0.00     0.021 C 
HETATM   10  C   UNK N   1      22.634  12.887   0.119  0.00  0.00     0.010 C 
HETATM   11  C   UNK N   1      22.390  15.632   2.929  0.00  0.00    -0.060 C 
HETATM   12  C   UNK N   1      20.543  15.106   1.312  0.00  0.00     0.014 C 
HETATM   13  C   UNK N   1      23.401  14.947   3.894  0.00  0.00     0.049 C 
HETATM   14  C   UNK N   1      21.805  16.835   3.231  0.00  0.00    -0.048 C 
HETATM   15  C   UNK N   1      20.768  17.415   2.317  0.00  0.00    -0.048 C 
HETATM   16  C   UNK N   1      22.186  17.586   4.492  0.00  0.00     0.047 C 
HETATM   17  C   UNK N   1      20.213  16.602   1.172  0.00  0.00     0.040 C 
HETATM   18  C   UNK N   1      20.270  18.642   2.525  0.00  0.00     0.057 C 
HETATM   19  C   UNK N   1      20.656  19.451   3.694  0.00  0.00     0.150 C 
HETATM   20  O   UNK N   1      20.285  20.610   3.781  0.00  0.00    -0.293 OA
HETATM   21  C   UNK N   1      21.360  18.820   4.850  0.00  0.00     0.087 C 
HETATM   22  C   UNK N   1      23.864  11.947   0.126  0.00  0.00     0.052 C 
BRANCH   4  23
HETATM   23  O   UNK N   1      25.932  12.140   1.356  0.00  0.00    -0.377 OA
HETATM   24  H   UNK N   1      26.603  12.803   1.585  0.00  0.00     0.211 HD
ENDBRANCH   4  23
BRANCH  13  25
HETATM   25  C   UNK N   1      24.531  15.739   4.465  0.00  0.00    -0.050 C 
HETATM   26  C   UNK N   1      25.028  15.531   5.758  0.00  0.00     0.010 C 
HETATM   27  C   UNK N   1      26.289  16.025   6.091  0.00  0.00     0.030 C 
HETATM   28  C   UNK N   1      27.039  16.747   5.143  0.00  0.00     0.029 C 
HETATM   29  C   UNK N   1      26.456  17.079   3.916  0.00  0.00     0.030 C 
HETATM   30  C   UNK N   1      25.216  16.568   3.577  0.00  0.00     0.010 C 
BRANCH  28  31
HETATM   31  N   UNK N   1      28.428  16.979   5.343  0.00  0.00    -0.390 N 
HETATM   32  C   UNK N   1      29.331  16.971   4.218  0.00  0.00     0.149 C 
HETATM   33  C   UNK N   1      28.995  16.838   6.660  0.00  0.00     0.149 C 
ENDBRANCH  28  31
ENDBRANCH  13  25
ENDBRANCH   1   4
TORSDOF 4
ENDMDL
