MODEL 1
REMARK VINA RESULT:      -7.3      0.000      0.000
REMARK  5 active torsions:
REMARK  status: ('A' for Active; 'I' for Inactive)
REMARK    1  A    between atoms: S_1  and  C_19 
REMARK    2  A    between atoms: C_11  and  C_14 
REMARK    3  A    between atoms: C_15  and  C_16 
REMARK    4  A    between atoms: C_16  and  C_18 
REMARK    5  A    between atoms: C_22  and  C_25 
ROOT
HETATM    1  C   UNK N   1      21.286  16.228   7.226  0.00  0.00     0.036 A 
HETATM    2  C   UNK N   1      20.331  16.010   8.284  0.00  0.00     0.073 A 
HETATM    3  C   UNK N   1      22.323  15.288   7.084  0.00  0.00     0.018 A 
HETATM    4  C   UNK N   1      20.523  14.931   9.171  0.00  0.00     0.040 A 
HETATM    5  C   UNK N   1      21.585  14.040   9.014  0.00  0.00     0.049 A 
HETATM    6  C   UNK N   1      22.467  14.217   7.953  0.00  0.00     0.017 A 
ENDROOT
BRANCH   1   7
HETATM    7  C   UNK N   1      21.152  17.408   6.291  0.00  0.00     0.197 C 
HETATM    8  O   UNK N   1      21.469  18.487   6.743  0.00  0.00    -0.286 OA
BRANCH   7   9
HETATM    9  C   UNK N   1      20.715  17.398   4.844  0.00  0.00     0.064 A 
HETATM   10  C   UNK N   1      21.397  18.003   3.775  0.00  0.00     0.096 A 
HETATM   11  O   UNK N   1      20.717  17.759   2.673  0.00  0.00    -0.241 OA
HETATM   12  N   UNK N   1      19.656  17.054   2.909  0.00  0.00    -0.271 N 
HETATM   13  C   UNK N   1      19.603  16.810   4.226  0.00  0.00     0.132 A 
ATOM     14  HN  UNK N   1      18.978  16.742   2.214  1.00  0.00     0.194 HD
BRANCH  10  15
HETATM   15  C   UNK N   1      22.615  18.897   3.660  0.00  0.00     0.046 A 
HETATM   16  C   UNK N   1      23.974  18.421   4.168  0.00  0.00     0.012 A 
HETATM   17  C   UNK N   1      23.860  19.788   3.534  0.00  0.00     0.012 A 
ENDBRANCH  10  15
ENDBRANCH   7   9
ENDBRANCH   1   7
BRANCH   2  18
HETATM   18  S   UNK N   1      18.774  16.967   8.475  0.00  0.00     0.172 S 
HETATM   19  O   UNK N   1      19.140  18.007   9.545  0.00  0.00    -0.223 OA
HETATM   20  O   UNK N   1      18.535  15.916   9.571  0.00  0.00    -0.223 OA
HETATM   21  C   UNK N   1      16.939  17.139   8.506  0.00  0.00     0.167 C 
ENDBRANCH   2  18
BRANCH   5  22
HETATM   22  C   UNK N   1      21.744  12.889   9.973  0.00  0.00     0.417 C 
HETATM   23  F   UNK N   1      22.042  11.741   9.262  0.00  0.00    -0.166 F 
HETATM   24  F   UNK N   1      20.590  12.666  10.705  0.00  0.00    -0.166 F 
HETATM   25  F   UNK N   1      22.776  13.158  10.854  0.00  0.00    -0.166 F 
ENDBRANCH   5  22
TORSDOF 5
ENDMDL
MODEL 2
REMARK VINA RESULT:      -7.0      2.786      4.893
REMARK  5 active torsions:
REMARK  status: ('A' for Active; 'I' for Inactive)
REMARK    1  A    between atoms: S_1  and  C_19 
REMARK    2  A    between atoms: C_11  and  C_14 
REMARK    3  A    between atoms: C_15  and  C_16 
REMARK    4  A    between atoms: C_16  and  C_18 
REMARK    5  A    between atoms: C_22  and  C_25 
ROOT
HETATM    1  C   UNK N   1      21.424  14.303   8.313  0.00  0.00     0.036 A 
HETATM    2  C   UNK N   1      22.798  13.885   8.182  0.00  0.00     0.073 A 
HETATM    3  C   UNK N   1      20.747  13.945   9.494  0.00  0.00     0.018 A 
HETATM    4  C   UNK N   1      23.369  13.076   9.184  0.00  0.00     0.040 A 
HETATM    5  C   UNK N   1      22.651  12.716  10.325  0.00  0.00     0.049 A 
HETATM    6  C   UNK N   1      21.347  13.175  10.478  0.00  0.00     0.017 A 
ENDROOT
BRANCH   1   7
HETATM    7  C   UNK N   1      20.754  15.121   7.232  0.00  0.00     0.197 C 
HETATM    8  O   UNK N   1      19.931  14.541   6.557  0.00  0.00    -0.286 OA
BRANCH   7   9
HETATM    9  C   UNK N   1      20.953  16.586   6.922  0.00  0.00     0.064 A 
HETATM   10  C   UNK N   1      20.399  17.661   7.638  0.00  0.00     0.096 A 
HETATM   11  O   UNK N   1      20.817  18.778   7.078  0.00  0.00    -0.241 OA
HETATM   12  N   UNK N   1      21.591  18.547   6.066  0.00  0.00    -0.271 N 
HETATM   13  C   UNK N   1      21.705  17.219   5.922  0.00  0.00     0.132 A 
ATOM     14  HN  UNK N   1      22.036  19.252   5.479  1.00  0.00     0.194 HD
BRANCH  10  15
HETATM   15  C   UNK N   1      19.409  17.780   8.779  0.00  0.00     0.046 A 
HETATM   16  C   UNK N   1      18.092  17.009   8.744  0.00  0.00     0.012 A 
HETATM   17  C   UNK N   1      18.407  17.879   9.939  0.00  0.00     0.012 A 
ENDBRANCH  10  15
ENDBRANCH   7   9
ENDBRANCH   1   7
BRANCH   2  18
HETATM   18  S   UNK N   1      23.923  14.464   6.849  0.00  0.00     0.172 S 
HETATM   19  O   UNK N   1      23.591  13.518   5.685  0.00  0.00    -0.223 OA
HETATM   20  O   UNK N   1      24.833  13.390   7.469  0.00  0.00    -0.223 OA
HETATM   21  C   UNK N   1      25.506  15.168   6.219  0.00  0.00     0.167 C 
ENDBRANCH   2  18
BRANCH   5  22
HETATM   22  C   UNK N   1      23.304  11.863  11.382  0.00  0.00     0.417 C 
HETATM   23  F   UNK N   1      22.769  12.180  12.618  0.00  0.00    -0.166 F 
HETATM   24  F   UNK N   1      24.673  12.065  11.432  0.00  0.00    -0.166 F 
HETATM   25  F   UNK N   1      23.067  10.528  11.114  0.00  0.00    -0.166 F 
ENDBRANCH   5  22
TORSDOF 5
ENDMDL
MODEL 3
REMARK VINA RESULT:      -7.0     15.720     17.171
REMARK  5 active torsions:
REMARK  status: ('A' for Active; 'I' for Inactive)
REMARK    1  A    between atoms: S_1  and  C_19 
REMARK    2  A    between atoms: C_11  and  C_14 
REMARK    3  A    between atoms: C_15  and  C_16 
REMARK    4  A    between atoms: C_16  and  C_18 
REMARK    5  A    between atoms: C_22  and  C_25 
ROOT
HETATM    1  C   UNK N   1      26.715  23.909  -5.123  0.00  0.00     0.036 A 
HETATM    2  C   UNK N   1      28.035  23.630  -5.631  0.00  0.00     0.073 A 
HETATM    3  C   UNK N   1      25.630  23.264  -5.746  0.00  0.00     0.018 A 
HETATM    4  C   UNK N   1      28.175  22.806  -6.766  0.00  0.00     0.040 A 
HETATM    5  C   UNK N   1      27.069  22.212  -7.374  0.00  0.00     0.049 A 
HETATM    6  C   UNK N   1      25.803  22.432  -6.842  0.00  0.00     0.017 A 
ENDROOT
BRANCH   1   7
HETATM    7  C   UNK N   1      26.515  24.837  -3.946  0.00  0.00     0.197 C 
HETATM    8  O   UNK N   1      26.674  24.349  -2.848  0.00  0.00    -0.286 OA
BRANCH   7   9
HETATM    9  C   UNK N   1      26.186  26.312  -3.975  0.00  0.00     0.064 A 
HETATM   10  C   UNK N   1      25.872  27.062  -5.121  0.00  0.00     0.096 A 
HETATM   11  O   UNK N   1      25.626  28.299  -4.739  0.00  0.00    -0.241 OA
HETATM   12  N   UNK N   1      25.747  28.438  -3.457  0.00  0.00    -0.271 N 
HETATM   13  C   UNK N   1      26.094  27.251  -2.940  0.00  0.00     0.132 A 
ATOM     14  HN  UNK N   1      25.604  29.302  -2.933  1.00  0.00     0.194 HD
BRANCH  10  15
HETATM   15  C   UNK N   1      25.858  26.774  -6.609  0.00  0.00     0.046 A 
HETATM   16  C   UNK N   1      27.144  26.867  -7.426  0.00  0.00     0.012 A 
HETATM   17  C   UNK N   1      25.858  26.468  -8.114  0.00  0.00     0.012 A 
ENDBRANCH  10  15
ENDBRANCH   7   9
ENDBRANCH   1   7
BRANCH   2  18
HETATM   18  S   UNK N   1      29.587  24.163  -4.803  0.00  0.00     0.172 S 
HETATM   19  O   UNK N   1      30.678  23.650  -5.755  0.00  0.00    -0.223 OA
HETATM   20  O   UNK N   1      29.463  22.761  -4.182  0.00  0.00    -0.223 OA
HETATM   21  C   UNK N   1      30.626  24.518  -3.322  0.00  0.00     0.167 C 
ENDBRANCH   2  18
BRANCH   5  22
HETATM   22  C   UNK N   1      27.263  21.323  -8.575  0.00  0.00     0.417 C 
HETATM   23  F   UNK N   1      28.027  20.228  -8.213  0.00  0.00    -0.166 F 
HETATM   24  F   UNK N   1      27.907  21.985  -9.607  0.00  0.00    -0.166 F 
HETATM   25  F   UNK N   1      26.034  20.886  -9.034  0.00  0.00    -0.166 F 
ENDBRANCH   5  22
TORSDOF 5
ENDMDL
MODEL 4
REMARK VINA RESULT:      -7.0      8.617     10.581
REMARK  5 active torsions:
REMARK  status: ('A' for Active; 'I' for Inactive)
REMARK    1  A    between atoms: S_1  and  C_19 
REMARK    2  A    between atoms: C_11  and  C_14 
REMARK    3  A    between atoms: C_15  and  C_16 
REMARK    4  A    between atoms: C_16  and  C_18 
REMARK    5  A    between atoms: C_22  and  C_25 
ROOT
HETATM    1  C   UNK N   1      29.559  17.640   6.011  0.00  0.00     0.036 A 
HETATM    2  C   UNK N   1      28.565  17.920   7.018  0.00  0.00     0.073 A 
HETATM    3  C   UNK N   1      29.403  18.259   4.757  0.00  0.00     0.018 A 
HETATM    4  C   UNK N   1      27.453  18.717   6.683  0.00  0.00     0.040 A 
HETATM    5  C   UNK N   1      27.319  19.285   5.416  0.00  0.00     0.049 A 
HETATM    6  C   UNK N   1      28.312  19.065   4.467  0.00  0.00     0.017 A 
ENDROOT
BRANCH   1   7
HETATM    7  C   UNK N   1      30.736  16.740   6.310  0.00  0.00     0.197 C 
HETATM    8  O   UNK N   1      30.508  15.550   6.328  0.00  0.00    -0.286 OA
BRANCH   7   9
HETATM    9  C   UNK N   1      32.174  17.143   6.543  0.00  0.00     0.064 A 
HETATM   10  C   UNK N   1      33.216  17.051   5.604  0.00  0.00     0.096 A 
HETATM   11  O   UNK N   1      34.311  17.516   6.170  0.00  0.00    -0.241 OA
HETATM   12  N   UNK N   1      34.095  17.905   7.386  0.00  0.00    -0.271 N 
HETATM   13  C   UNK N   1      32.801  17.694   7.668  0.00  0.00     0.132 A 
ATOM     14  HN  UNK N   1      34.789  18.302   8.020  1.00  0.00     0.194 HD
BRANCH  10  15
HETATM   15  C   UNK N   1      33.342  16.474   4.209  0.00  0.00     0.046 A 
HETATM   16  C   UNK N   1      32.477  17.008   3.070  0.00  0.00     0.012 A 
HETATM   17  C   UNK N   1      33.474  15.907   2.787  0.00  0.00     0.012 A 
ENDBRANCH  10  15
ENDBRANCH   7   9
ENDBRANCH   1   7
BRANCH   2  18
HETATM   18  S   UNK N   1      28.724  17.423   8.781  0.00  0.00     0.172 S 
HETATM   19  O   UNK N   1      27.480  18.052   9.427  0.00  0.00    -0.223 OA
HETATM   20  O   UNK N   1      29.453  18.776   8.855  0.00  0.00    -0.223 OA
HETATM   21  C   UNK N   1      29.689  17.036  10.303  0.00  0.00     0.167 C 
ENDBRANCH   2  18
BRANCH   5  22
HETATM   22  C   UNK N   1      26.123  20.146   5.104  0.00  0.00     0.417 C 
HETATM   23  F   UNK N   1      26.082  21.209   5.988  0.00  0.00    -0.166 F 
HETATM   24  F   UNK N   1      24.937  19.438   5.213  0.00  0.00    -0.166 F 
HETATM   25  F   UNK N   1      26.225  20.632   3.813  0.00  0.00    -0.166 F 
ENDBRANCH   5  22
TORSDOF 5
ENDMDL
MODEL 5
REMARK VINA RESULT:      -7.0     11.123     13.023
REMARK  5 active torsions:
REMARK  status: ('A' for Active; 'I' for Inactive)
REMARK    1  A    between atoms: S_1  and  C_19 
REMARK    2  A    between atoms: C_11  and  C_14 
REMARK    3  A    between atoms: C_15  and  C_16 
REMARK    4  A    between atoms: C_16  and  C_18 
REMARK    5  A    between atoms: C_22  and  C_25 
ROOT
HETATM    1  C   UNK N   1      33.351  17.471   6.946  0.00  0.00     0.036 A 
HETATM    2  C   UNK N   1      31.921  17.351   7.083  0.00  0.00     0.073 A 
HETATM    3  C   UNK N   1      33.892  17.353   5.652  0.00  0.00     0.018 A 
HETATM    4  C   UNK N   1      31.146  17.039   5.947  0.00  0.00     0.040 A 
HETATM    5  C   UNK N   1      31.727  16.897   4.687  0.00  0.00     0.049 A 
HETATM    6  C   UNK N   1      33.099  17.078   4.548  0.00  0.00     0.017 A 
ENDROOT
BRANCH   1   7
HETATM    7  C   UNK N   1      34.226  17.744   8.149  0.00  0.00     0.197 C 
HETATM    8  O   UNK N   1      34.614  18.885   8.279  0.00  0.00    -0.286 OA
BRANCH   7   9
HETATM    9  C   UNK N   1      34.638  16.775   9.234  0.00  0.00     0.064 A 
HETATM   10  C   UNK N   1      34.455  15.383   9.204  0.00  0.00     0.096 A 
HETATM   11  O   UNK N   1      34.961  14.886  10.315  0.00  0.00    -0.241 OA
HETATM   12  N   UNK N   1      35.458  15.812  11.073  0.00  0.00    -0.271 N 
HETATM   13  C   UNK N   1      35.282  16.991  10.459  0.00  0.00     0.132 A 
ATOM     14  HN  UNK N   1      35.904  15.669  11.979  1.00  0.00     0.194 HD
BRANCH  10  15
HETATM   15  C   UNK N   1      33.756  14.422   8.265  0.00  0.00     0.046 A 
HETATM   16  C   UNK N   1      34.464  13.911   7.012  0.00  0.00     0.012 A 
HETATM   17  C   UNK N   1      33.062  13.434   7.315  0.00  0.00     0.012 A 
ENDBRANCH  10  15
ENDBRANCH   7   9
ENDBRANCH   1   7
BRANCH   2  18
HETATM   18  S   UNK N   1      31.003  17.727   8.630  0.00  0.00     0.172 S 
HETATM   19  O   UNK N   1      30.892  16.351   9.305  0.00  0.00    -0.223 OA
HETATM   20  O   UNK N   1      29.805  17.386   7.727  0.00  0.00    -0.223 OA
HETATM   21  C   UNK N   1      29.750  18.647   9.620  0.00  0.00     0.167 C 
ENDBRANCH   2  18
BRANCH   5  22
HETATM   22  C   UNK N   1      30.861  16.580   3.495  0.00  0.00     0.417 C 
HETATM   23  F   UNK N   1      31.481  17.038   2.346  0.00  0.00    -0.166 F 
HETATM   24  F   UNK N   1      29.616  17.179   3.591  0.00  0.00    -0.166 F 
HETATM   25  F   UNK N   1      30.683  15.212   3.401  0.00  0.00    -0.166 F 
ENDBRANCH   5  22
TORSDOF 5
ENDMDL
MODEL 6
REMARK VINA RESULT:      -6.9     15.426     17.120
REMARK  5 active torsions:
REMARK  status: ('A' for Active; 'I' for Inactive)
REMARK    1  A    between atoms: S_1  and  C_19 
REMARK    2  A    between atoms: C_11  and  C_14 
REMARK    3  A    between atoms: C_15  and  C_16 
REMARK    4  A    between atoms: C_16  and  C_18 
REMARK    5  A    between atoms: C_22  and  C_25 
ROOT
HETATM    1  C   UNK N   1      28.835  24.080  -3.201  0.00  0.00     0.036 A 
HETATM    2  C   UNK N   1      29.224  25.366  -3.723  0.00  0.00     0.073 A 
HETATM    3  C   UNK N   1      27.469  23.744  -3.254  0.00  0.00     0.018 A 
HETATM    4  C   UNK N   1      28.228  26.253  -4.177  0.00  0.00     0.040 A 
HETATM    5  C   UNK N   1      26.880  25.894  -4.182  0.00  0.00     0.049 A 
HETATM    6  C   UNK N   1      26.515  24.627  -3.737  0.00  0.00     0.017 A 
ENDROOT
BRANCH   1   7
HETATM    7  C   UNK N   1      29.864  23.121  -2.646  0.00  0.00     0.197 C 
HETATM    8  O   UNK N   1      30.051  23.171  -1.450  0.00  0.00    -0.286 OA
BRANCH   7   9
HETATM    9  C   UNK N   1      30.657  22.077  -3.399  0.00  0.00     0.064 A 
HETATM   10  C   UNK N   1      30.435  21.676  -4.727  0.00  0.00     0.096 A 
HETATM   11  O   UNK N   1      31.338  20.766  -5.030  0.00  0.00    -0.241 OA
HETATM   12  N   UNK N   1      32.132  20.527  -4.034  0.00  0.00    -0.271 N 
HETATM   13  C   UNK N   1      31.755  21.300  -3.007  0.00  0.00     0.132 A 
ATOM     14  HN  UNK N   1      32.907  19.864  -4.033  1.00  0.00     0.194 HD
BRANCH  10  15
HETATM   15  C   UNK N   1      29.381  21.988  -5.770  0.00  0.00     0.046 A 
HETATM   16  C   UNK N   1      29.554  23.175  -6.714  0.00  0.00     0.012 A 
HETATM   17  C   UNK N   1      28.326  22.302  -6.842  0.00  0.00     0.012 A 
ENDBRANCH  10  15
ENDBRANCH   7   9
ENDBRANCH   1   7
BRANCH   2  18
HETATM   18  S   UNK N   1      30.969  25.882  -3.980  0.00  0.00     0.172 S 
HETATM   19  O   UNK N   1      31.184  26.925  -2.873  0.00  0.00    -0.223 OA
HETATM   20  O   UNK N   1      30.282  26.945  -4.855  0.00  0.00    -0.223 OA
HETATM   21  C   UNK N   1      32.442  26.249  -5.026  0.00  0.00     0.167 C 
ENDBRANCH   2  18
BRANCH   5  22
HETATM   22  C   UNK N   1      25.848  26.866  -4.693  0.00  0.00     0.417 C 
HETATM   23  F   UNK N   1      25.283  27.535  -3.623  0.00  0.00    -0.166 F 
HETATM   24  F   UNK N   1      24.840  26.225  -5.392  0.00  0.00    -0.166 F 
HETATM   25  F   UNK N   1      26.451  27.783  -5.535  0.00  0.00    -0.166 F 
ENDBRANCH   5  22
TORSDOF 5
ENDMDL
MODEL 7
REMARK VINA RESULT:      -6.9     10.635     12.458
REMARK  5 active torsions:
REMARK  status: ('A' for Active; 'I' for Inactive)
REMARK    1  A    between atoms: S_1  and  C_19 
REMARK    2  A    between atoms: C_11  and  C_14 
REMARK    3  A    between atoms: C_15  and  C_16 
REMARK    4  A    between atoms: C_16  and  C_18 
REMARK    5  A    between atoms: C_22  and  C_25 
ROOT
HETATM    1  C   UNK N   1      32.365  17.167   7.120  0.00  0.00     0.036 A 
HETATM    2  C   UNK N   1      31.200  16.569   6.516  0.00  0.00     0.073 A 
HETATM    3  C   UNK N   1      32.173  17.917   8.295  0.00  0.00     0.018 A 
HETATM    4  C   UNK N   1      29.930  16.829   7.068  0.00  0.00     0.040 A 
HETATM    5  C   UNK N   1      29.781  17.606   8.217  0.00  0.00     0.049 A 
HETATM    6  C   UNK N   1      30.913  18.128   8.834  0.00  0.00     0.017 A 
ENDROOT
BRANCH   1   7
HETATM    7  C   UNK N   1      33.739  16.965   6.524  0.00  0.00     0.197 C 
HETATM    8  O   UNK N   1      34.174  17.881   5.860  0.00  0.00    -0.286 OA
BRANCH   7   9
HETATM    9  C   UNK N   1      34.657  15.777   6.695  0.00  0.00     0.064 A 
HETATM   10  C   UNK N   1      35.153  15.289   7.917  0.00  0.00     0.096 A 
HETATM   11  O   UNK N   1      35.898  14.234   7.658  0.00  0.00    -0.241 OA
HETATM   12  N   UNK N   1      35.943  13.978   6.389  0.00  0.00    -0.271 N 
HETATM   13  C   UNK N   1      35.203  14.896   5.752  0.00  0.00     0.132 A 
ATOM     14  HN  UNK N   1      36.454  13.211   5.951  1.00  0.00     0.194 HD
BRANCH  10  15
HETATM   15  C   UNK N   1      35.085  15.761   9.355  0.00  0.00     0.046 A 
HETATM   16  C   UNK N   1      33.986  15.254  10.285  0.00  0.00     0.012 A 
HETATM   17  C   UNK N   1      35.018  16.220  10.820  0.00  0.00     0.012 A 
ENDBRANCH  10  15
ENDBRANCH   7   9
ENDBRANCH   1   7
BRANCH   2  18
HETATM   18  S   UNK N   1      31.269  15.353   5.140  0.00  0.00     0.172 S 
HETATM   19  O   UNK N   1      29.785  15.068   4.859  0.00  0.00    -0.223 OA
HETATM   20  O   UNK N   1      31.240  14.366   6.320  0.00  0.00    -0.223 OA
HETATM   21  C   UNK N   1      32.022  13.940   4.226  0.00  0.00     0.167 C 
ENDBRANCH   2  18
BRANCH   5  22
HETATM   22  C   UNK N   1      28.406  17.845   8.786  0.00  0.00     0.417 C 
HETATM   23  F   UNK N   1      27.927  19.059   8.327  0.00  0.00    -0.166 F 
HETATM   24  F   UNK N   1      28.420  17.873  10.170  0.00  0.00    -0.166 F 
HETATM   25  F   UNK N   1      27.552  16.837   8.376  0.00  0.00    -0.166 F 
ENDBRANCH   5  22
TORSDOF 5
ENDMDL
MODEL 8
REMARK VINA RESULT:      -6.6      5.747      7.931
REMARK  5 active torsions:
REMARK  status: ('A' for Active; 'I' for Inactive)
REMARK    1  A    between atoms: S_1  and  C_19 
REMARK    2  A    between atoms: C_11  and  C_14 
REMARK    3  A    between atoms: C_15  and  C_16 
REMARK    4  A    between atoms: C_16  and  C_18 
REMARK    5  A    between atoms: C_22  and  C_25 
ROOT
HETATM    1  C   UNK N   1      25.886  18.506   4.129  0.00  0.00     0.036 A 
HETATM    2  C   UNK N   1      24.771  17.646   4.440  0.00  0.00     0.073 A 
HETATM    3  C   UNK N   1      25.597  19.776   3.595  0.00  0.00     0.018 A 
HETATM    4  C   UNK N   1      23.466  18.070   4.120  0.00  0.00     0.040 A 
HETATM    5  C   UNK N   1      23.226  19.325   3.560  0.00  0.00     0.049 A 
HETATM    6  C   UNK N   1      24.298  20.178   3.321  0.00  0.00     0.017 A 
ENDROOT
BRANCH   1   7
HETATM    7  C   UNK N   1      27.307  18.065   4.399  0.00  0.00     0.197 C 
HETATM    8  O   UNK N   1      27.937  17.676   3.440  0.00  0.00    -0.286 OA
BRANCH   7   9
HETATM    9  C   UNK N   1      28.051  18.094   5.714  0.00  0.00     0.064 A 
HETATM   10  C   UNK N   1      27.890  19.051   6.730  0.00  0.00     0.096 A 
HETATM   11  O   UNK N   1      28.694  18.727   7.722  0.00  0.00    -0.241 OA
HETATM   12  N   UNK N   1      29.368  17.652   7.462  0.00  0.00    -0.271 N 
HETATM   13  C   UNK N   1      29.017  17.225   6.241  0.00  0.00     0.132 A 
ATOM     14  HN  UNK N   1      30.049  17.209   8.078  1.00  0.00     0.194 HD
BRANCH  10  15
HETATM   15  C   UNK N   1      27.106  20.342   6.859  0.00  0.00     0.046 A 
HETATM   16  C   UNK N   1      27.580  21.608   6.151  0.00  0.00     0.012 A 
HETATM   17  C   UNK N   1      26.309  21.651   6.969  0.00  0.00     0.012 A 
ENDBRANCH  10  15
ENDBRANCH   7   9
ENDBRANCH   1   7
BRANCH   2  18
HETATM   18  S   UNK N   1      24.921  16.070   5.374  0.00  0.00     0.172 S 
HETATM   19  O   UNK N   1      25.019  15.019   4.258  0.00  0.00    -0.223 OA
HETATM   20  O   UNK N   1      23.391  16.102   5.217  0.00  0.00    -0.223 OA
HETATM   21  C   UNK N   1      24.560  14.959   6.801  0.00  0.00     0.167 C 
ENDBRANCH   2  18
BRANCH   5  22
HETATM   22  C   UNK N   1      21.813  19.748   3.249  0.00  0.00     0.417 C 
HETATM   23  F   UNK N   1      21.824  21.030   2.731  0.00  0.00    -0.166 F 
HETATM   24  F   UNK N   1      21.013  19.737   4.379  0.00  0.00    -0.166 F 
HETATM   25  F   UNK N   1      21.265  18.886   2.316  0.00  0.00    -0.166 F 
ENDBRANCH   5  22
TORSDOF 5
ENDMDL
MODEL 9
REMARK VINA RESULT:      -6.6     16.512     18.059
REMARK  5 active torsions:
REMARK  status: ('A' for Active; 'I' for Inactive)
REMARK    1  A    between atoms: S_1  and  C_19 
REMARK    2  A    between atoms: C_11  and  C_14 
REMARK    3  A    between atoms: C_15  and  C_16 
REMARK    4  A    between atoms: C_16  and  C_18 
REMARK    5  A    between atoms: C_22  and  C_25 
ROOT
HETATM    1  C   UNK N   1      26.241  23.346  -7.056  0.00  0.00     0.036 A 
HETATM    2  C   UNK N   1      26.159  24.509  -7.905  0.00  0.00     0.073 A 
HETATM    3  C   UNK N   1      25.917  23.511  -5.696  0.00  0.00     0.018 A 
HETATM    4  C   UNK N   1      25.849  25.758  -7.331  0.00  0.00     0.040 A 
HETATM    5  C   UNK N   1      25.567  25.884  -5.971  0.00  0.00     0.049 A 
HETATM    6  C   UNK N   1      25.584  24.748  -5.167  0.00  0.00     0.017 A 
ENDROOT
BRANCH   1   7
HETATM    7  C   UNK N   1      26.631  21.998  -7.619  0.00  0.00     0.197 C 
HETATM    8  O   UNK N   1      25.718  21.278  -7.961  0.00  0.00    -0.286 OA
BRANCH   7   9
HETATM    9  C   UNK N   1      28.024  21.459  -7.850  0.00  0.00     0.064 A 
HETATM   10  C   UNK N   1      29.108  21.574  -6.963  0.00  0.00     0.096 A 
HETATM   11  O   UNK N   1      30.140  20.963  -7.506  0.00  0.00    -0.241 OA
HETATM   12  N   UNK N   1      29.846  20.456  -8.661  0.00  0.00    -0.271 N 
HETATM   13  C   UNK N   1      28.561  20.735  -8.923  0.00  0.00     0.132 A 
ATOM     14  HN  UNK N   1      30.481  19.936  -9.266  1.00  0.00     0.194 HD
BRANCH  10  15
HETATM   15  C   UNK N   1      29.334  22.295  -5.649  0.00  0.00     0.046 A 
HETATM   16  C   UNK N   1      30.225  21.680  -4.574  0.00  0.00     0.012 A 
HETATM   17  C   UNK N   1      29.584  23.025  -4.321  0.00  0.00     0.012 A 
ENDBRANCH  10  15
ENDBRANCH   7   9
ENDBRANCH   1   7
BRANCH   2  18
HETATM   18  S   UNK N   1      26.289  24.451  -9.737  0.00  0.00     0.172 S 
HETATM   19  O   UNK N   1      26.039  25.912 -10.144  0.00  0.00    -0.223 OA
HETATM   20  O   UNK N   1      24.773  24.224  -9.605  0.00  0.00    -0.223 OA
HETATM   21  C   UNK N   1      26.073  23.643 -11.380  0.00  0.00     0.167 C 
ENDBRANCH   2  18
BRANCH   5  22
HETATM   22  C   UNK N   1      25.222  27.235  -5.400  0.00  0.00     0.417 C 
HETATM   23  F   UNK N   1      23.927  27.565  -5.759  0.00  0.00    -0.166 F 
HETATM   24  F   UNK N   1      26.072  28.223  -5.867  0.00  0.00    -0.166 F 
HETATM   25  F   UNK N   1      25.314  27.194  -4.021  0.00  0.00    -0.166 F 
ENDBRANCH   5  22
TORSDOF 5
ENDMDL
