MODEL 1
REMARK VINA RESULT:      -2.2      0.000      0.000
REMARK  3 active torsions:
REMARK  status: ('A' for Active; 'I' for Inactive)
REMARK    1  A    between atoms: S_1  and  C_4 
REMARK    2  A    between atoms: N_2  and  C_3 
REMARK    3  A    between atoms: C_3  and  C_4 
ROOT
HETATM    1  C   UNK N   1      20.973  20.221   1.324  0.00  0.00     0.121 C 
ENDROOT
BRANCH   1   2
HETATM    2  N   UNK N   1      20.344  21.182   0.439  0.00  0.00    -0.429 N 
HETATM    3  H   UNK N   1      20.513  21.135  -0.566  0.00  0.00     0.149 HD
HETATM    4  H   UNK N   1      19.734  21.904   0.821  0.00  0.00     0.149 HD
ENDBRANCH   1   2
BRANCH   1   5
HETATM    5  C   UNK N   1      20.783  20.668   2.757  0.00  0.00     0.089 C 
BRANCH   5   6
HETATM    6  S   UNK N   1      21.112  19.280   3.876  0.00  0.00    -0.181 SA
HETATM    7  H   UNK N   1      21.165  19.487   5.220  0.00  0.00     0.101 HD
ENDBRANCH   5   6
ENDBRANCH   1   5
TORSDOF 3
ENDMDL
MODEL 2
REMARK VINA RESULT:      -2.1     12.272     12.460
REMARK  3 active torsions:
REMARK  status: ('A' for Active; 'I' for Inactive)
REMARK    1  A    between atoms: S_1  and  C_4 
REMARK    2  A    between atoms: N_2  and  C_3 
REMARK    3  A    between atoms: C_3  and  C_4 
ROOT
HETATM    1  C   UNK N   1      23.819  11.950  11.557  0.00  0.00     0.121 C 
ENDROOT
BRANCH   1   2
HETATM    2  N   UNK N   1      25.024  12.562  11.031  0.00  0.00    -0.429 N 
HETATM    3  H   UNK N   1      25.745  12.898  11.669  0.00  0.00     0.149 HD
HETATM    4  H   UNK N   1      25.149  12.656  10.023  0.00  0.00     0.149 HD
ENDBRANCH   1   2
BRANCH   1   5
HETATM    5  C   UNK N   1      22.908  11.577  10.408  0.00  0.00     0.089 C 
BRANCH   5   6
HETATM    6  S   UNK N   1      21.484  12.698  10.372  0.00  0.00    -0.181 SA
HETATM    7  H   UNK N   1      20.786  12.873   9.218  0.00  0.00     0.101 HD
ENDBRANCH   5   6
ENDBRANCH   1   5
TORSDOF 3
ENDMDL
MODEL 3
REMARK VINA RESULT:      -2.1      2.587      2.649
REMARK  3 active torsions:
REMARK  status: ('A' for Active; 'I' for Inactive)
REMARK    1  A    between atoms: S_1  and  C_4 
REMARK    2  A    between atoms: N_2  and  C_3 
REMARK    3  A    between atoms: C_3  and  C_4 
ROOT
HETATM    1  C   UNK N   1      19.865  18.481   2.975  0.00  0.00     0.121 C 
ENDROOT
BRANCH   1   2
HETATM    2  N   UNK N   1      18.603  18.590   2.269  0.00  0.00    -0.429 N 
HETATM    3  H   UNK N   1      17.770  18.136   2.642  0.00  0.00     0.149 HD
HETATM    4  H   UNK N   1      18.550  19.119   1.399  0.00  0.00     0.149 HD
ENDBRANCH   1   2
BRANCH   1   5
HETATM    5  C   UNK N   1      20.431  19.866   3.198  0.00  0.00     0.089 C 
BRANCH   5   6
HETATM    6  S   UNK N   1      20.849  20.618   1.602  0.00  0.00    -0.181 SA
HETATM    7  H   UNK N   1      20.028  20.443   0.532  0.00  0.00     0.101 HD
ENDBRANCH   5   6
ENDBRANCH   1   5
TORSDOF 3
ENDMDL
MODEL 4
REMARK VINA RESULT:      -2.0     23.287     23.307
REMARK  3 active torsions:
REMARK  status: ('A' for Active; 'I' for Inactive)
REMARK    1  A    between atoms: S_1  and  C_4 
REMARK    2  A    between atoms: N_2  and  C_3 
REMARK    3  A    between atoms: C_3  and  C_4 
ROOT
HETATM    1  C   UNK N   1      44.125  22.081   4.493  0.00  0.00     0.121 C 
ENDROOT
BRANCH   1   2
HETATM    2  N   UNK N   1      45.540  22.170   4.187  0.00  0.00    -0.429 N 
HETATM    3  H   UNK N   1      45.854  22.711   3.381  0.00  0.00     0.149 HD
HETATM    4  H   UNK N   1      46.220  21.692   4.778  0.00  0.00     0.149 HD
ENDBRANCH   1   2
BRANCH   1   5
HETATM    5  C   UNK N   1      43.452  21.186   3.475  0.00  0.00     0.089 C 
BRANCH   5   6
HETATM    6  S   UNK N   1      42.294  22.162   2.479  0.00  0.00    -0.181 SA
HETATM    7  H   UNK N   1      42.401  22.168   1.123  0.00  0.00     0.101 HD
ENDBRANCH   5   6
ENDBRANCH   1   5
TORSDOF 3
ENDMDL
MODEL 5
REMARK VINA RESULT:      -2.0     15.575     15.672
REMARK  3 active torsions:
REMARK  status: ('A' for Active; 'I' for Inactive)
REMARK    1  A    between atoms: S_1  and  C_4 
REMARK    2  A    between atoms: N_2  and  C_3 
REMARK    3  A    between atoms: C_3  and  C_4 
ROOT
HETATM    1  C   UNK N   1      34.547  16.775   9.191  0.00  0.00     0.121 C 
ENDROOT
BRANCH   1   2
HETATM    2  N   UNK N   1      34.974  17.180  10.516  0.00  0.00    -0.429 N 
HETATM    3  H   UNK N   1      35.625  17.958  10.626  0.00  0.00     0.149 HD
HETATM    4  H   UNK N   1      34.624  16.688  11.338  0.00  0.00     0.149 HD
ENDBRANCH   1   2
BRANCH   1   5
HETATM    5  C   UNK N   1      34.434  17.999   8.309  0.00  0.00     0.089 C 
BRANCH   5   6
HETATM    6  S   UNK N   1      33.653  17.547   6.737  0.00  0.00    -0.181 SA
HETATM    7  H   UNK N   1      32.544  18.210   6.312  0.00  0.00     0.101 HD
ENDBRANCH   5   6
ENDBRANCH   1   5
TORSDOF 3
ENDMDL
MODEL 6
REMARK VINA RESULT:      -2.0     12.623     12.744
REMARK  3 active torsions:
REMARK  status: ('A' for Active; 'I' for Inactive)
REMARK    1  A    between atoms: S_1  and  C_4 
REMARK    2  A    between atoms: N_2  and  C_3 
REMARK    3  A    between atoms: C_3  and  C_4 
ROOT
HETATM    1  C   UNK N   1      21.501  12.420  10.736  0.00  0.00     0.121 C 
ENDROOT
BRANCH   1   2
HETATM    2  N   UNK N   1      20.722  11.854  11.820  0.00  0.00    -0.429 N 
HETATM    3  H   UNK N   1      21.176  11.270  12.523  0.00  0.00     0.149 HD
HETATM    4  H   UNK N   1      19.721  12.040  11.880  0.00  0.00     0.149 HD
ENDBRANCH   1   2
BRANCH   1   5
HETATM    5  C   UNK N   1      22.973  12.227  11.028  0.00  0.00     0.089 C 
BRANCH   5   6
HETATM    6  S   UNK N   1      23.203  11.869  12.790  0.00  0.00    -0.181 SA
HETATM    7  H   UNK N   1      23.212  10.581  13.227  0.00  0.00     0.101 HD
ENDBRANCH   5   6
ENDBRANCH   1   5
TORSDOF 3
ENDMDL
MODEL 7
REMARK VINA RESULT:      -1.9      7.854      8.026
REMARK  3 active torsions:
REMARK  status: ('A' for Active; 'I' for Inactive)
REMARK    1  A    between atoms: S_1  and  C_4 
REMARK    2  A    between atoms: N_2  and  C_3 
REMARK    3  A    between atoms: C_3  and  C_4 
ROOT
HETATM    1  C   UNK N   1      26.477  21.303   6.856  0.00  0.00     0.121 C 
ENDROOT
BRANCH   1   2
HETATM    2  N   UNK N   1      25.849  21.076   8.143  0.00  0.00    -0.429 N 
HETATM    3  H   UNK N   1      26.418  21.036   8.988  0.00  0.00     0.149 HD
HETATM    4  H   UNK N   1      24.838  20.957   8.202  0.00  0.00     0.149 HD
ENDBRANCH   1   2
BRANCH   1   5
HETATM    5  C   UNK N   1      27.524  20.237   6.619  0.00  0.00     0.089 C 
BRANCH   5   6
HETATM    6  S   UNK N   1      27.744  19.984   4.838  0.00  0.00    -0.181 SA
HETATM    7  H   UNK N   1      26.720  20.247   3.982  0.00  0.00     0.101 HD
ENDBRANCH   5   6
ENDBRANCH   1   5
TORSDOF 3
ENDMDL
MODEL 8
REMARK VINA RESULT:      -1.9     11.193     11.336
REMARK  3 active torsions:
REMARK  status: ('A' for Active; 'I' for Inactive)
REMARK    1  A    between atoms: S_1  and  C_4 
REMARK    2  A    between atoms: N_2  and  C_3 
REMARK    3  A    between atoms: C_3  and  C_4 
ROOT
HETATM    1  C   UNK N   1      28.863  18.273   8.280  0.00  0.00     0.121 C 
ENDROOT
BRANCH   1   2
HETATM    2  N   UNK N   1      27.687  18.435   9.113  0.00  0.00    -0.429 N 
HETATM    3  H   UNK N   1      27.631  17.959  10.014  0.00  0.00     0.149 HD
HETATM    4  H   UNK N   1      26.916  19.023   8.798  0.00  0.00     0.149 HD
ENDBRANCH   1   2
BRANCH   1   5
HETATM    5  C   UNK N   1      30.099  18.548   9.108  0.00  0.00     0.089 C 
BRANCH   5   6
HETATM    6  S   UNK N   1      31.516  17.670   8.395  0.00  0.00    -0.181 SA
HETATM    7  H   UNK N   1      32.076  18.110   7.236  0.00  0.00     0.101 HD
ENDBRANCH   5   6
ENDBRANCH   1   5
TORSDOF 3
ENDMDL
MODEL 9
REMARK VINA RESULT:      -1.8      1.986      2.150
REMARK  3 active torsions:
REMARK  status: ('A' for Active; 'I' for Inactive)
REMARK    1  A    between atoms: S_1  and  C_4 
REMARK    2  A    between atoms: N_2  and  C_3 
REMARK    3  A    between atoms: C_3  and  C_4 
ROOT
HETATM    1  C   UNK N   1      20.615  20.115   3.398  0.00  0.00     0.121 C 
ENDROOT
BRANCH   1   2
HETATM    2  N   UNK N   1      20.952  21.233   2.539  0.00  0.00    -0.429 N 
HETATM    3  H   UNK N   1      20.739  22.186   2.836  0.00  0.00     0.149 HD
HETATM    4  H   UNK N   1      21.401  21.067   1.639  0.00  0.00     0.149 HD
ENDBRANCH   1   2
BRANCH   1   5
HETATM    5  C   UNK N   1      19.581  19.252   2.709  0.00  0.00     0.089 C 
BRANCH   5   6
HETATM    6  S   UNK N   1      20.302  17.638   2.309  0.00  0.00    -0.181 SA
HETATM    7  H   UNK N   1      19.948  17.000   1.161  0.00  0.00     0.101 HD
ENDBRANCH   5   6
ENDBRANCH   1   5
TORSDOF 3
ENDMDL
