REMARK  3 active torsions:
REMARK  status: ('A' for Active; 'I' for Inactive)
REMARK    1  A    between atoms: S_1  and  C_4 
REMARK    2  A    between atoms: N_2  and  C_3 
REMARK    3  A    between atoms: C_3  and  C_4 
ROOT
HETATM    1  C   UNK N   1       2.848   0.606  -0.000  0.00  0.00     0.121 C 
ENDROOT
BRANCH   1   2
HETATM    2  N   UNK N   1       1.541  -0.022  -0.000  0.00  0.00    -0.429 N 
HETATM    3  H   UNK N   1       0.699   0.554  -0.000  0.00  0.00     0.149 HD
HETATM    4  H   UNK N   1       1.464  -1.039  -0.000  0.00  0.00     0.149 HD
ENDBRANCH   1   2
BRANCH   1   5
HETATM    5  C   UNK N   1       3.915  -0.467   0.000  0.00  0.00     0.089 C 
BRANCH   5   6
HETATM    6  S   UNK N   1       5.555   0.305  -0.000  0.00  0.00    -0.181 SA
HETATM    7  H   UNK N   1       6.672  -0.471  -0.000  0.00  0.00     0.101 HD
ENDBRANCH   5   6
ENDBRANCH   1   5
TORSDOF 3
