MODEL 1
REMARK VINA RESULT:      -5.7      0.000      0.000
REMARK  1 active torsions:
REMARK  status: ('A' for Active; 'I' for Inactive)
REMARK       I    between atoms: N_11  and  C_17 
REMARK    1  A    between atoms: C_13  and  C_17 
ROOT
HETATM    1  O   UNK N   1      36.228  16.802  10.558  0.00  0.00    -0.244 OA
HETATM    2  N   UNK N   1      34.372  16.995   9.309  0.00  0.00    -0.241 N 
HETATM    3  N   UNK N   1      34.534  15.353  10.981  0.00  0.00    -0.232 N 
HETATM    4  N   UNK N   1      33.559  18.238   7.648  0.00  0.00    -0.344 N 
ATOM      5  HN  UNK N   1      33.472  18.945   6.918  1.00  0.00     0.167 HD
HETATM    6  N   UNK N   1      32.594  15.534   9.696  0.00  0.00    -0.268 N 
ATOM      7  HN  UNK N   1      31.654  15.213   9.466  1.00  0.00     0.190 HD
HETATM    8  N   UNK N   1      33.297  14.942  10.668  0.00  0.00    -0.235 N 
ATOM      9  HN  UNK N   1      32.885  14.163  11.181  1.00  0.00     0.208 HD
HETATM   10  C   UNK N   1      33.153  16.564   9.026  0.00  0.00     0.165 A 
HETATM   11  C   UNK N   1      32.636  17.312   8.009  0.00  0.00     0.148 A 
HETATM   12  C   UNK N   1      35.105  16.407  10.294  0.00  0.00     0.350 A 
HETATM   13  C   UNK N   1      34.625  18.020   8.469  0.00  0.00     0.195 A 
HETATM   14  C   UNK N   1      35.254  14.675  12.046  0.00  0.00     0.184 C 
ENDROOT
BRANCH  11  15
HETATM   15  C   UNK N   1      31.305  17.152   7.402  0.00  0.00     0.269 C 
HETATM   16  O   UNK N   1      30.320  17.028   8.113  0.00  0.00    -0.266 OA
HETATM   17  N   UNK N   1      31.167  17.140   6.063  0.00  0.00    -0.365 N 
HETATM   18  H   UNK N   1      30.276  17.032   5.661  0.00  0.00     0.159 HD
HETATM   19  H   UNK N   1      31.958  17.239   5.486  0.00  0.00     0.159 HD
ENDBRANCH  11  15
TORSDOF 1
ENDMDL
MODEL 2
REMARK VINA RESULT:      -5.6     12.039     13.990
REMARK  1 active torsions:
REMARK  status: ('A' for Active; 'I' for Inactive)
REMARK       I    between atoms: N_11  and  C_17 
REMARK    1  A    between atoms: C_13  and  C_17 
ROOT
HETATM    1  O   UNK N   1      41.974  20.179   3.735  0.00  0.00    -0.244 OA
HETATM    2  N   UNK N   1      43.362  21.871   3.234  0.00  0.00    -0.241 N 
HETATM    3  N   UNK N   1      41.174  21.814   2.383  0.00  0.00    -0.232 N 
HETATM    4  N   UNK N   1      45.443  22.548   3.651  0.00  0.00    -0.344 N 
ATOM      5  HN  UNK N   1      46.396  22.588   4.013  1.00  0.00     0.167 HD
HETATM    6  N   UNK N   1      42.597  23.584   1.847  0.00  0.00    -0.268 N 
ATOM      7  HN  UNK N   1      42.767  24.466   1.362  1.00  0.00     0.190 HD
HETATM    8  N   UNK N   1      41.412  22.973   1.751  0.00  0.00    -0.235 N 
ATOM      9  HN  UNK N   1      40.674  23.394   1.187  1.00  0.00     0.208 HD
HETATM   10  C   UNK N   1      43.563  23.014   2.597  0.00  0.00     0.165 A 
HETATM   11  C   UNK N   1      44.834  23.447   2.839  0.00  0.00     0.148 A 
HETATM   12  C   UNK N   1      42.163  21.232   3.150  0.00  0.00     0.350 A 
HETATM   13  C   UNK N   1      44.510  21.582   3.881  0.00  0.00     0.195 A 
HETATM   14  C   UNK N   1      39.868  21.191   2.245  0.00  0.00     0.184 C 
ENDROOT
BRANCH  11  15
HETATM   15  C   UNK N   1      45.448  24.677   2.315  0.00  0.00     0.269 C 
HETATM   16  O   UNK N   1      45.100  25.765   2.746  0.00  0.00    -0.266 OA
HETATM   17  N   UNK N   1      46.394  24.610   1.360  0.00  0.00    -0.365 N 
HETATM   18  H   UNK N   1      46.801  25.435   1.012  0.00  0.00     0.159 HD
HETATM   19  H   UNK N   1      46.677  23.735   1.009  0.00  0.00     0.159 HD
ENDBRANCH  11  15
TORSDOF 1
ENDMDL
MODEL 3
REMARK VINA RESULT:      -5.5      2.663      5.337
REMARK  1 active torsions:
REMARK  status: ('A' for Active; 'I' for Inactive)
REMARK       I    between atoms: N_11  and  C_17 
REMARK    1  A    between atoms: C_13  and  C_17 
ROOT
HETATM    1  O   UNK N   1      35.145  15.094   7.555  0.00  0.00    -0.244 OA
HETATM    2  N   UNK N   1      35.512  14.745   9.743  0.00  0.00    -0.241 N 
HETATM    3  N   UNK N   1      33.348  15.174   8.936  0.00  0.00    -0.232 N 
HETATM    4  N   UNK N   1      37.191  14.307  11.139  0.00  0.00    -0.344 N 
ATOM      5  HN  UNK N   1      38.124  14.120  11.506  1.00  0.00     0.167 HD
HETATM    6  N   UNK N   1      33.702  14.813  11.214  0.00  0.00    -0.268 N 
ATOM      7  HN  UNK N   1      33.338  14.739  12.164  1.00  0.00     0.190 HD
HETATM    8  N   UNK N   1      32.883  15.073  10.190  0.00  0.00    -0.235 N 
ATOM      9  HN  UNK N   1      31.886  15.197  10.364  1.00  0.00     0.208 HD
HETATM   10  C   UNK N   1      35.019  14.652  10.967  0.00  0.00     0.165 A 
HETATM   11  C   UNK N   1      36.033  14.384  11.841  0.00  0.00     0.148 A 
HETATM   12  C   UNK N   1      34.696  15.008   8.685  0.00  0.00     0.350 A 
HETATM   13  C   UNK N   1      36.841  14.534   9.842  0.00  0.00     0.195 A 
HETATM   14  C   UNK N   1      32.414  15.458   7.859  0.00  0.00     0.184 C 
ENDROOT
BRANCH  11  15
HETATM   15  C   UNK N   1      35.902  14.207  13.295  0.00  0.00     0.269 C 
HETATM   16  O   UNK N   1      34.960  13.579  13.752  0.00  0.00    -0.266 OA
HETATM   17  N   UNK N   1      36.819  14.734  14.128  0.00  0.00    -0.365 N 
HETATM   18  H   UNK N   1      36.728  14.612  15.101  0.00  0.00     0.159 HD
HETATM   19  H   UNK N   1      37.580  15.240  13.765  0.00  0.00     0.159 HD
ENDBRANCH  11  15
TORSDOF 1
ENDMDL
MODEL 4
REMARK VINA RESULT:      -5.4     11.695     13.428
REMARK  1 active torsions:
REMARK  status: ('A' for Active; 'I' for Inactive)
REMARK       I    between atoms: N_11  and  C_17 
REMARK    1  A    between atoms: C_13  and  C_17 
ROOT
HETATM    1  O   UNK N   1      40.019  21.460   0.425  0.00  0.00    -0.244 OA
HETATM    2  N   UNK N   1      41.605  21.667   2.002  0.00  0.00    -0.241 N 
HETATM    3  N   UNK N   1      40.918  23.519   0.730  0.00  0.00    -0.232 N 
HETATM    4  N   UNK N   1      42.690  20.425   3.499  0.00  0.00    -0.344 N 
ATOM      5  HN  UNK N   1      42.999  19.631   4.060  1.00  0.00     0.167 HD
HETATM    6  N   UNK N   1      42.569  23.761   2.363  0.00  0.00    -0.268 N 
ATOM      7  HN  UNK N   1      43.231  24.348   2.870  1.00  0.00     0.190 HD
HETATM    8  N   UNK N   1      41.794  24.279   1.404  0.00  0.00    -0.235 N 
ATOM      9  HN  UNK N   1      41.869  25.271   1.181  1.00  0.00     0.208 HD
HETATM   10  C   UNK N   1      42.458  22.446   2.647  0.00  0.00     0.165 A 
HETATM   11  C   UNK N   1      43.134  21.704   3.571  0.00  0.00     0.148 A 
HETATM   12  C   UNK N   1      40.806  22.174   1.022  0.00  0.00     0.350 A 
HETATM   13  C   UNK N   1      41.743  20.429   2.520  0.00  0.00     0.195 A 
HETATM   14  C   UNK N   1      40.100  24.133  -0.302  0.00  0.00     0.184 C 
ENDROOT
BRANCH  11  15
HETATM   15  C   UNK N   1      44.170  22.198   4.492  0.00  0.00     0.269 C 
HETATM   16  O   UNK N   1      43.851  22.703   5.557  0.00  0.00    -0.266 OA
HETATM   17  N   UNK N   1      45.472  22.095   4.167  0.00  0.00    -0.365 N 
HETATM   18  H   UNK N   1      46.162  22.427   4.786  0.00  0.00     0.159 HD
HETATM   19  H   UNK N   1      45.735  21.689   3.310  0.00  0.00     0.159 HD
ENDBRANCH  11  15
TORSDOF 1
ENDMDL
MODEL 5
REMARK VINA RESULT:      -5.4      2.868      4.704
REMARK  1 active torsions:
REMARK  status: ('A' for Active; 'I' for Inactive)
REMARK       I    between atoms: N_11  and  C_17 
REMARK    1  A    between atoms: C_13  and  C_17 
ROOT
HETATM    1  O   UNK N   1      35.608  11.380  12.633  0.00  0.00    -0.244 OA
HETATM    2  N   UNK N   1      35.337  13.375  11.638  0.00  0.00    -0.241 N 
HETATM    3  N   UNK N   1      36.514  13.186  13.662  0.00  0.00    -0.232 N 
HETATM    4  N   UNK N   1      34.396  14.259   9.823  0.00  0.00    -0.344 N 
ATOM      5  HN  UNK N   1      33.888  14.358   8.944  1.00  0.00     0.167 HD
HETATM    6  N   UNK N   1      36.247  15.272  12.648  0.00  0.00    -0.268 N 
ATOM      7  HN  UNK N   1      36.407  16.279  12.643  1.00  0.00     0.190 HD
HETATM    8  N   UNK N   1      36.717  14.512  13.643  0.00  0.00    -0.235 N 
ATOM      9  HN  UNK N   1      37.241  14.948  14.402  1.00  0.00     0.208 HD
HETATM   10  C   UNK N   1      35.556  14.680  11.651  0.00  0.00     0.165 A 
HETATM   11  C   UNK N   1      34.987  15.242  10.546  0.00  0.00     0.148 A 
HETATM   12  C   UNK N   1      35.807  12.583  12.641  0.00  0.00     0.350 A 
HETATM   13  C   UNK N   1      34.628  13.112  10.521  0.00  0.00     0.195 A 
HETATM   14  C   UNK N   1      37.048  12.408  14.767  0.00  0.00     0.184 C 
ENDROOT
BRANCH  11  15
HETATM   15  C   UNK N   1      35.005  16.670  10.189  0.00  0.00     0.269 C 
HETATM   16  O   UNK N   1      35.963  17.364  10.495  0.00  0.00    -0.266 OA
HETATM   17  N   UNK N   1      33.970  17.218   9.527  0.00  0.00    -0.365 N 
HETATM   18  H   UNK N   1      33.987  18.173   9.291  0.00  0.00     0.159 HD
HETATM   19  H   UNK N   1      33.196  16.663   9.278  0.00  0.00     0.159 HD
ENDBRANCH  11  15
TORSDOF 1
ENDMDL
MODEL 6
REMARK VINA RESULT:      -5.4     14.192     15.507
REMARK  1 active torsions:
REMARK  status: ('A' for Active; 'I' for Inactive)
REMARK       I    between atoms: N_11  and  C_17 
REMARK    1  A    between atoms: C_13  and  C_17 
ROOT
HETATM    1  O   UNK N   1      19.904  14.837   3.026  0.00  0.00    -0.244 OA
HETATM    2  N   UNK N   1      20.342  16.992   2.574  0.00  0.00    -0.241 N 
HETATM    3  N   UNK N   1      19.535  15.550   0.905  0.00  0.00    -0.232 N 
HETATM    4  N   UNK N   1      21.082  18.830   3.593  0.00  0.00    -0.344 N 
ATOM      5  HN  UNK N   1      21.433  19.469   4.306  1.00  0.00     0.167 HD
HETATM    6  N   UNK N   1      19.982  17.786   0.409  0.00  0.00    -0.268 N 
ATOM      7  HN  UNK N   1      20.006  18.555  -0.260  1.00  0.00     0.190 HD
HETATM    8  N   UNK N   1      19.571  16.570   0.036  0.00  0.00    -0.235 N 
ATOM      9  HN  UNK N   1      19.279  16.415  -0.929  1.00  0.00     0.208 HD
HETATM   10  C   UNK N   1      20.366  17.977   1.690  0.00  0.00     0.165 A 
HETATM   11  C   UNK N   1      20.817  19.114   2.294  0.00  0.00     0.148 A 
HETATM   12  C   UNK N   1      19.927  15.747   2.214  0.00  0.00     0.350 A 
HETATM   13  C   UNK N   1      20.780  17.509   3.741  0.00  0.00     0.195 A 
HETATM   14  C   UNK N   1      19.079  14.249   0.446  0.00  0.00     0.184 C 
ENDROOT
BRANCH  11  15
HETATM   15  C   UNK N   1      20.989  20.428   1.655  0.00  0.00     0.269 C 
HETATM   16  O   UNK N   1      21.200  20.500   0.454  0.00  0.00    -0.266 OA
HETATM   17  N   UNK N   1      20.915  21.554   2.388  0.00  0.00    -0.365 N 
HETATM   18  H   UNK N   1      21.031  22.431   1.956  0.00  0.00     0.159 HD
HETATM   19  H   UNK N   1      20.745  21.501   3.356  0.00  0.00     0.159 HD
ENDBRANCH  11  15
TORSDOF 1
ENDMDL
MODEL 7
REMARK VINA RESULT:      -5.3      2.369      5.513
REMARK  1 active torsions:
REMARK  status: ('A' for Active; 'I' for Inactive)
REMARK       I    between atoms: N_11  and  C_17 
REMARK    1  A    between atoms: C_13  and  C_17 
ROOT
HETATM    1  O   UNK N   1      29.783  16.608   5.536  0.00  0.00    -0.244 OA
HETATM    2  N   UNK N   1      31.546  17.178   6.804  0.00  0.00    -0.241 N 
HETATM    3  N   UNK N   1      31.769  16.902   4.482  0.00  0.00    -0.232 N 
HETATM    4  N   UNK N   1      32.048  17.590   8.935  0.00  0.00    -0.344 N 
ATOM      5  HN  UNK N   1      31.968  17.713   9.944  1.00  0.00     0.167 HD
HETATM    6  N   UNK N   1      33.617  17.496   5.778  0.00  0.00    -0.268 N 
ATOM      7  HN  UNK N   1      34.608  17.727   5.851  1.00  0.00     0.190 HD
HETATM    8  N   UNK N   1      33.070  17.208   4.593  0.00  0.00    -0.235 N 
ATOM      9  HN  UNK N   1      33.653  17.220   3.756  1.00  0.00     0.208 HD
HETATM   10  C   UNK N   1      32.833  17.476   6.877  0.00  0.00     0.165 A 
HETATM   11  C   UNK N   1      33.163  17.731   8.176  0.00  0.00     0.148 A 
HETATM   12  C   UNK N   1      30.969  16.882   5.607  0.00  0.00     0.350 A 
HETATM   13  C   UNK N   1      31.061  17.247   8.061  0.00  0.00     0.195 A 
HETATM   14  C   UNK N   1      31.226  16.597   3.169  0.00  0.00     0.184 C 
ENDROOT
BRANCH  11  15
HETATM   15  C   UNK N   1      34.497  18.099   8.677  0.00  0.00     0.269 C 
HETATM   16  O   UNK N   1      35.096  19.042   8.185  0.00  0.00    -0.266 OA
HETATM   17  N   UNK N   1      35.061  17.400   9.680  0.00  0.00    -0.365 N 
HETATM   18  H   UNK N   1      35.953  17.650  10.012  0.00  0.00     0.159 HD
HETATM   19  H   UNK N   1      34.582  16.639  10.080  0.00  0.00     0.159 HD
ENDBRANCH  11  15
TORSDOF 1
ENDMDL
MODEL 8
REMARK VINA RESULT:      -5.3      2.806      3.952
REMARK  1 active torsions:
REMARK  status: ('A' for Active; 'I' for Inactive)
REMARK       I    between atoms: N_11  and  C_17 
REMARK    1  A    between atoms: C_13  and  C_17 
ROOT
HETATM    1  O   UNK N   1      32.701  15.234   5.975  0.00  0.00    -0.244 OA
HETATM    2  N   UNK N   1      31.193  16.405   7.157  0.00  0.00    -0.241 N 
HETATM    3  N   UNK N   1      33.407  16.180   7.912  0.00  0.00    -0.232 N 
HETATM    4  N   UNK N   1      29.050  17.006   7.064  0.00  0.00    -0.344 N 
ATOM      5  HN  UNK N   1      28.085  17.113   6.750  1.00  0.00     0.167 HD
HETATM    6  N   UNK N   1      31.859  17.403   9.159  0.00  0.00    -0.268 N 
ATOM      7  HN  UNK N   1      31.631  17.965   9.980  1.00  0.00     0.190 HD
HETATM    8  N   UNK N   1      33.093  16.920   8.985  0.00  0.00    -0.235 N 
ATOM      9  HN  UNK N   1      33.811  17.118   9.682  1.00  0.00     0.208 HD
HETATM   10  C   UNK N   1      30.919  17.132   8.229  0.00  0.00     0.165 A 
HETATM   11  C   UNK N   1      29.609  17.511   8.192  0.00  0.00     0.148 A 
HETATM   12  C   UNK N   1      32.444  15.904   6.961  0.00  0.00     0.350 A 
HETATM   13  C   UNK N   1      30.053  16.325   6.441  0.00  0.00     0.195 A 
HETATM   14  C   UNK N   1      34.764  15.680   7.772  0.00  0.00     0.184 C 
ENDROOT
BRANCH  11  15
HETATM   15  C   UNK N   1      28.912  18.328   9.197  0.00  0.00     0.269 C 
HETATM   16  O   UNK N   1      29.524  18.767  10.159  0.00  0.00    -0.266 OA
HETATM   17  N   UNK N   1      27.600  18.596   9.064  0.00  0.00    -0.365 N 
HETATM   18  H   UNK N   1      27.138  19.143   9.739  0.00  0.00     0.159 HD
HETATM   19  H   UNK N   1      27.102  18.244   8.290  0.00  0.00     0.159 HD
ENDBRANCH  11  15
TORSDOF 1
ENDMDL
MODEL 9
REMARK VINA RESULT:      -5.2     13.053     14.823
REMARK  1 active torsions:
REMARK  status: ('A' for Active; 'I' for Inactive)
REMARK       I    between atoms: N_11  and  C_17 
REMARK    1  A    between atoms: C_13  and  C_17 
ROOT
HETATM    1  O   UNK N   1      22.286  20.178   3.416  0.00  0.00    -0.244 OA
HETATM    2  N   UNK N   1      21.035  18.442   4.094  0.00  0.00    -0.241 N 
HETATM    3  N   UNK N   1      20.561  19.556   2.081  0.00  0.00    -0.232 N 
HETATM    4  N   UNK N   1      20.902  16.996   5.783  0.00  0.00    -0.344 N 
ATOM      5  HN  UNK N   1      21.094  16.501   6.655  1.00  0.00     0.167 HD
HETATM    6  N   UNK N   1      19.245  17.753   2.764  0.00  0.00    -0.268 N 
ATOM      7  HN  UNK N   1      18.461  17.121   2.604  1.00  0.00     0.190 HD
HETATM    8  N   UNK N   1      19.533  18.718   1.884  0.00  0.00    -0.235 N 
ATOM      9  HN  UNK N   1      18.961  18.819   1.046  1.00  0.00     0.208 HD
HETATM   10  C   UNK N   1      20.013  17.632   3.868  0.00  0.00     0.165 A 
HETATM   11  C   UNK N   1      19.913  16.737   4.892  0.00  0.00     0.148 A 
HETATM   12  C   UNK N   1      21.345  19.430   3.211  0.00  0.00     0.350 A 
HETATM   13  C   UNK N   1      21.583  18.056   5.265  0.00  0.00     0.195 A 
HETATM   14  C   UNK N   1      20.830  20.587   1.092  0.00  0.00     0.184 C 
ENDROOT
BRANCH  11  15
HETATM   15  C   UNK N   1      18.909  15.669   5.019  0.00  0.00     0.269 C 
HETATM   16  O   UNK N   1      17.896  15.858   5.674  0.00  0.00    -0.266 OA
HETATM   17  N   UNK N   1      19.100  14.482   4.414  0.00  0.00    -0.365 N 
HETATM   18  H   UNK N   1      18.425  13.771   4.502  0.00  0.00     0.159 HD
HETATM   19  H   UNK N   1      19.915  14.325   3.885  0.00  0.00     0.159 HD
ENDBRANCH  11  15
TORSDOF 1
ENDMDL
