MODEL 1
REMARK VINA RESULT:      -9.5      0.000      0.000
REMARK  4 active torsions:
REMARK  status: ('A' for Active; 'I' for Inactive)
REMARK       I    between atoms: N_3  and  C_15 
REMARK    1  A    between atoms: N_7  and  C_24 
REMARK       I    between atoms: N_7  and  C_29 
REMARK    2  A    between atoms: C_15  and  C_18 
REMARK    3  A    between atoms: C_27  and  C_29 
REMARK    4  A    between atoms: C_28  and  C_30 
ROOT
HETATM    1  C   UNK N   1      33.671  15.318   6.670  0.00  0.00     0.032 A 
HETATM    2  C   UNK N   1      33.324  16.591   7.126  0.00  0.00     0.019 A 
HETATM    3  C   UNK N   1      32.666  14.505   6.110  0.00  0.00     0.019 A 
HETATM    4  C   UNK N   1      31.048  16.250   6.337  0.00  0.00     0.035 A 
HETATM    5  C   UNK N   1      32.027  17.061   6.940  0.00  0.00     0.030 A 
HETATM    6  C   UNK N   1      31.361  14.959   5.951  0.00  0.00     0.030 A 
ENDROOT
BRANCH   1   7
HETATM    7  C   UNK N   1      35.073  14.826   6.849  0.00  0.00     0.258 C 
HETATM    8  O   UNK N   1      35.860  15.031   5.934  0.00  0.00    -0.267 OA
HETATM    9  N   UNK N   1      35.495  14.198   8.010  0.00  0.00    -0.313 N 
HETATM   10  C   UNK N   1      34.498  13.769   8.964  0.00  0.00     0.138 C 
HETATM   11  C   UNK N   1      36.878  13.840   8.248  0.00  0.00     0.050 A 
HETATM   12  C   UNK N   1      34.442  14.744  10.092  0.00  0.00     0.080 C 
HETATM   13  C   UNK N   1      35.410  14.295  11.088  0.00  0.00     0.040 A 
HETATM   14  N   UNK N   1      35.158  14.314  12.403  0.00  0.00    -0.348 N 
HETATM   15  C   UNK N   1      36.687  13.822  10.863  0.00  0.00     0.069 A 
HETATM   16  C   UNK N   1      36.290  13.861  12.967  0.00  0.00     0.077 A 
HETATM   17  H   UNK N   1      34.329  14.594  12.855  0.00  0.00     0.167 HD
HETATM   18  N   UNK N   1      37.244  13.555  12.061  0.00  0.00    -0.344 N 
HETATM   19  C   UNK N   1      36.474  13.733  14.435  0.00  0.00     0.089 C 
ATOM     20  HN  UNK N   1      38.182  13.199  12.245  1.00  0.00     0.167 HD
HETATM   21  C   UNK N   1      37.419  13.628   9.569  0.00  0.00     0.020 A 
HETATM   22  C   UNK N   1      38.769  13.259   9.691  0.00  0.00     0.016 A 
HETATM   23  C   UNK N   1      39.591  13.104   8.580  0.00  0.00     0.001 A 
HETATM   24  C   UNK N   1      39.084  13.326   7.309  0.00  0.00     0.002 A 
HETATM   25  C   UNK N   1      37.750  13.687   7.149  0.00  0.00     0.031 A 
ENDBRANCH   1   7
BRANCH   4  26
HETATM   26  N   UNK N   1      29.761  16.780   6.090  0.00  0.00    -0.323 N 
HETATM   27  C   UNK N   1      29.612  17.737   5.144  0.00  0.00     0.257 C 
HETATM   28  O   UNK N   1      30.477  17.899   4.292  0.00  0.00    -0.267 OA
HETATM   29  H   UNK N   1      28.983  16.457   6.600  0.00  0.00     0.169 HD
BRANCH  27  30
HETATM   30  C   UNK N   1      28.485  18.665   5.207  0.00  0.00     0.043 A 
HETATM   31  C   UNK N   1      27.959  19.123   6.458  0.00  0.00    -0.010 A 
HETATM   32  C   UNK N   1      26.893  20.039   6.424  0.00  0.00     0.013 A 
HETATM   33  C   UNK N   1      26.355  20.482   5.215  0.00  0.00     0.001 A 
HETATM   34  C   UNK N   1      26.850  19.995   4.008  0.00  0.00     0.001 A 
HETATM   35  C   UNK N   1      27.905  19.085   4.004  0.00  0.00     0.018 A 
BRANCH  31  36
HETATM   36  C   UNK N   1      28.403  18.610   7.814  0.00  0.00    -0.025 A 
HETATM   37  C   UNK N   1      29.495  19.156   8.510  0.00  0.00     0.012 A 
HETATM   38  C   UNK N   1      29.925  18.644   9.733  0.00  0.00     0.001 A 
HETATM   39  C   UNK N   1      29.276  17.543  10.283  0.00  0.00     0.000 A 
HETATM   40  C   UNK N   1      28.201  16.963   9.606  0.00  0.00     0.001 A 
HETATM   41  C   UNK N   1      27.769  17.491   8.382  0.00  0.00     0.012 A 
ENDBRANCH  31  36
ENDBRANCH  27  30
ENDBRANCH   4  26
TORSDOF 4
ENDMDL
MODEL 2
REMARK VINA RESULT:      -9.5      1.854      3.067
REMARK  4 active torsions:
REMARK  status: ('A' for Active; 'I' for Inactive)
REMARK       I    between atoms: N_3  and  C_15 
REMARK    1  A    between atoms: N_7  and  C_24 
REMARK       I    between atoms: N_7  and  C_29 
REMARK    2  A    between atoms: C_15  and  C_18 
REMARK    3  A    between atoms: C_27  and  C_29 
REMARK    4  A    between atoms: C_28  and  C_30 
ROOT
HETATM    1  C   UNK N   1      34.624  15.541   6.102  0.00  0.00     0.032 A 
HETATM    2  C   UNK N   1      34.447  16.871   6.488  0.00  0.00     0.019 A 
HETATM    3  C   UNK N   1      33.579  14.895   5.412  0.00  0.00     0.019 A 
HETATM    4  C   UNK N   1      32.280  16.902   5.385  0.00  0.00     0.035 A 
HETATM    5  C   UNK N   1      33.294  17.551   6.112  0.00  0.00     0.030 A 
HETATM    6  C   UNK N   1      32.411  15.562   5.062  0.00  0.00     0.030 A 
ENDROOT
BRANCH   1   7
HETATM    7  C   UNK N   1      35.878  14.820   6.486  0.00  0.00     0.258 C 
HETATM    8  O   UNK N   1      36.785  14.794   5.663  0.00  0.00    -0.267 OA
HETATM    9  N   UNK N   1      36.044  14.234   7.731  0.00  0.00    -0.313 N 
HETATM   10  C   UNK N   1      34.886  14.083   8.583  0.00  0.00     0.138 C 
HETATM   11  C   UNK N   1      37.299  13.654   8.163  0.00  0.00     0.050 A 
HETATM   12  C   UNK N   1      34.896  15.151   9.624  0.00  0.00     0.080 C 
HETATM   13  C   UNK N   1      35.646  14.626  10.761  0.00  0.00     0.040 A 
HETATM   14  N   UNK N   1      35.262  14.810  12.031  0.00  0.00    -0.348 N 
HETATM   15  C   UNK N   1      36.825  13.909  10.728  0.00  0.00     0.069 A 
HETATM   16  C   UNK N   1      36.218  14.213  12.760  0.00  0.00     0.077 A 
HETATM   17  H   UNK N   1      34.458  15.277  12.356  0.00  0.00     0.167 HD
HETATM   18  N   UNK N   1      37.187  13.657  12.002  0.00  0.00    -0.344 N 
HETATM   19  C   UNK N   1      36.214  14.187  14.245  0.00  0.00     0.089 C 
ATOM     20  HN  UNK N   1      38.014  13.153  12.325  1.00  0.00     0.167 HD
HETATM   21  C   UNK N   1      37.642  13.468   9.552  0.00  0.00     0.020 A 
HETATM   22  C   UNK N   1      38.875  12.872   9.865  0.00  0.00     0.016 A 
HETATM   23  C   UNK N   1      39.768  12.469   8.877  0.00  0.00     0.001 A 
HETATM   24  C   UNK N   1      39.454  12.663   7.541  0.00  0.00     0.002 A 
HETATM   25  C   UNK N   1      38.239  13.244   7.193  0.00  0.00     0.031 A 
ENDBRANCH   1   7
BRANCH   4  26
HETATM   26  N   UNK N   1      31.154  17.637   4.949  0.00  0.00    -0.323 N 
HETATM   27  C   UNK N   1      29.996  17.544   5.644  0.00  0.00     0.257 C 
HETATM   28  O   UNK N   1      30.002  17.123   6.795  0.00  0.00    -0.267 OA
HETATM   29  H   UNK N   1      31.211  18.209   4.149  0.00  0.00     0.169 HD
BRANCH  27  30
HETATM   30  C   UNK N   1      28.720  17.821   4.989  0.00  0.00     0.043 A 
HETATM   31  C   UNK N   1      28.030  16.817   4.234  0.00  0.00    -0.010 A 
HETATM   32  C   UNK N   1      26.793  17.162   3.662  0.00  0.00     0.013 A 
HETATM   33  C   UNK N   1      26.256  18.442   3.812  0.00  0.00     0.001 A 
HETATM   34  C   UNK N   1      26.959  19.419   4.513  0.00  0.00     0.001 A 
HETATM   35  C   UNK N   1      28.187  19.112   5.092  0.00  0.00     0.018 A 
BRANCH  31  36
HETATM   36  C   UNK N   1      28.591  15.443   3.924  0.00  0.00    -0.025 A 
HETATM   37  C   UNK N   1      28.537  14.378   4.840  0.00  0.00     0.012 A 
HETATM   38  C   UNK N   1      29.099  13.134   4.563  0.00  0.00     0.001 A 
HETATM   39  C   UNK N   1      29.757  12.930   3.354  0.00  0.00     0.000 A 
HETATM   40  C   UNK N   1      29.847  13.974   2.431  0.00  0.00     0.001 A 
HETATM   41  C   UNK N   1      29.270  15.220   2.713  0.00  0.00     0.012 A 
ENDBRANCH  31  36
ENDBRANCH  27  30
ENDBRANCH   4  26
TORSDOF 4
ENDMDL
MODEL 3
REMARK VINA RESULT:      -9.5      4.544     12.142
REMARK  4 active torsions:
REMARK  status: ('A' for Active; 'I' for Inactive)
REMARK       I    between atoms: N_3  and  C_15 
REMARK    1  A    between atoms: N_7  and  C_24 
REMARK       I    between atoms: N_7  and  C_29 
REMARK    2  A    between atoms: C_15  and  C_18 
REMARK    3  A    between atoms: C_27  and  C_29 
REMARK    4  A    between atoms: C_28  and  C_30 
ROOT
HETATM    1  C   UNK N   1      26.310  18.958   3.901  0.00  0.00     0.032 A 
HETATM    2  C   UNK N   1      26.832  17.752   3.428  0.00  0.00     0.019 A 
HETATM    3  C   UNK N   1      27.070  19.706   4.820  0.00  0.00     0.019 A 
HETATM    4  C   UNK N   1      28.876  18.145   4.687  0.00  0.00     0.035 A 
HETATM    5  C   UNK N   1      28.114  17.361   3.801  0.00  0.00     0.030 A 
HETATM    6  C   UNK N   1      28.339  19.303   5.221  0.00  0.00     0.030 A 
ENDROOT
BRANCH   1   7
HETATM    7  C   UNK N   1      24.941  19.388   3.476  0.00  0.00     0.258 C 
HETATM    8  O   UNK N   1      24.867  20.268   2.628  0.00  0.00    -0.267 OA
HETATM    9  N   UNK N   1      23.792  18.800   3.979  0.00  0.00    -0.313 N 
HETATM   10  C   UNK N   1      23.904  17.938   5.133  0.00  0.00     0.138 C 
HETATM   11  C   UNK N   1      22.469  19.112   3.477  0.00  0.00     0.050 A 
HETATM   12  C   UNK N   1      23.855  16.514   4.692  0.00  0.00     0.080 C 
HETATM   13  C   UNK N   1      22.449  16.120   4.691  0.00  0.00     0.040 A 
HETATM   14  N   UNK N   1      22.029  14.931   5.143  0.00  0.00    -0.348 N 
HETATM   15  C   UNK N   1      21.374  16.853   4.232  0.00  0.00     0.069 A 
HETATM   16  C   UNK N   1      20.701  14.948   4.942  0.00  0.00     0.077 A 
HETATM   17  H   UNK N   1      22.571  14.209   5.535  0.00  0.00     0.167 HD
HETATM   18  N   UNK N   1      20.267  16.099   4.387  0.00  0.00    -0.344 N 
HETATM   19  C   UNK N   1      19.812  13.808   5.281  0.00  0.00     0.089 C 
ATOM     20  HN  UNK N   1      19.308  16.345   4.139  1.00  0.00     0.167 HD
HETATM   21  C   UNK N   1      21.341  18.225   3.630  0.00  0.00     0.020 A 
HETATM   22  C   UNK N   1      20.093  18.633   3.130  0.00  0.00     0.016 A 
HETATM   23  C   UNK N   1      19.923  19.856   2.488  0.00  0.00     0.001 A 
HETATM   24  C   UNK N   1      21.007  20.704   2.319  0.00  0.00     0.002 A 
HETATM   25  C   UNK N   1      22.256  20.337   2.808  0.00  0.00     0.031 A 
ENDBRANCH   1   7
BRANCH   4  26
HETATM   26  N   UNK N   1      30.203  17.764   4.989  0.00  0.00    -0.323 N 
HETATM   27  C   UNK N   1      30.454  17.103   6.143  0.00  0.00     0.257 C 
HETATM   28  O   UNK N   1      29.542  16.545   6.742  0.00  0.00    -0.267 OA
HETATM   29  H   UNK N   1      30.936  17.978   4.367  0.00  0.00     0.169 HD
BRANCH  27  30
HETATM   30  C   UNK N   1      31.783  17.157   6.749  0.00  0.00     0.043 A 
HETATM   31  C   UNK N   1      32.900  16.471   6.171  0.00  0.00    -0.010 A 
HETATM   32  C   UNK N   1      34.148  16.602   6.805  0.00  0.00     0.013 A 
HETATM   33  C   UNK N   1      34.296  17.364   7.964  0.00  0.00     0.001 A 
HETATM   34  C   UNK N   1      33.192  17.990   8.538  0.00  0.00     0.001 A 
HETATM   35  C   UNK N   1      31.940  17.881   7.937  0.00  0.00     0.018 A 
BRANCH  31  36
HETATM   36  C   UNK N   1      32.807  15.531   4.984  0.00  0.00    -0.025 A 
HETATM   37  C   UNK N   1      32.178  14.276   5.059  0.00  0.00     0.012 A 
HETATM   38  C   UNK N   1      32.142  13.401   3.975  0.00  0.00     0.001 A 
HETATM   39  C   UNK N   1      32.763  13.757   2.782  0.00  0.00     0.000 A 
HETATM   40  C   UNK N   1      33.416  14.988   2.683  0.00  0.00     0.001 A 
HETATM   41  C   UNK N   1      33.439  15.867   3.773  0.00  0.00     0.012 A 
ENDBRANCH  31  36
ENDBRANCH  27  30
ENDBRANCH   4  26
TORSDOF 4
ENDMDL
MODEL 4
REMARK VINA RESULT:      -9.3      3.928      7.084
REMARK  4 active torsions:
REMARK  status: ('A' for Active; 'I' for Inactive)
REMARK       I    between atoms: N_3  and  C_15 
REMARK    1  A    between atoms: N_7  and  C_24 
REMARK       I    between atoms: N_7  and  C_29 
REMARK    2  A    between atoms: C_15  and  C_18 
REMARK    3  A    between atoms: C_27  and  C_29 
REMARK    4  A    between atoms: C_28  and  C_30 
ROOT
HETATM    1  C   UNK N   1      28.680  17.929   5.500  0.00  0.00     0.032 A 
HETATM    2  C   UNK N   1      27.715  16.955   5.234  0.00  0.00     0.019 A 
HETATM    3  C   UNK N   1      28.533  19.201   4.913  0.00  0.00     0.019 A 
HETATM    4  C   UNK N   1      26.446  18.572   3.932  0.00  0.00     0.035 A 
HETATM    5  C   UNK N   1      26.596  17.283   4.474  0.00  0.00     0.030 A 
HETATM    6  C   UNK N   1      27.433  19.523   4.127  0.00  0.00     0.030 A 
ENDROOT
BRANCH   1   7
HETATM    7  C   UNK N   1      29.869  17.580   6.338  0.00  0.00     0.258 C 
HETATM    8  O   UNK N   1      29.717  17.577   7.554  0.00  0.00    -0.267 OA
HETATM    9  N   UNK N   1      31.090  17.234   5.784  0.00  0.00    -0.313 N 
HETATM   10  C   UNK N   1      31.301  17.471   4.374  0.00  0.00     0.138 C 
HETATM   11  C   UNK N   1      32.207  16.764   6.578  0.00  0.00     0.050 A 
HETATM   12  C   UNK N   1      31.149  16.187   3.630  0.00  0.00     0.080 C 
HETATM   13  C   UNK N   1      32.467  15.560   3.594  0.00  0.00     0.040 A 
HETATM   14  N   UNK N   1      32.953  14.956   2.502  0.00  0.00    -0.348 N 
HETATM   15  C   UNK N   1      33.380  15.469   4.625  0.00  0.00     0.069 A 
HETATM   16  C   UNK N   1      34.154  14.491   2.883  0.00  0.00     0.077 A 
HETATM   17  H   UNK N   1      32.526  14.872   1.618  0.00  0.00     0.167 HD
HETATM   18  N   UNK N   1      34.446  14.781   4.169  0.00  0.00    -0.344 N 
HETATM   19  C   UNK N   1      35.052  13.722   1.985  0.00  0.00     0.089 C 
ATOM     20  HN  UNK N   1      35.292  14.534   4.684  1.00  0.00     0.167 HD
HETATM   21  C   UNK N   1      33.287  15.979   6.031  0.00  0.00     0.020 A 
HETATM   22  C   UNK N   1      34.337  15.595   6.882  0.00  0.00     0.016 A 
HETATM   23  C   UNK N   1      34.354  15.941   8.229  0.00  0.00     0.001 A 
HETATM   24  C   UNK N   1      33.310  16.678   8.767  0.00  0.00     0.002 A 
HETATM   25  C   UNK N   1      32.257  17.082   7.953  0.00  0.00     0.031 A 
ENDBRANCH   1   7
BRANCH   4  26
HETATM   26  N   UNK N   1      25.263  18.900   3.231  0.00  0.00    -0.323 N 
HETATM   27  C   UNK N   1      24.256  19.521   3.890  0.00  0.00     0.257 C 
HETATM   28  O   UNK N   1      24.476  20.091   4.952  0.00  0.00    -0.267 OA
HETATM   29  H   UNK N   1      25.173  18.679   2.276  0.00  0.00     0.169 HD
BRANCH  27  30
HETATM   30  C   UNK N   1      22.881  19.406   3.409  0.00  0.00     0.043 A 
HETATM   31  C   UNK N   1      22.087  18.244   3.675  0.00  0.00    -0.010 A 
HETATM   32  C   UNK N   1      20.764  18.232   3.200  0.00  0.00     0.013 A 
HETATM   33  C   UNK N   1      20.241  19.309   2.482  0.00  0.00     0.001 A 
HETATM   34  C   UNK N   1      21.039  20.413   2.195  0.00  0.00     0.001 A 
HETATM   35  C   UNK N   1      22.355  20.458   2.650  0.00  0.00     0.018 A 
BRANCH  31  36
HETATM   36  C   UNK N   1      22.607  16.986   4.344  0.00  0.00    -0.025 A 
HETATM   37  C   UNK N   1      22.642  16.830   5.741  0.00  0.00     0.012 A 
HETATM   38  C   UNK N   1      23.167  15.689   6.344  0.00  0.00     0.001 A 
HETATM   39  C   UNK N   1      23.698  14.674   5.554  0.00  0.00     0.000 A 
HETATM   40  C   UNK N   1      23.697  14.808   4.164  0.00  0.00     0.001 A 
HETATM   41  C   UNK N   1      23.158  15.954   3.564  0.00  0.00     0.012 A 
ENDBRANCH  31  36
ENDBRANCH  27  30
ENDBRANCH   4  26
TORSDOF 4
ENDMDL
MODEL 5
REMARK VINA RESULT:      -9.3      3.269     10.441
REMARK  4 active torsions:
REMARK  status: ('A' for Active; 'I' for Inactive)
REMARK       I    between atoms: N_3  and  C_15 
REMARK    1  A    between atoms: N_7  and  C_24 
REMARK       I    between atoms: N_7  and  C_29 
REMARK    2  A    between atoms: C_15  and  C_18 
REMARK    3  A    between atoms: C_27  and  C_29 
REMARK    4  A    between atoms: C_28  and  C_30 
ROOT
HETATM    1  C   UNK N   1      35.398  13.904  10.302  0.00  0.00     0.032 A 
HETATM    2  C   UNK N   1      35.955  14.952  11.037  0.00  0.00     0.019 A 
HETATM    3  C   UNK N   1      34.914  12.777  10.995  0.00  0.00     0.019 A 
HETATM    4  C   UNK N   1      35.416  13.787  13.103  0.00  0.00     0.035 A 
HETATM    5  C   UNK N   1      35.944  14.902  12.427  0.00  0.00     0.030 A 
HETATM    6  C   UNK N   1      34.929  12.710  12.384  0.00  0.00     0.030 A 
ENDROOT
BRANCH   1   7
HETATM    7  C   UNK N   1      35.389  13.973   8.807  0.00  0.00     0.258 C 
HETATM    8  O   UNK N   1      36.095  13.174   8.204  0.00  0.00    -0.267 OA
HETATM    9  N   UNK N   1      34.593  14.869   8.112  0.00  0.00    -0.313 N 
HETATM   10  C   UNK N   1      33.957  15.940   8.844  0.00  0.00     0.138 C 
HETATM   11  C   UNK N   1      34.474  14.854   6.668  0.00  0.00     0.050 A 
HETATM   12  C   UNK N   1      32.524  15.596   9.075  0.00  0.00     0.080 C 
HETATM   13  C   UNK N   1      31.777  16.104   7.929  0.00  0.00     0.040 A 
HETATM   14  N   UNK N   1      30.592  16.717   8.049  0.00  0.00    -0.348 N 
HETATM   15  C   UNK N   1      32.130  16.026   6.597  0.00  0.00     0.069 A 
HETATM   16  C   UNK N   1      30.230  16.996   6.786  0.00  0.00     0.077 A 
HETATM   17  H   UNK N   1      30.098  16.919   8.877  0.00  0.00     0.167 HD
HETATM   18  N   UNK N   1      31.139  16.588   5.875  0.00  0.00    -0.344 N 
HETATM   19  C   UNK N   1      28.953  17.667   6.434  0.00  0.00     0.089 C 
ATOM     20  HN  UNK N   1      31.088  16.685   4.861  1.00  0.00     0.167 HD
HETATM   21  C   UNK N   1      33.350  15.425   5.966  0.00  0.00     0.020 A 
HETATM   22  C   UNK N   1      33.342  15.382   4.562  0.00  0.00     0.016 A 
HETATM   23  C   UNK N   1      34.378  14.797   3.840  0.00  0.00     0.001 A 
HETATM   24  C   UNK N   1      35.451  14.228   4.508  0.00  0.00     0.002 A 
HETATM   25  C   UNK N   1      35.496  14.258   5.898  0.00  0.00     0.031 A 
ENDBRANCH   1   7
BRANCH   4  26
HETATM   26  N   UNK N   1      35.345  13.797  14.515  0.00  0.00    -0.323 N 
HETATM   27  C   UNK N   1      36.219  13.044  15.225  0.00  0.00     0.257 C 
HETATM   28  O   UNK N   1      37.249  12.640  14.700  0.00  0.00    -0.267 OA
HETATM   29  H   UNK N   1      34.669  14.344  14.977  0.00  0.00     0.169 HD
BRANCH  27  30
HETATM   30  C   UNK N   1      35.881  12.600  16.575  0.00  0.00     0.043 A 
HETATM   31  C   UNK N   1      35.903  11.215  16.937  0.00  0.00    -0.010 A 
HETATM   32  C   UNK N   1      35.592  10.880  18.267  0.00  0.00     0.013 A 
HETATM   33  C   UNK N   1      35.262  11.861  19.204  0.00  0.00     0.001 A 
HETATM   34  C   UNK N   1      35.203  13.200  18.825  0.00  0.00     0.001 A 
HETATM   35  C   UNK N   1      35.504  13.567  17.516  0.00  0.00     0.018 A 
BRANCH  31  36
HETATM   36  C   UNK N   1      36.137  10.078  15.961  0.00  0.00    -0.025 A 
HETATM   37  C   UNK N   1      35.218   9.747  14.950  0.00  0.00     0.012 A 
HETATM   38  C   UNK N   1      35.421   8.669  14.089  0.00  0.00     0.001 A 
HETATM   39  C   UNK N   1      36.553   7.874  14.238  0.00  0.00     0.000 A 
HETATM   40  C   UNK N   1      37.474   8.164  15.247  0.00  0.00     0.001 A 
HETATM   41  C   UNK N   1      37.268   9.255  16.101  0.00  0.00     0.012 A 
ENDBRANCH  31  36
ENDBRANCH  27  30
ENDBRANCH   4  26
TORSDOF 4
ENDMDL
MODEL 6
REMARK VINA RESULT:      -9.1     13.068     17.707
REMARK  4 active torsions:
REMARK  status: ('A' for Active; 'I' for Inactive)
REMARK       I    between atoms: N_3  and  C_15 
REMARK    1  A    between atoms: N_7  and  C_24 
REMARK       I    between atoms: N_7  and  C_29 
REMARK    2  A    between atoms: C_15  and  C_18 
REMARK    3  A    between atoms: C_27  and  C_29 
REMARK    4  A    between atoms: C_28  and  C_30 
ROOT
HETATM    1  C   UNK N   1      29.038  23.432  -4.076  0.00  0.00     0.032 A 
HETATM    2  C   UNK N   1      29.248  22.763  -5.283  0.00  0.00     0.019 A 
HETATM    3  C   UNK N   1      29.616  22.907  -2.905  0.00  0.00     0.019 A 
HETATM    4  C   UNK N   1      30.690  21.168  -4.146  0.00  0.00     0.035 A 
HETATM    5  C   UNK N   1      30.085  21.652  -5.320  0.00  0.00     0.030 A 
HETATM    6  C   UNK N   1      30.429  21.778  -2.931  0.00  0.00     0.030 A 
ENDROOT
BRANCH   1   7
HETATM    7  C   UNK N   1      28.157  24.641  -4.046  0.00  0.00     0.258 C 
HETATM    8  O   UNK N   1      26.957  24.458  -3.881  0.00  0.00    -0.267 OA
HETATM    9  N   UNK N   1      28.660  25.927  -4.157  0.00  0.00    -0.313 N 
HETATM   10  C   UNK N   1      30.033  26.098  -4.577  0.00  0.00     0.138 C 
HETATM   11  C   UNK N   1      27.837  27.108  -3.993  0.00  0.00     0.050 A 
HETATM   12  C   UNK N   1      30.881  26.391  -3.386  0.00  0.00     0.080 C 
HETATM   13  C   UNK N   1      30.884  27.840  -3.215  0.00  0.00     0.040 A 
HETATM   14  N   UNK N   1      31.987  28.531  -2.899  0.00  0.00    -0.348 N 
HETATM   15  C   UNK N   1      29.809  28.699  -3.322  0.00  0.00     0.069 A 
HETATM   16  C   UNK N   1      31.570  29.805  -2.805  0.00  0.00     0.077 A 
HETATM   17  H   UNK N   1      32.899  28.184  -2.767  0.00  0.00     0.167 HD
HETATM   18  N   UNK N   1      30.250  29.945  -3.052  0.00  0.00    -0.344 N 
HETATM   19  C   UNK N   1      32.467  30.931  -2.447  0.00  0.00     0.089 C 
ATOM     20  HN  UNK N   1      29.705  30.807  -3.038  1.00  0.00     0.167 HD
HETATM   21  C   UNK N   1      28.376  28.400  -3.644  0.00  0.00     0.020 A 
HETATM   22  C   UNK N   1      27.494  29.489  -3.534  0.00  0.00     0.016 A 
HETATM   23  C   UNK N   1      26.126  29.349  -3.742  0.00  0.00     0.001 A 
HETATM   24  C   UNK N   1      25.598  28.106  -4.058  0.00  0.00     0.002 A 
HETATM   25  C   UNK N   1      26.442  27.007  -4.181  0.00  0.00     0.031 A 
ENDBRANCH   1   7
BRANCH   4  26
HETATM   26  N   UNK N   1      31.597  20.086  -4.224  0.00  0.00    -0.323 N 
HETATM   27  C   UNK N   1      32.898  20.336  -4.502  0.00  0.00     0.257 C 
HETATM   28  O   UNK N   1      33.353  21.463  -4.351  0.00  0.00    -0.267 OA
HETATM   29  H   UNK N   1      31.286  19.163  -4.079  0.00  0.00     0.169 HD
BRANCH  27  30
HETATM   30  C   UNK N   1      33.734  19.300  -5.103  0.00  0.00     0.043 A 
HETATM   31  C   UNK N   1      33.838  19.150  -6.524  0.00  0.00    -0.010 A 
HETATM   32  C   UNK N   1      34.689  18.145  -7.017  0.00  0.00     0.013 A 
HETATM   33  C   UNK N   1      35.403  17.312  -6.154  0.00  0.00     0.001 A 
HETATM   34  C   UNK N   1      35.259  17.443  -4.775  0.00  0.00     0.001 A 
HETATM   35  C   UNK N   1      34.423  18.427  -4.253  0.00  0.00     0.018 A 
BRANCH  31  36
HETATM   36  C   UNK N   1      33.014  19.931  -7.530  0.00  0.00    -0.025 A 
HETATM   37  C   UNK N   1      33.420  21.179  -8.036  0.00  0.00     0.012 A 
HETATM   38  C   UNK N   1      32.632  21.910  -8.922  0.00  0.00     0.001 A 
HETATM   39  C   UNK N   1      31.392  21.413  -9.311  0.00  0.00     0.000 A 
HETATM   40  C   UNK N   1      30.950  20.186  -8.810  0.00  0.00     0.001 A 
HETATM   41  C   UNK N   1      31.753  19.452  -7.927  0.00  0.00     0.012 A 
ENDBRANCH  31  36
ENDBRANCH  27  30
ENDBRANCH   4  26
TORSDOF 4
ENDMDL
MODEL 7
REMARK VINA RESULT:      -9.1      5.384     10.225
REMARK  4 active torsions:
REMARK  status: ('A' for Active; 'I' for Inactive)
REMARK       I    between atoms: N_3  and  C_15 
REMARK    1  A    between atoms: N_7  and  C_24 
REMARK       I    between atoms: N_7  and  C_29 
REMARK    2  A    between atoms: C_15  and  C_18 
REMARK    3  A    between atoms: C_27  and  C_29 
REMARK    4  A    between atoms: C_28  and  C_30 
ROOT
HETATM    1  C   UNK N   1      36.840  13.607  10.618  0.00  0.00     0.032 A 
HETATM    2  C   UNK N   1      36.427  14.778  11.255  0.00  0.00     0.019 A 
HETATM    3  C   UNK N   1      36.845  12.406  11.354  0.00  0.00     0.019 A 
HETATM    4  C   UNK N   1      35.926  13.506  13.267  0.00  0.00     0.035 A 
HETATM    5  C   UNK N   1      35.954  14.723  12.562  0.00  0.00     0.030 A 
HETATM    6  C   UNK N   1      36.403  12.351  12.671  0.00  0.00     0.030 A 
ENDROOT
BRANCH   1   7
HETATM    7  C   UNK N   1      37.324  13.666   9.204  0.00  0.00     0.258 C 
HETATM    8  O   UNK N   1      38.532  13.584   9.020  0.00  0.00    -0.267 OA
HETATM    9  N   UNK N   1      36.457  13.770   8.128  0.00  0.00    -0.313 N 
HETATM   10  C   UNK N   1      35.073  14.096   8.385  0.00  0.00     0.138 C 
HETATM   11  C   UNK N   1      36.903  13.692   6.751  0.00  0.00     0.050 A 
HETATM   12  C   UNK N   1      34.250  12.854   8.303  0.00  0.00     0.080 C 
HETATM   13  C   UNK N   1      33.830  12.716   6.912  0.00  0.00     0.040 A 
HETATM   14  N   UNK N   1      32.593  12.339   6.562  0.00  0.00    -0.348 N 
HETATM   15  C   UNK N   1      34.594  12.919   5.781  0.00  0.00     0.069 A 
HETATM   16  C   UNK N   1      32.621  12.303   5.220  0.00  0.00     0.077 A 
HETATM   17  H   UNK N   1      31.834  12.134   7.156  0.00  0.00     0.167 HD
HETATM   18  N   UNK N   1      33.823  12.647   4.709  0.00  0.00    -0.344 N 
HETATM   19  C   UNK N   1      31.454  11.908   4.391  0.00  0.00     0.089 C 
ATOM     20  HN  UNK N   1      34.088  12.692   3.725  1.00  0.00     0.167 HD
HETATM   21  C   UNK N   1      36.029  13.335   5.660  0.00  0.00     0.020 A 
HETATM   22  C   UNK N   1      36.555  13.313   4.358  0.00  0.00     0.016 A 
HETATM   23  C   UNK N   1      37.888  13.615   4.099  0.00  0.00     0.001 A 
HETATM   24  C   UNK N   1      38.739  13.939   5.144  0.00  0.00     0.002 A 
HETATM   25  C   UNK N   1      38.252  13.977   6.447  0.00  0.00     0.031 A 
ENDBRANCH   1   7
BRANCH   4  26
HETATM   26  N   UNK N   1      35.368  13.465  14.565  0.00  0.00    -0.323 N 
HETATM   27  C   UNK N   1      36.184  13.587  15.638  0.00  0.00     0.257 C 
HETATM   28  O   UNK N   1      37.306  14.061  15.506  0.00  0.00    -0.267 OA
HETATM   29  H   UNK N   1      34.398  13.347  14.687  0.00  0.00     0.169 HD
BRANCH  27  30
HETATM   30  C   UNK N   1      35.785  13.040  16.933  0.00  0.00     0.043 A 
HETATM   31  C   UNK N   1      35.721  11.627  17.163  0.00  0.00    -0.010 A 
HETATM   32  C   UNK N   1      35.356  11.189  18.448  0.00  0.00     0.013 A 
HETATM   33  C   UNK N   1      35.054  12.096  19.466  0.00  0.00     0.001 A 
HETATM   34  C   UNK N   1      35.079  13.465  19.214  0.00  0.00     0.001 A 
HETATM   35  C   UNK N   1      35.435  13.935  17.952  0.00  0.00     0.018 A 
BRANCH  31  36
HETATM   36  C   UNK N   1      35.919  10.575  16.090  0.00  0.00    -0.025 A 
HETATM   37  C   UNK N   1      37.185  10.062  15.756  0.00  0.00     0.012 A 
HETATM   38  C   UNK N   1      37.361   9.131  14.735  0.00  0.00     0.001 A 
HETATM   39  C   UNK N   1      36.261   8.702  13.998  0.00  0.00     0.000 A 
HETATM   40  C   UNK N   1      34.993   9.208  14.291  0.00  0.00     0.001 A 
HETATM   41  C   UNK N   1      34.823  10.137  15.326  0.00  0.00     0.012 A 
ENDBRANCH  31  36
ENDBRANCH  27  30
ENDBRANCH   4  26
TORSDOF 4
ENDMDL
MODEL 8
REMARK VINA RESULT:      -9.0      4.586      7.586
REMARK  4 active torsions:
REMARK  status: ('A' for Active; 'I' for Inactive)
REMARK       I    between atoms: N_3  and  C_15 
REMARK    1  A    between atoms: N_7  and  C_24 
REMARK       I    between atoms: N_7  and  C_29 
REMARK    2  A    between atoms: C_15  and  C_18 
REMARK    3  A    between atoms: C_27  and  C_29 
REMARK    4  A    between atoms: C_28  and  C_30 
ROOT
HETATM    1  C   UNK N   1      28.211  17.560   5.960  0.00  0.00     0.032 A 
HETATM    2  C   UNK N   1      27.611  18.797   5.716  0.00  0.00     0.019 A 
HETATM    3  C   UNK N   1      27.515  16.390   5.597  0.00  0.00     0.019 A 
HETATM    4  C   UNK N   1      25.732  17.674   4.654  0.00  0.00     0.035 A 
HETATM    5  C   UNK N   1      26.392  18.853   5.048  0.00  0.00     0.030 A 
HETATM    6  C   UNK N   1      26.281  16.441   4.958  0.00  0.00     0.030 A 
ENDROOT
BRANCH   1   7
HETATM    7  C   UNK N   1      29.534  17.505   6.655  0.00  0.00     0.258 C 
HETATM    8  O   UNK N   1      29.533  17.618   7.875  0.00  0.00    -0.267 OA
HETATM    9  N   UNK N   1      30.722  17.297   5.973  0.00  0.00    -0.313 N 
HETATM   10  C   UNK N   1      30.716  17.399   4.531  0.00  0.00     0.138 C 
HETATM   11  C   UNK N   1      31.990  17.106   6.646  0.00  0.00     0.050 A 
HETATM   12  C   UNK N   1      30.701  16.029   3.939  0.00  0.00     0.080 C 
HETATM   13  C   UNK N   1      32.094  15.622   3.781  0.00  0.00     0.040 A 
HETATM   14  N   UNK N   1      32.542  14.980   2.694  0.00  0.00    -0.348 N 
HETATM   15  C   UNK N   1      33.126  15.797   4.680  0.00  0.00     0.069 A 
HETATM   16  C   UNK N   1      33.843  14.760   2.948  0.00  0.00     0.077 A 
HETATM   17  H   UNK N   1      32.034  14.728   1.889  0.00  0.00     0.167 HD
HETATM   18  N   UNK N   1      34.233  15.240   4.148  0.00  0.00    -0.344 N 
HETATM   19  C   UNK N   1      34.746  14.046   2.010  0.00  0.00     0.089 C 
ATOM     20  HN  UNK N   1      35.165  15.192   4.562  1.00  0.00     0.167 HD
HETATM   21  C   UNK N   1      33.116  16.445   6.031  0.00  0.00     0.020 A 
HETATM   22  C   UNK N   1      34.311  16.335   6.761  0.00  0.00     0.016 A 
HETATM   23  C   UNK N   1      34.430  16.833   8.054  0.00  0.00     0.001 A 
HETATM   24  C   UNK N   1      33.347  17.451   8.659  0.00  0.00     0.002 A 
HETATM   25  C   UNK N   1      32.149  17.585   7.964  0.00  0.00     0.031 A 
ENDBRANCH   1   7
BRANCH   4  26
HETATM   26  N   UNK N   1      24.534  17.762   3.909  0.00  0.00    -0.323 N 
HETATM   27  C   UNK N   1      23.397  17.237   4.423  0.00  0.00     0.257 C 
HETATM   28  O   UNK N   1      23.316  17.004   5.623  0.00  0.00    -0.267 OA
HETATM   29  H   UNK N   1      24.527  18.199   3.026  0.00  0.00     0.169 HD
BRANCH  27  30
HETATM   30  C   UNK N   1      22.310  16.825   3.538  0.00  0.00     0.043 A 
HETATM   31  C   UNK N   1      22.333  15.565   2.857  0.00  0.00    -0.010 A 
HETATM   32  C   UNK N   1      21.231  15.238   2.048  0.00  0.00     0.013 A 
HETATM   33  C   UNK N   1      20.153  16.112   1.902  0.00  0.00     0.001 A 
HETATM   34  C   UNK N   1      20.165  17.351   2.537  0.00  0.00     0.001 A 
HETATM   35  C   UNK N   1      21.242  17.709   3.345  0.00  0.00     0.018 A 
BRANCH  31  36
HETATM   36  C   UNK N   1      23.509  14.608   2.866  0.00  0.00    -0.025 A 
HETATM   37  C   UNK N   1      24.526  14.647   1.895  0.00  0.00     0.012 A 
HETATM   38  C   UNK N   1      25.576  13.731   1.886  0.00  0.00     0.001 A 
HETATM   39  C   UNK N   1      25.621  12.727   2.848  0.00  0.00     0.000 A 
HETATM   40  C   UNK N   1      24.616  12.648   3.813  0.00  0.00     0.001 A 
HETATM   41  C   UNK N   1      23.568  13.579   3.822  0.00  0.00     0.012 A 
ENDBRANCH  31  36
ENDBRANCH  27  30
ENDBRANCH   4  26
TORSDOF 4
ENDMDL
MODEL 9
REMARK VINA RESULT:      -9.0     12.969     15.389
REMARK  4 active torsions:
REMARK  status: ('A' for Active; 'I' for Inactive)
REMARK       I    between atoms: N_3  and  C_15 
REMARK    1  A    between atoms: N_7  and  C_24 
REMARK       I    between atoms: N_7  and  C_29 
REMARK    2  A    between atoms: C_15  and  C_18 
REMARK    3  A    between atoms: C_27  and  C_29 
REMARK    4  A    between atoms: C_28  and  C_30 
ROOT
HETATM    1  C   UNK N   1      31.441  21.408  -4.198  0.00  0.00     0.032 A 
HETATM    2  C   UNK N   1      31.389  22.199  -3.049  0.00  0.00     0.019 A 
HETATM    3  C   UNK N   1      30.577  21.716  -5.268  0.00  0.00     0.019 A 
HETATM    4  C   UNK N   1      29.736  23.633  -4.112  0.00  0.00     0.035 A 
HETATM    5  C   UNK N   1      30.559  23.316  -3.016  0.00  0.00     0.030 A 
HETATM    6  C   UNK N   1      29.723  22.812  -5.227  0.00  0.00     0.030 A 
ENDROOT
BRANCH   1   7
HETATM    7  C   UNK N   1      32.353  20.223  -4.239  0.00  0.00     0.258 C 
HETATM    8  O   UNK N   1      31.846  19.118  -4.092  0.00  0.00    -0.267 OA
HETATM    9  N   UNK N   1      33.714  20.344  -4.472  0.00  0.00    -0.313 N 
HETATM   10  C   UNK N   1      34.311  21.659  -4.411  0.00  0.00     0.138 C 
HETATM   11  C   UNK N   1      34.584  19.199  -4.649  0.00  0.00     0.050 A 
HETATM   12  C   UNK N   1      34.522  22.171  -5.796  0.00  0.00     0.080 C 
HETATM   13  C   UNK N   1      35.847  21.725  -6.214  0.00  0.00     0.040 A 
HETATM   14  N   UNK N   1      36.697  22.511  -6.888  0.00  0.00    -0.348 N 
HETATM   15  C   UNK N   1      36.414  20.482  -6.018  0.00  0.00     0.069 A 
HETATM   16  C   UNK N   1      37.771  21.733  -7.106  0.00  0.00     0.077 A 
HETATM   17  H   UNK N   1      36.566  23.448  -7.161  0.00  0.00     0.167 HD
HETATM   18  N   UNK N   1      37.633  20.491  -6.594  0.00  0.00    -0.344 N 
HETATM   19  C   UNK N   1      38.971  22.191  -7.851  0.00  0.00     0.089 C 
ATOM     20  HN  UNK N   1      38.307  19.726  -6.635  1.00  0.00     0.167 HD
HETATM   21  C   UNK N   1      35.853  19.274  -5.332  0.00  0.00     0.020 A 
HETATM   22  C   UNK N   1      36.634  18.110  -5.427  0.00  0.00     0.016 A 
HETATM   23  C   UNK N   1      36.212  16.897  -4.892  0.00  0.00     0.001 A 
HETATM   24  C   UNK N   1      34.985  16.813  -4.253  0.00  0.00     0.002 A 
HETATM   25  C   UNK N   1      34.187  17.946  -4.133  0.00  0.00     0.031 A 
ENDBRANCH   1   7
BRANCH   4  26
HETATM   26  N   UNK N   1      28.961  24.815  -4.083  0.00  0.00    -0.323 N 
HETATM   27  C   UNK N   1      27.664  24.744  -3.704  0.00  0.00     0.257 C 
HETATM   28  O   UNK N   1      27.258  23.771  -3.079  0.00  0.00    -0.267 OA
HETATM   29  H   UNK N   1      29.361  25.679  -4.336  0.00  0.00     0.169 HD
BRANCH  27  30
HETATM   30  C   UNK N   1      26.711  25.760  -4.146  0.00  0.00     0.043 A 
HETATM   31  C   UNK N   1      26.000  25.634  -5.383  0.00  0.00    -0.010 A 
HETATM   32  C   UNK N   1      25.081  26.645  -5.715  0.00  0.00     0.013 A 
HETATM   33  C   UNK N   1      24.872  27.741  -4.877  0.00  0.00     0.001 A 
HETATM   34  C   UNK N   1      25.602  27.870  -3.698  0.00  0.00     0.001 A 
HETATM   35  C   UNK N   1      26.522  26.888  -3.338  0.00  0.00     0.018 A 
BRANCH  31  36
HETATM   36  C   UNK N   1      26.246  24.542  -6.405  0.00  0.00    -0.025 A 
HETATM   37  C   UNK N   1      25.653  23.271  -6.313  0.00  0.00     0.012 A 
HETATM   38  C   UNK N   1      25.925  22.259  -7.232  0.00  0.00     0.001 A 
HETATM   39  C   UNK N   1      26.827  22.492  -8.266  0.00  0.00     0.000 A 
HETATM   40  C   UNK N   1      27.449  23.738  -8.373  0.00  0.00     0.001 A 
HETATM   41  C   UNK N   1      27.163  24.754  -7.451  0.00  0.00     0.012 A 
ENDBRANCH  31  36
ENDBRANCH  27  30
ENDBRANCH   4  26
TORSDOF 4
ENDMDL
