REMARK  4 active torsions:
REMARK  status: ('A' for Active; 'I' for Inactive)
REMARK       I    between atoms: N_3  and  C_15 
REMARK    1  A    between atoms: N_7  and  C_24 
REMARK       I    between atoms: N_7  and  C_29 
REMARK    2  A    between atoms: C_15  and  C_18 
REMARK    3  A    between atoms: C_27  and  C_29 
REMARK    4  A    between atoms: C_28  and  C_30 
ROOT
HETATM    1  C   UNK N   1       3.552  -0.336  -0.366  0.00  0.00     0.032 A 
HETATM    2  C   UNK N   1       3.050   0.965  -0.438  0.00  0.00     0.019 A 
HETATM    3  C   UNK N   1       4.946  -0.525  -0.440  0.00  0.00     0.019 A 
HETATM    4  C   UNK N   1       5.320   1.835  -0.522  0.00  0.00     0.035 A 
HETATM    5  C   UNK N   1       3.929   2.042  -0.493  0.00  0.00     0.030 A 
HETATM    6  C   UNK N   1       5.827   0.547  -0.527  0.00  0.00     0.030 A 
ENDROOT
BRANCH   1   7
HETATM    7  C   UNK N   1       2.604  -1.490  -0.281  0.00  0.00     0.258 C 
HETATM    8  O   UNK N   1       1.453  -1.300  -0.655  0.00  0.00    -0.267 OA
HETATM    9  N   UNK N   1       2.999  -2.742   0.162  0.00  0.00    -0.313 N 
HETATM   10  C   UNK N   1       4.286  -2.872   0.807  0.00  0.00     0.138 C 
HETATM   11  C   UNK N   1       2.128  -3.899   0.121  0.00  0.00     0.050 A 
HETATM   12  C   UNK N   1       5.268  -3.441  -0.161  0.00  0.00     0.080 C 
HETATM   13  C   UNK N   1       5.196  -4.893  -0.032  0.00  0.00     0.040 A 
HETATM   14  N   UNK N   1       6.283  -5.676  -0.034  0.00  0.00    -0.348 N 
HETATM   15  C   UNK N   1       4.061  -5.669   0.086  0.00  0.00     0.069 A 
HETATM   16  C   UNK N   1       5.797  -6.924   0.071  0.00  0.00     0.077 A 
HETATM   17  H   UNK N   1       7.226  -5.399  -0.097  0.00  0.00     0.167 HD
HETATM   18  N   UNK N   1       4.449  -6.959   0.143  0.00  0.00    -0.344 N 
HETATM   19  C   UNK N   1       6.657  -8.134   0.086  0.00  0.00     0.089 C 
ATOM     20  HN  UNK N   1       3.854  -7.784   0.224  1.00  0.00     0.167 HD
HETATM   21  C   UNK N   1       2.621  -5.255   0.125  0.00  0.00     0.020 A 
HETATM   22  C   UNK N   1       1.691  -6.308   0.109  0.00  0.00     0.016 A 
HETATM   23  C   UNK N   1       0.320  -6.076   0.079  0.00  0.00     0.001 A 
HETATM   24  C   UNK N   1      -0.161  -4.776   0.054  0.00  0.00     0.002 A 
HETATM   25  C   UNK N   1       0.730  -3.708   0.076  0.00  0.00     0.031 A 
ENDBRANCH   1   7
BRANCH   4  26
HETATM   26  N   UNK N   1       6.191   2.948  -0.499  0.00  0.00    -0.323 N 
HETATM   27  C   UNK N   1       5.989   3.925   0.416  0.00  0.00     0.257 C 
HETATM   28  O   UNK N   1       5.304   3.706   1.408  0.00  0.00    -0.267 OA
HETATM   29  H   UNK N   1       6.935   3.012  -1.141  0.00  0.00     0.169 HD
BRANCH  27  30
HETATM   30  C   UNK N   1       6.475   5.280   0.166  0.00  0.00     0.043 A 
HETATM   31  C   UNK N   1       5.584   6.401   0.122  0.00  0.00    -0.010 A 
HETATM   32  C   UNK N   1       6.142   7.673  -0.095  0.00  0.00     0.013 A 
HETATM   33  C   UNK N   1       7.516   7.842  -0.273  0.00  0.00     0.001 A 
HETATM   34  C   UNK N   1       8.364   6.737  -0.270  0.00  0.00     0.001 A 
HETATM   35  C   UNK N   1       7.845   5.462  -0.059  0.00  0.00     0.018 A 
BRANCH  31  36
HETATM   36  C   UNK N   1       4.073   6.297   0.190  0.00  0.00    -0.025 A 
HETATM   37  C   UNK N   1       3.401   5.064   0.261  0.00  0.00     0.012 A 
HETATM   38  C   UNK N   1       2.010   4.979   0.274  0.00  0.00     0.001 A 
HETATM   39  C   UNK N   1       1.249   6.141   0.192  0.00  0.00     0.000 A 
HETATM   40  C   UNK N   1       1.886   7.380   0.099  0.00  0.00     0.001 A 
HETATM   41  C   UNK N   1       3.285   7.458   0.097  0.00  0.00     0.012 A 
ENDBRANCH  31  36
ENDBRANCH  27  30
ENDBRANCH   4  26
TORSDOF 4
