REMARK  4 active torsions:
REMARK  status: ('A' for Active; 'I' for Inactive)
REMARK    1  A    between atoms: O_4  and  C_13 
REMARK    2  A    between atoms: C_10  and  N_6 
REMARK    3  A    between atoms: N_9  and  C_17 
REMARK    4  A    between atoms: C_12  and  C_13 
ROOT
HETATM    1  F   UNK N   1       5.879   2.818  -0.207  0.00  0.00    -0.201 F 
HETATM    2  O   UNK N   1       0.839   1.170   0.342  0.00  0.00    -0.246 OA
HETATM    3  N   UNK N   1       3.023   0.599   0.170  0.00  0.00    -0.279 N 
HETATM    4  N   UNK N   1       2.271   2.865   0.081  0.00  0.00    -0.292 N 
ATOM      5  HN  UNK N   1       1.505   3.537   0.096  1.00  0.00     0.172 HD
HETATM    6  C   UNK N   1       4.312   1.034   0.028  0.00  0.00     0.144 A 
HETATM    7  C   UNK N   1       1.998   1.529   0.202  0.00  0.00     0.330 A 
HETATM    8  C   UNK N   1       4.596   2.394  -0.084  0.00  0.00     0.175 A 
HETATM    9  C   UNK N   1       3.545   3.308  -0.059  0.00  0.00     0.143 A 
ENDROOT
BRANCH   3  10
HETATM   10  C   UNK N   1       2.742  -0.840   0.334  0.00  0.00     0.243 C 
HETATM   11  O   UNK N   1       3.908  -1.630   0.245  0.00  0.00    -0.348 OA
HETATM   12  C   UNK N   1       3.557  -2.883  -0.310  0.00  0.00     0.209 C 
HETATM   13  S   UNK N   1       1.749  -3.086  -0.386  0.00  0.00    -0.131 SA
HETATM   14  C   UNK N   1       1.745  -1.334  -0.683  0.00  0.00     0.131 C 
BRANCH  12  15
HETATM   15  C   UNK N   1       4.158  -3.992   0.536  0.00  0.00     0.207 C 
BRANCH  15  16
HETATM   16  O   UNK N   1       3.889  -5.235  -0.040  0.00  0.00    -0.398 OA
HETATM   17  H   UNK N   1       3.048  -5.505  -0.440  0.00  0.00     0.209 HD
ENDBRANCH  15  16
ENDBRANCH  12  15
ENDBRANCH   3  10
BRANCH   9  18
HETATM   18  N   UNK N   1       3.797   4.690  -0.169  0.00  0.00    -0.383 N 
HETATM   19  H   UNK N   1       4.722   5.020  -0.245  0.00  0.00     0.157 HD
HETATM   20  H   UNK N   1       3.047   5.328  -0.169  0.00  0.00     0.157 HD
ENDBRANCH   9  18
TORSDOF 4
