MODEL 1
REMARK VINA RESULT:      -5.7      0.000      0.000
REMARK  4 active torsions:
REMARK  status: ('A' for Active; 'I' for Inactive)
REMARK    1  A    between atoms: O_4  and  C_13 
REMARK    2  A    between atoms: C_10  and  N_6 
REMARK    3  A    between atoms: N_9  and  C_17 
REMARK    4  A    between atoms: C_12  and  C_13 
ROOT
HETATM    1  F   UNK N   1      34.916  13.493  14.095  0.00  0.00    -0.201 F 
HETATM    2  O   UNK N   1      37.574  14.256   9.538  0.00  0.00    -0.246 OA
HETATM    3  N   UNK N   1      35.640  14.522  10.684  0.00  0.00    -0.279 N 
HETATM    4  N   UNK N   1      37.551  13.432  11.614  0.00  0.00    -0.292 N 
ATOM      5  HN  UNK N   1      38.509  13.100  11.512  1.00  0.00     0.172 HD
HETATM    6  C   UNK N   1      34.968  14.320  11.858  0.00  0.00     0.144 A 
HETATM    7  C   UNK N   1      36.945  14.077  10.570  0.00  0.00     0.330 A 
HETATM    8  C   UNK N   1      35.584  13.674  12.928  0.00  0.00     0.175 A 
HETATM    9  C   UNK N   1      36.895  13.227  12.783  0.00  0.00     0.143 A 
ENDROOT
BRANCH   3  10
HETATM   10  C   UNK N   1      34.990  15.249   9.576  0.00  0.00     0.243 C 
HETATM   11  O   UNK N   1      35.263  16.633   9.606  0.00  0.00    -0.348 OA
HETATM   12  C   UNK N   1      34.145  17.320   9.077  0.00  0.00     0.209 C 
HETATM   13  S   UNK N   1      32.972  16.166   8.297  0.00  0.00    -0.131 SA
HETATM   14  C   UNK N   1      33.496  15.051   9.578  0.00  0.00     0.131 C 
BRANCH  12  15
HETATM   15  C   UNK N   1      34.620  18.334   8.051  0.00  0.00     0.207 C 
BRANCH  15  16
HETATM   16  O   UNK N   1      35.411  19.306   8.666  0.00  0.00    -0.398 OA
HETATM   17  H   UNK N   1      36.265  19.151   9.100  0.00  0.00     0.209 HD
ENDBRANCH  15  16
ENDBRANCH  12  15
ENDBRANCH   3  10
BRANCH   9  18
HETATM   18  N   UNK N   1      37.548  12.570  13.846  0.00  0.00    -0.383 N 
HETATM   19  H   UNK N   1      38.214  11.869  13.660  0.00  0.00     0.157 HD
HETATM   20  H   UNK N   1      37.337  12.813  14.777  0.00  0.00     0.157 HD
ENDBRANCH   9  18
TORSDOF 4
ENDMDL
MODEL 2
REMARK VINA RESULT:      -5.5     13.805     14.948
REMARK  4 active torsions:
REMARK  status: ('A' for Active; 'I' for Inactive)
REMARK    1  A    between atoms: O_4  and  C_13 
REMARK    2  A    between atoms: C_10  and  N_6 
REMARK    3  A    between atoms: N_9  and  C_17 
REMARK    4  A    between atoms: C_12  and  C_13 
ROOT
HETATM    1  F   UNK N   1      24.259  12.448   9.778  0.00  0.00    -0.201 F 
HETATM    2  O   UNK N   1      19.210  14.155   9.876  0.00  0.00    -0.246 OA
HETATM    3  N   UNK N   1      21.229  14.233   8.855  0.00  0.00    -0.279 N 
HETATM    4  N   UNK N   1      20.821  12.918  10.808  0.00  0.00    -0.292 N 
ATOM      5  HN  UNK N   1      20.182  12.605  11.538  1.00  0.00     0.172 HD
HETATM    6  C   UNK N   1      22.523  13.789   8.841  0.00  0.00     0.144 A 
HETATM    7  C   UNK N   1      20.374  13.785   9.847  0.00  0.00     0.330 A 
HETATM    8  C   UNK N   1      22.979  12.897   9.810  0.00  0.00     0.175 A 
HETATM    9  C   UNK N   1      22.101  12.470  10.803  0.00  0.00     0.143 A 
ENDROOT
BRANCH   3  10
HETATM   10  C   UNK N   1      20.747  15.141   7.796  0.00  0.00     0.243 C 
HETATM   11  O   UNK N   1      19.965  14.473   6.830  0.00  0.00    -0.348 OA
HETATM   12  C   UNK N   1      20.153  15.113   5.583  0.00  0.00     0.209 C 
HETATM   13  S   UNK N   1      21.049  16.687   5.779  0.00  0.00    -0.131 SA
HETATM   14  C   UNK N   1      21.886  15.838   7.097  0.00  0.00     0.131 C 
BRANCH  12  15
HETATM   15  C   UNK N   1      18.801  15.375   4.944  0.00  0.00     0.207 C 
BRANCH  15  16
HETATM   16  O   UNK N   1      17.918  15.903   5.888  0.00  0.00    -0.398 OA
HETATM   17  H   UNK N   1      16.982  16.109   5.737  0.00  0.00     0.209 HD
ENDBRANCH  15  16
ENDBRANCH  12  15
ENDBRANCH   3  10
BRANCH   9  18
HETATM   18  N   UNK N   1      22.530  11.568  11.797  0.00  0.00    -0.383 N 
HETATM   19  H   UNK N   1      22.044  11.505  12.652  0.00  0.00     0.157 HD
HETATM   20  H   UNK N   1      23.318  11.000  11.638  0.00  0.00     0.157 HD
ENDBRANCH   9  18
TORSDOF 4
ENDMDL
MODEL 3
REMARK VINA RESULT:      -5.5     12.914     13.987
REMARK  4 active torsions:
REMARK  status: ('A' for Active; 'I' for Inactive)
REMARK    1  A    between atoms: O_4  and  C_13 
REMARK    2  A    between atoms: C_10  and  N_6 
REMARK    3  A    between atoms: N_9  and  C_17 
REMARK    4  A    between atoms: C_12  and  C_13 
ROOT
HETATM    1  F   UNK N   1      20.090  12.240  11.755  0.00  0.00    -0.201 F 
HETATM    2  O   UNK N   1      24.234  13.698   8.735  0.00  0.00    -0.246 OA
HETATM    3  N   UNK N   1      21.987  13.687   9.011  0.00  0.00    -0.279 N 
HETATM    4  N   UNK N   1      23.482  12.654  10.561  0.00  0.00    -0.292 N 
ATOM      5  HN  UNK N   1      24.433  12.411  10.835  1.00  0.00     0.172 HD
HETATM    6  C   UNK N   1      20.932  13.307   9.794  0.00  0.00     0.144 A 
HETATM    7  C   UNK N   1      23.272  13.359   9.407  0.00  0.00     0.330 A 
HETATM    8  C   UNK N   1      21.141  12.598  10.976  0.00  0.00     0.175 A 
HETATM    9  C   UNK N   1      22.444  12.272  11.346  0.00  0.00     0.143 A 
ENDROOT
BRANCH   3  10
HETATM   10  C   UNK N   1      21.753  14.477   7.787  0.00  0.00     0.243 C 
HETATM   11  O   UNK N   1      21.520  15.841   8.063  0.00  0.00    -0.348 OA
HETATM   12  C   UNK N   1      20.638  16.351   7.081  0.00  0.00     0.209 C 
HETATM   13  S   UNK N   1      20.418  15.167   5.716  0.00  0.00    -0.131 SA
HETATM   14  C   UNK N   1      20.591  13.940   6.990  0.00  0.00     0.131 C 
BRANCH  12  15
HETATM   15  C   UNK N   1      21.194  17.656   6.537  0.00  0.00     0.207 C 
BRANCH  15  16
HETATM   16  O   UNK N   1      20.855  18.712   7.385  0.00  0.00    -0.398 OA
HETATM   17  H   UNK N   1      20.644  18.638   8.328  0.00  0.00     0.209 HD
ENDBRANCH  15  16
ENDBRANCH  12  15
ENDBRANCH   3  10
BRANCH   9  18
HETATM   18  N   UNK N   1      22.692  11.557  12.535  0.00  0.00    -0.383 N 
HETATM   19  H   UNK N   1      22.127  11.705  13.328  0.00  0.00     0.157 HD
HETATM   20  H   UNK N   1      23.431  10.909  12.574  0.00  0.00     0.157 HD
ENDBRANCH   9  18
TORSDOF 4
ENDMDL
MODEL 4
REMARK VINA RESULT:      -5.3      6.292      8.379
REMARK  4 active torsions:
REMARK  status: ('A' for Active; 'I' for Inactive)
REMARK    1  A    between atoms: O_4  and  C_13 
REMARK    2  A    between atoms: C_10  and  N_6 
REMARK    3  A    between atoms: N_9  and  C_17 
REMARK    4  A    between atoms: C_12  and  C_13 
ROOT
HETATM    1  F   UNK N   1      28.370  18.051   4.450  0.00  0.00    -0.201 F 
HETATM    2  O   UNK N   1      29.353  18.494   9.670  0.00  0.00    -0.246 OA
HETATM    3  N   UNK N   1      30.038  17.704   7.662  0.00  0.00    -0.279 N 
HETATM    4  N   UNK N   1      27.991  18.903   7.947  0.00  0.00    -0.292 N 
ATOM      5  HN  UNK N   1      27.332  19.382   8.560  1.00  0.00     0.172 HD
HETATM    6  C   UNK N   1      29.774  17.597   6.325  0.00  0.00     0.144 A 
HETATM    7  C   UNK N   1      29.136  18.371   8.475  0.00  0.00     0.330 A 
HETATM    8  C   UNK N   1      28.615  18.147   5.781  0.00  0.00     0.175 A 
HETATM    9  C   UNK N   1      27.720  18.803   6.622  0.00  0.00     0.143 A 
ENDROOT
BRANCH   3  10
HETATM   10  C   UNK N   1      31.291  17.157   8.216  0.00  0.00     0.243 C 
HETATM   11  O   UNK N   1      32.390  18.021   8.018  0.00  0.00    -0.348 OA
HETATM   12  C   UNK N   1      33.556  17.234   7.870  0.00  0.00     0.209 C 
HETATM   13  S   UNK N   1      33.234  15.494   8.301  0.00  0.00    -0.131 SA
HETATM   14  C   UNK N   1      31.622  15.811   7.624  0.00  0.00     0.131 C 
BRANCH  12  15
HETATM   15  C   UNK N   1      34.650  17.786   8.767  0.00  0.00     0.207 C 
BRANCH  15  16
HETATM   16  O   UNK N   1      35.012  19.068   8.350  0.00  0.00    -0.398 OA
HETATM   17  H   UNK N   1      35.461  19.289   7.520  0.00  0.00     0.209 HD
ENDBRANCH  15  16
ENDBRANCH  12  15
ENDBRANCH   3  10
BRANCH   9  18
HETATM   18  N   UNK N   1      26.539  19.372   6.105  0.00  0.00    -0.383 N 
HETATM   19  H   UNK N   1      26.395  20.345   6.154  0.00  0.00     0.157 HD
HETATM   20  H   UNK N   1      25.854  18.796   5.694  0.00  0.00     0.157 HD
ENDBRANCH   9  18
TORSDOF 4
ENDMDL
MODEL 5
REMARK VINA RESULT:      -5.2      2.375      2.918
REMARK  4 active torsions:
REMARK  status: ('A' for Active; 'I' for Inactive)
REMARK    1  A    between atoms: O_4  and  C_13 
REMARK    2  A    between atoms: C_10  and  N_6 
REMARK    3  A    between atoms: N_9  and  C_17 
REMARK    4  A    between atoms: C_12  and  C_13 
ROOT
HETATM    1  F   UNK N   1      35.279  12.276  10.611  0.00  0.00    -0.201 F 
HETATM    2  O   UNK N   1      35.847  17.576  10.490  0.00  0.00    -0.246 OA
HETATM    3  N   UNK N   1      34.765  15.756   9.688  0.00  0.00    -0.279 N 
HETATM    4  N   UNK N   1      36.513  15.607  11.310  0.00  0.00    -0.292 N 
ATOM      5  HN  UNK N   1      37.214  16.066  11.890  1.00  0.00     0.172 HD
HETATM    6  C   UNK N   1      34.629  14.395   9.728  0.00  0.00     0.144 A 
HETATM    7  C   UNK N   1      35.714  16.361  10.494  0.00  0.00     0.330 A 
HETATM    8  C   UNK N   1      35.432  13.624  10.565  0.00  0.00     0.175 A 
HETATM    9  C   UNK N   1      36.386  14.257  11.359  0.00  0.00     0.143 A 
ENDROOT
BRANCH   3  10
HETATM   10  C   UNK N   1      33.876  16.564   8.831  0.00  0.00     0.243 C 
HETATM   11  O   UNK N   1      32.514  16.245   9.017  0.00  0.00    -0.348 OA
HETATM   12  C   UNK N   1      31.838  16.441   7.790  0.00  0.00     0.209 C 
HETATM   13  S   UNK N   1      32.897  17.305   6.586  0.00  0.00    -0.131 SA
HETATM   14  C   UNK N   1      34.214  16.406   7.371  0.00  0.00     0.131 C 
BRANCH  12  15
HETATM   15  C   UNK N   1      30.579  17.255   8.035  0.00  0.00     0.207 C 
BRANCH  15  16
HETATM   16  O   UNK N   1      30.586  17.772   9.332  0.00  0.00    -0.398 OA
HETATM   17  H   UNK N   1      30.202  17.347  10.114  0.00  0.00     0.209 HD
ENDBRANCH  15  16
ENDBRANCH  12  15
ENDBRANCH   3  10
BRANCH   9  18
HETATM   18  N   UNK N   1      37.214  13.507  12.217  0.00  0.00    -0.383 N 
HETATM   19  H   UNK N   1      37.298  12.533  12.098  0.00  0.00     0.157 HD
HETATM   20  H   UNK N   1      37.710  13.957  12.939  0.00  0.00     0.157 HD
ENDBRANCH   9  18
TORSDOF 4
ENDMDL
MODEL 6
REMARK VINA RESULT:      -5.2      3.498      4.686
REMARK  4 active torsions:
REMARK  status: ('A' for Active; 'I' for Inactive)
REMARK    1  A    between atoms: O_4  and  C_13 
REMARK    2  A    between atoms: C_10  and  N_6 
REMARK    3  A    between atoms: N_9  and  C_17 
REMARK    4  A    between atoms: C_12  and  C_13 
ROOT
HETATM    1  F   UNK N   1      33.832  14.245  10.349  0.00  0.00    -0.201 F 
HETATM    2  O   UNK N   1      34.881  19.043   8.277  0.00  0.00    -0.246 OA
HETATM    3  N   UNK N   1      33.772  17.080   8.073  0.00  0.00    -0.279 N 
HETATM    4  N   UNK N   1      35.241  17.549   9.899  0.00  0.00    -0.292 N 
ATOM      5  HN  UNK N   1      35.886  18.184  10.365  1.00  0.00     0.172 HD
HETATM    6  C   UNK N   1      33.511  15.851   8.614  0.00  0.00     0.144 A 
HETATM    7  C   UNK N   1      34.641  17.934   8.730  0.00  0.00     0.330 A 
HETATM    8  C   UNK N   1      34.110  15.458   9.810  0.00  0.00     0.175 A 
HETATM    9  C   UNK N   1      34.989  16.333  10.445  0.00  0.00     0.143 A 
ENDROOT
BRANCH   3  10
HETATM   10  C   UNK N   1      33.095  17.500   6.832  0.00  0.00     0.243 C 
HETATM   11  O   UNK N   1      31.743  17.096   6.792  0.00  0.00    -0.348 OA
HETATM   12  C   UNK N   1      31.389  16.852   5.444  0.00  0.00     0.209 C 
HETATM   13  S   UNK N   1      32.681  17.447   4.307  0.00  0.00    -0.131 SA
HETATM   14  C   UNK N   1      33.794  16.968   5.607  0.00  0.00     0.131 C 
BRANCH  12  15
HETATM   15  C   UNK N   1      30.078  17.553   5.136  0.00  0.00     0.207 C 
BRANCH  15  16
HETATM   16  O   UNK N   1      29.355  17.759   6.312  0.00  0.00    -0.398 OA
HETATM   17  H   UNK N   1      29.605  18.353   7.036  0.00  0.00     0.209 HD
ENDBRANCH  15  16
ENDBRANCH  12  15
ENDBRANCH   3  10
BRANCH   9  18
HETATM   18  N   UNK N   1      35.611  15.968  11.656  0.00  0.00    -0.383 N 
HETATM   19  H   UNK N   1      35.072  15.845  12.471  0.00  0.00     0.157 HD
HETATM   20  H   UNK N   1      36.586  15.837  11.687  0.00  0.00     0.157 HD
ENDBRANCH   9  18
TORSDOF 4
ENDMDL
MODEL 7
REMARK VINA RESULT:      -5.1      3.880      4.998
REMARK  4 active torsions:
REMARK  status: ('A' for Active; 'I' for Inactive)
REMARK    1  A    between atoms: O_4  and  C_13 
REMARK    2  A    between atoms: C_10  and  N_6 
REMARK    3  A    between atoms: N_9  and  C_17 
REMARK    4  A    between atoms: C_12  and  C_13 
ROOT
HETATM    1  F   UNK N   1      33.743  13.564   9.900  0.00  0.00    -0.201 F 
HETATM    2  O   UNK N   1      33.899  18.677   8.398  0.00  0.00    -0.246 OA
HETATM    3  N   UNK N   1      32.720  16.745   8.465  0.00  0.00    -0.279 N 
HETATM    4  N   UNK N   1      34.932  16.938   9.347  0.00  0.00    -0.292 N 
ATOM      5  HN  UNK N   1      35.762  17.504   9.520  1.00  0.00     0.172 HD
HETATM    6  C   UNK N   1      32.692  15.434   8.855  0.00  0.00     0.144 A 
HETATM    7  C   UNK N   1      33.852  17.500   8.722  0.00  0.00     0.330 A 
HETATM    8  C   UNK N   1      33.785  14.861   9.502  0.00  0.00     0.175 A 
HETATM    9  C   UNK N   1      34.916  15.640   9.739  0.00  0.00     0.143 A 
ENDROOT
BRANCH   3  10
HETATM   10  C   UNK N   1      31.538  17.351   7.823  0.00  0.00     0.243 C 
HETATM   11  O   UNK N   1      30.462  17.516   8.722  0.00  0.00    -0.348 OA
HETATM   12  C   UNK N   1      29.253  17.381   8.000  0.00  0.00     0.209 C 
HETATM   13  S   UNK N   1      29.556  17.369   6.204  0.00  0.00    -0.131 SA
HETATM   14  C   UNK N   1      31.064  16.539   6.645  0.00  0.00     0.131 C 
BRANCH  12  15
HETATM   15  C   UNK N   1      28.328  18.532   8.352  0.00  0.00     0.207 C 
BRANCH  15  16
HETATM   16  O   UNK N   1      27.493  18.171   9.412  0.00  0.00    -0.398 OA
HETATM   17  H   UNK N   1      27.356  17.271   9.745  0.00  0.00     0.209 HD
ENDBRANCH  15  16
ENDBRANCH  12  15
ENDBRANCH   3  10
BRANCH   9  18
HETATM   18  N   UNK N   1      36.038  15.092  10.391  0.00  0.00    -0.383 N 
HETATM   19  H   UNK N   1      36.211  15.300  11.338  0.00  0.00     0.157 HD
HETATM   20  H   UNK N   1      36.652  14.499   9.899  0.00  0.00     0.157 HD
ENDBRANCH   9  18
TORSDOF 4
ENDMDL
MODEL 8
REMARK VINA RESULT:      -5.1     16.513     18.165
REMARK  4 active torsions:
REMARK  status: ('A' for Active; 'I' for Inactive)
REMARK    1  A    between atoms: O_4  and  C_13 
REMARK    2  A    between atoms: C_10  and  N_6 
REMARK    3  A    between atoms: N_9  and  C_17 
REMARK    4  A    between atoms: C_12  and  C_13 
ROOT
HETATM    1  F   UNK N   1      30.751  20.199  -6.297  0.00  0.00    -0.201 F 
HETATM    2  O   UNK N   1      30.740  23.023  -1.776  0.00  0.00    -0.246 OA
HETATM    3  N   UNK N   1      29.953  22.802  -3.887  0.00  0.00    -0.279 N 
HETATM    4  N   UNK N   1      31.532  21.284  -2.933  0.00  0.00    -0.292 N 
ATOM      5  HN  UNK N   1      32.115  21.003  -2.146  1.00  0.00     0.172 HD
HETATM    6  C   UNK N   1      29.964  22.069  -5.042  0.00  0.00     0.144 A 
HETATM    7  C   UNK N   1      30.742  22.396  -2.824  0.00  0.00     0.330 A 
HETATM    8  C   UNK N   1      30.758  20.929  -5.154  0.00  0.00     0.175 A 
HETATM    9  C   UNK N   1      31.551  20.549  -4.073  0.00  0.00     0.143 A 
ENDROOT
BRANCH   3  10
HETATM   10  C   UNK N   1      29.072  23.980  -3.767  0.00  0.00     0.243 C 
HETATM   11  O   UNK N   1      27.849  23.809  -4.450  0.00  0.00    -0.348 OA
HETATM   12  C   UNK N   1      27.419  25.073  -4.918  0.00  0.00     0.209 C 
HETATM   13  S   UNK N   1      28.418  26.416  -4.200  0.00  0.00    -0.131 SA
HETATM   14  C   UNK N   1      29.740  25.231  -4.278  0.00  0.00     0.131 C 
BRANCH  12  15
HETATM   15  C   UNK N   1      25.959  25.274  -4.551  0.00  0.00     0.207 C 
BRANCH  15  16
HETATM   16  O   UNK N   1      25.138  24.641  -5.486  0.00  0.00    -0.398 OA
HETATM   17  H   UNK N   1      24.191  24.807  -5.613  0.00  0.00     0.209 HD
ENDBRANCH  15  16
ENDBRANCH  12  15
ENDBRANCH   3  10
BRANCH   9  18
HETATM   18  N   UNK N   1      32.364  19.401  -4.152  0.00  0.00    -0.383 N 
HETATM   19  H   UNK N   1      32.997  19.294  -4.899  0.00  0.00     0.157 HD
HETATM   20  H   UNK N   1      32.300  18.704  -3.460  0.00  0.00     0.157 HD
ENDBRANCH   9  18
TORSDOF 4
ENDMDL
MODEL 9
REMARK VINA RESULT:      -5.0      3.173      5.519
REMARK  4 active torsions:
REMARK  status: ('A' for Active; 'I' for Inactive)
REMARK    1  A    between atoms: O_4  and  C_13 
REMARK    2  A    between atoms: C_10  and  N_6 
REMARK    3  A    between atoms: N_9  and  C_17 
REMARK    4  A    between atoms: C_12  and  C_13 
ROOT
HETATM    1  F   UNK N   1      31.852  14.910   8.069  0.00  0.00    -0.201 F 
HETATM    2  O   UNK N   1      35.881  17.332  10.583  0.00  0.00    -0.246 OA
HETATM    3  N   UNK N   1      34.752  15.407  10.206  0.00  0.00    -0.279 N 
HETATM    4  N   UNK N   1      34.119  17.488   9.218  0.00  0.00    -0.292 N 
ATOM      5  HN  UNK N   1      34.274  18.489   9.104  1.00  0.00     0.172 HD
HETATM    6  C   UNK N   1      33.714  14.797   9.557  0.00  0.00     0.144 A 
HETATM    7  C   UNK N   1      34.954  16.764  10.027  0.00  0.00     0.330 A 
HETATM    8  C   UNK N   1      32.868  15.527   8.724  0.00  0.00     0.175 A 
HETATM    9  C   UNK N   1      33.088  16.894   8.568  0.00  0.00     0.143 A 
ENDROOT
BRANCH   3  10
HETATM   10  C   UNK N   1      35.667  14.612  11.048  0.00  0.00     0.243 C 
HETATM   11  O   UNK N   1      36.507  13.773  10.286  0.00  0.00    -0.348 OA
HETATM   12  C   UNK N   1      36.780  12.609  11.042  0.00  0.00     0.209 C 
HETATM   13  S   UNK N   1      36.219  12.796  12.764  0.00  0.00    -0.131 SA
HETATM   14  C   UNK N   1      34.916  13.767  12.045  0.00  0.00     0.131 C 
BRANCH  12  15
HETATM   15  C   UNK N   1      38.274  12.336  11.021  0.00  0.00     0.207 C 
BRANCH  15  16
HETATM   16  O   UNK N   1      38.968  13.492  10.662  0.00  0.00    -0.398 OA
HETATM   17  H   UNK N   1      39.795  13.524  10.156  0.00  0.00     0.209 HD
ENDBRANCH  15  16
ENDBRANCH  12  15
ENDBRANCH   3  10
BRANCH   9  18
HETATM   18  N   UNK N   1      32.252  17.661   7.733  0.00  0.00    -0.383 N 
HETATM   19  H   UNK N   1      31.644  17.217   7.098  0.00  0.00     0.157 HD
HETATM   20  H   UNK N   1      32.275  18.644   7.784  0.00  0.00     0.157 HD
ENDBRANCH   9  18
TORSDOF 4
ENDMDL
