MODEL 1
REMARK VINA RESULT:      -7.9      0.000      0.000
REMARK  11 active torsions:
REMARK  status: ('A' for Active; 'I' for Inactive)
REMARK    1  A    between atoms: O_2  and  C_16 
REMARK    2  A    between atoms: O_4  and  C_24 
REMARK    3  A    between atoms: O_4  and  C_28 
REMARK       I    between atoms: N_6  and  C_14 
REMARK    4  A    between atoms: C_13  and  N_7 
REMARK    5  A    between atoms: C_15  and  N_7 
REMARK    6  A    between atoms: C_8  and  C_16 
REMARK    7  A    between atoms: C_13  and  C_14 
REMARK    8  A    between atoms: C_15  and  C_17 
REMARK    9  A    between atoms: C_15  and  C_24 
REMARK   10  A    between atoms: C_17  and  C_21 
REMARK   11  A    between atoms: C_21  and  C_25 
ROOT
HETATM    1  C   UNK N   1      21.367  16.671   4.145  0.00  0.00     0.166 C 
HETATM    2  C   UNK N   1      21.138  15.731   2.974  0.00  0.00     0.042 C 
ENDROOT
BRANCH   1   3
HETATM    3  N   UNK N   1      20.291  16.557   5.122  0.00  0.00    -0.397 N 
HETATM    4  H   UNK N   1      19.308  16.615   4.854  0.00  0.00     0.154 HD
BRANCH   3   5
HETATM    5  C   UNK N   1      20.707  16.350   6.524  0.00  0.00     0.178 C 
BRANCH   5   6
HETATM    6  C   UNK N   1      21.993  15.529   6.512  0.00  0.00     0.039 C 
BRANCH   6   7
HETATM    7  C   UNK N   1      21.670  14.056   6.743  0.00  0.00     0.041 C 
BRANCH   7   8
HETATM    8  C   UNK N   1      21.976  13.617   8.133  0.00  0.00    -0.058 A 
HETATM    9  C   UNK N   1      20.946  13.369   9.050  0.00  0.00     0.007 A 
HETATM   10  C   UNK N   1      21.250  12.920  10.338  0.00  0.00     0.001 A 
HETATM   11  C   UNK N   1      22.581  12.710  10.709  0.00  0.00     0.000 A 
HETATM   12  C   UNK N   1      23.610  12.953   9.792  0.00  0.00     0.001 A 
HETATM   13  C   UNK N   1      23.307  13.405   8.505  0.00  0.00     0.007 A 
ENDBRANCH   7   8
ENDBRANCH   6   7
ENDBRANCH   5   6
BRANCH   5  14
HETATM   14  C   UNK N   1      20.686  17.579   7.460  0.00  0.00     0.281 C 
HETATM   15  O   UNK N   1      20.979  18.669   6.995  0.00  0.00    -0.263 OA
BRANCH  14  16
HETATM   16  O   UNK N   1      20.280  17.541   8.762  0.00  0.00    -0.320 OA
BRANCH  16  17
HETATM   17  C   UNK N   1      19.079  18.016   9.237  0.00  0.00     0.174 C 
HETATM   18  C   UNK N   1      17.993  16.975   9.064  0.00  0.00     0.034 C 
ENDBRANCH  16  17
ENDBRANCH  14  16
ENDBRANCH   5  14
ENDBRANCH   3   5
ENDBRANCH   1   3
BRANCH   1  19
HETATM   19  C   UNK N   1      21.518  18.113   3.729  0.00  0.00     0.242 C 
HETATM   20  O   UNK N   1      20.520  18.673   3.310  0.00  0.00    -0.271 OA
HETATM   21  N   UNK N   1      22.734  18.772   3.800  0.00  0.00    -0.331 N 
HETATM   22  C   UNK N   1      22.935  20.165   3.336  0.00  0.00     0.189 C 
HETATM   23  C   UNK N   1      23.855  18.078   4.436  0.00  0.00     0.166 C 
HETATM   24  C   UNK N   1      24.251  20.286   2.578  0.00  0.00     0.075 C 
HETATM   25  C   UNK N   1      25.371  19.843   3.450  0.00  0.00    -0.048 A 
HETATM   26  C   UNK N   1      25.184  18.772   4.334  0.00  0.00    -0.034 A 
HETATM   27  C   UNK N   1      26.613  20.480   3.372  0.00  0.00     0.008 A 
HETATM   28  C   UNK N   1      26.247  18.338   5.133  0.00  0.00     0.009 A 
HETATM   29  C   UNK N   1      27.489  18.975   5.055  0.00  0.00     0.001 A 
HETATM   30  C   UNK N   1      27.672  20.046   4.176  0.00  0.00     0.001 A 
BRANCH  22  31
HETATM   31  C   UNK N   1      21.857  20.747   2.460  0.00  0.00     0.164 C 
HETATM   32  O   UNK N   1      21.915  20.627   1.244  0.00  0.00    -0.648 OA
BRANCH  31  33
HETATM   33  O   UNK N   1      20.832  21.420   3.015  0.00  0.00    -0.775 OA
HETATM   34  H   UNK N   1      20.558  21.559   3.900  0.00  0.00     0.167 HD
ENDBRANCH  31  33
ENDBRANCH  22  31
ENDBRANCH   1  19
TORSDOF 11
ENDMDL
MODEL 2
REMARK VINA RESULT:      -7.7     11.111     14.538
REMARK  11 active torsions:
REMARK  status: ('A' for Active; 'I' for Inactive)
REMARK    1  A    between atoms: O_2  and  C_16 
REMARK    2  A    between atoms: O_4  and  C_24 
REMARK    3  A    between atoms: O_4  and  C_28 
REMARK       I    between atoms: N_6  and  C_14 
REMARK    4  A    between atoms: C_13  and  N_7 
REMARK    5  A    between atoms: C_15  and  N_7 
REMARK    6  A    between atoms: C_8  and  C_16 
REMARK    7  A    between atoms: C_13  and  C_14 
REMARK    8  A    between atoms: C_15  and  C_17 
REMARK    9  A    between atoms: C_15  and  C_24 
REMARK   10  A    between atoms: C_17  and  C_21 
REMARK   11  A    between atoms: C_21  and  C_25 
ROOT
HETATM    1  C   UNK N   1      33.855  15.070   9.917  0.00  0.00     0.166 C 
HETATM    2  C   UNK N   1      33.182  14.367   8.751  0.00  0.00     0.042 C 
ENDROOT
BRANCH   1   3
HETATM    3  N   UNK N   1      33.666  16.514   9.833  0.00  0.00    -0.397 N 
HETATM    4  H   UNK N   1      33.852  17.131  10.623  0.00  0.00     0.154 HD
BRANCH   3   5
HETATM    5  C   UNK N   1      33.187  17.031   8.534  0.00  0.00     0.178 C 
BRANCH   5   6
HETATM    6  C   UNK N   1      31.768  17.553   8.734  0.00  0.00     0.039 C 
BRANCH   6   7
HETATM    7  C   UNK N   1      30.794  16.752   7.876  0.00  0.00     0.041 C 
BRANCH   7   8
HETATM    8  C   UNK N   1      29.730  17.603   7.276  0.00  0.00    -0.058 A 
HETATM    9  C   UNK N   1      28.988  18.490   8.067  0.00  0.00     0.007 A 
HETATM   10  C   UNK N   1      28.021  19.310   7.480  0.00  0.00     0.001 A 
HETATM   11  C   UNK N   1      27.799  19.252   6.101  0.00  0.00     0.000 A 
HETATM   12  C   UNK N   1      28.543  18.370   5.309  0.00  0.00     0.001 A 
HETATM   13  C   UNK N   1      29.508  17.548   5.896  0.00  0.00     0.007 A 
ENDBRANCH   7   8
ENDBRANCH   6   7
ENDBRANCH   5   6
BRANCH   5  14
HETATM   14  C   UNK N   1      34.147  17.939   7.733  0.00  0.00     0.281 C 
HETATM   15  O   UNK N   1      34.861  18.715   8.349  0.00  0.00    -0.263 OA
BRANCH  14  16
HETATM   16  O   UNK N   1      34.309  17.874   6.381  0.00  0.00    -0.320 OA
BRANCH  16  17
HETATM   17  C   UNK N   1      33.794  16.895   5.562  0.00  0.00     0.174 C 
HETATM   18  C   UNK N   1      32.919  17.510   4.490  0.00  0.00     0.034 C 
ENDBRANCH  16  17
ENDBRANCH  14  16
ENDBRANCH   5  14
ENDBRANCH   3   5
ENDBRANCH   1   3
BRANCH   1  19
HETATM   19  C   UNK N   1      35.327  14.761  10.029  0.00  0.00     0.242 C 
HETATM   20  O   UNK N   1      36.030  15.083   9.087  0.00  0.00    -0.271 OA
HETATM   21  N   UNK N   1      35.859  14.126  11.138  0.00  0.00    -0.331 N 
HETATM   22  C   UNK N   1      37.287  13.744  11.252  0.00  0.00     0.189 C 
HETATM   23  C   UNK N   1      34.978  13.890  12.283  0.00  0.00     0.166 C 
HETATM   24  C   UNK N   1      37.416  12.353  11.859  0.00  0.00     0.075 C 
HETATM   25  C   UNK N   1      36.744  12.323  13.185  0.00  0.00    -0.048 A 
HETATM   26  C   UNK N   1      35.564  13.053  13.385  0.00  0.00    -0.034 A 
HETATM   27  C   UNK N   1      37.277  11.553  14.223  0.00  0.00     0.008 A 
HETATM   28  C   UNK N   1      34.918  13.001  14.624  0.00  0.00     0.009 A 
HETATM   29  C   UNK N   1      35.451  12.230  15.662  0.00  0.00     0.001 A 
HETATM   30  C   UNK N   1      36.631  11.508  15.462  0.00  0.00     0.001 A 
BRANCH  22  31
HETATM   31  C   UNK N   1      38.092  13.756   9.979  0.00  0.00     0.164 C 
HETATM   32  O   UNK N   1      38.131  12.766   9.262  0.00  0.00    -0.648 OA
BRANCH  31  33
HETATM   33  O   UNK N   1      38.790  14.854   9.637  0.00  0.00    -0.775 OA
HETATM   34  H   UNK N   1      38.721  15.759   9.870  0.00  0.00     0.167 HD
ENDBRANCH  31  33
ENDBRANCH  22  31
ENDBRANCH   1  19
TORSDOF 11
ENDMDL
MODEL 3
REMARK VINA RESULT:      -7.2     13.427     15.610
REMARK  11 active torsions:
REMARK  status: ('A' for Active; 'I' for Inactive)
REMARK    1  A    between atoms: O_2  and  C_16 
REMARK    2  A    between atoms: O_4  and  C_24 
REMARK    3  A    between atoms: O_4  and  C_28 
REMARK       I    between atoms: N_6  and  C_14 
REMARK    4  A    between atoms: C_13  and  N_7 
REMARK    5  A    between atoms: C_15  and  N_7 
REMARK    6  A    between atoms: C_8  and  C_16 
REMARK    7  A    between atoms: C_13  and  C_14 
REMARK    8  A    between atoms: C_15  and  C_17 
REMARK    9  A    between atoms: C_15  and  C_24 
REMARK   10  A    between atoms: C_17  and  C_21 
REMARK   11  A    between atoms: C_21  and  C_25 
ROOT
HETATM    1  C   UNK N   1      27.021  24.900  -4.988  0.00  0.00     0.166 C 
HETATM    2  C   UNK N   1      26.339  24.305  -3.768  0.00  0.00     0.042 C 
ENDROOT
BRANCH   1   3
HETATM    3  N   UNK N   1      26.861  26.349  -5.019  0.00  0.00    -0.397 N 
HETATM    4  H   UNK N   1      26.320  26.818  -5.746  0.00  0.00     0.154 HD
BRANCH   3   5
HETATM    5  C   UNK N   1      27.527  27.099  -3.934  0.00  0.00     0.178 C 
BRANCH   5   6
HETATM    6  C   UNK N   1      28.877  27.580  -4.461  0.00  0.00     0.039 C 
BRANCH   6   7
HETATM    7  C   UNK N   1      29.972  27.263  -3.448  0.00  0.00     0.041 C 
BRANCH   7   8
HETATM    8  C   UNK N   1      30.759  26.055  -3.818  0.00  0.00    -0.058 A 
HETATM    9  C   UNK N   1      30.355  24.779  -3.399  0.00  0.00     0.007 A 
HETATM   10  C   UNK N   1      31.084  23.653  -3.789  0.00  0.00     0.001 A 
HETATM   11  C   UNK N   1      32.210  23.796  -4.604  0.00  0.00     0.000 A 
HETATM   12  C   UNK N   1      32.611  25.069  -5.027  0.00  0.00     0.001 A 
HETATM   13  C   UNK N   1      31.884  26.196  -4.635  0.00  0.00     0.007 A 
ENDBRANCH   7   8
ENDBRANCH   6   7
ENDBRANCH   5   6
BRANCH   5  14
HETATM   14  C   UNK N   1      26.681  28.136  -3.164  0.00  0.00     0.281 C 
HETATM   15  O   UNK N   1      25.491  27.914  -3.007  0.00  0.00    -0.263 OA
BRANCH  14  16
HETATM   16  O   UNK N   1      27.195  29.253  -2.573  0.00  0.00    -0.320 OA
BRANCH  16  17
HETATM   17  C   UNK N   1      26.891  30.550  -2.920  0.00  0.00     0.174 C 
HETATM   18  C   UNK N   1      27.072  30.754  -4.410  0.00  0.00     0.034 C 
ENDBRANCH  16  17
ENDBRANCH  14  16
ENDBRANCH   5  14
ENDBRANCH   3   5
ENDBRANCH   1   3
BRANCH   1  19
HETATM   19  C   UNK N   1      26.535  24.311  -6.288  0.00  0.00     0.242 C 
HETATM   20  O   UNK N   1      25.536  24.809  -6.778  0.00  0.00    -0.271 OA
HETATM   21  N   UNK N   1      27.176  23.244  -6.894  0.00  0.00    -0.331 N 
HETATM   22  C   UNK N   1      26.687  22.596  -8.134  0.00  0.00     0.189 C 
HETATM   23  C   UNK N   1      28.442  22.786  -6.318  0.00  0.00     0.166 C 
HETATM   24  C   UNK N   1      26.807  21.081  -8.023  0.00  0.00     0.075 C 
HETATM   25  C   UNK N   1      28.220  20.712  -7.745  0.00  0.00    -0.048 A 
HETATM   26  C   UNK N   1      29.002  21.526  -6.914  0.00  0.00    -0.034 A 
HETATM   27  C   UNK N   1      28.760  19.545  -8.294  0.00  0.00     0.008 A 
HETATM   28  C   UNK N   1      30.322  21.162  -6.631  0.00  0.00     0.009 A 
HETATM   29  C   UNK N   1      30.862  19.995  -7.180  0.00  0.00     0.001 A 
HETATM   30  C   UNK N   1      30.082  19.188  -8.013  0.00  0.00     0.001 A 
BRANCH  22  31
HETATM   31  C   UNK N   1      25.271  22.906  -8.544  0.00  0.00     0.164 C 
HETATM   32  O   UNK N   1      24.342  22.233  -8.119  0.00  0.00    -0.648 OA
BRANCH  31  33
HETATM   33  O   UNK N   1      25.026  23.916  -9.398  0.00  0.00    -0.775 OA
HETATM   34  H   UNK N   1      24.457  24.661  -9.368  0.00  0.00     0.167 HD
ENDBRANCH  31  33
ENDBRANCH  22  31
ENDBRANCH   1  19
TORSDOF 11
ENDMDL
MODEL 4
REMARK VINA RESULT:      -7.2     13.430     16.079
REMARK  11 active torsions:
REMARK  status: ('A' for Active; 'I' for Inactive)
REMARK    1  A    between atoms: O_2  and  C_16 
REMARK    2  A    between atoms: O_4  and  C_24 
REMARK    3  A    between atoms: O_4  and  C_28 
REMARK       I    between atoms: N_6  and  C_14 
REMARK    4  A    between atoms: C_13  and  N_7 
REMARK    5  A    between atoms: C_15  and  N_7 
REMARK    6  A    between atoms: C_8  and  C_16 
REMARK    7  A    between atoms: C_13  and  C_14 
REMARK    8  A    between atoms: C_15  and  C_17 
REMARK    9  A    between atoms: C_15  and  C_24 
REMARK   10  A    between atoms: C_17  and  C_21 
REMARK   11  A    between atoms: C_21  and  C_25 
ROOT
HETATM    1  C   UNK N   1      30.596  26.203  -4.974  0.00  0.00     0.166 C 
HETATM    2  C   UNK N   1      31.921  26.932  -4.828  0.00  0.00     0.042 C 
ENDROOT
BRANCH   1   3
HETATM    3  N   UNK N   1      29.479  27.085  -4.654  0.00  0.00    -0.397 N 
HETATM    4  H   UNK N   1      28.989  27.034  -3.761  0.00  0.00     0.154 HD
BRANCH   3   5
HETATM    5  C   UNK N   1      29.100  28.057  -5.700  0.00  0.00     0.178 C 
BRANCH   5   6
HETATM    6  C   UNK N   1      28.519  27.275  -6.874  0.00  0.00     0.039 C 
BRANCH   6   7
HETATM    7  C   UNK N   1      27.003  27.174  -6.731  0.00  0.00     0.041 C 
BRANCH   7   8
HETATM    8  C   UNK N   1      26.532  25.764  -6.651  0.00  0.00    -0.058 A 
HETATM    9  C   UNK N   1      26.122  25.078  -7.803  0.00  0.00     0.007 A 
HETATM   10  C   UNK N   1      25.719  23.743  -7.715  0.00  0.00     0.001 A 
HETATM   11  C   UNK N   1      25.733  23.089  -6.480  0.00  0.00     0.000 A 
HETATM   12  C   UNK N   1      26.147  23.771  -5.331  0.00  0.00     0.001 A 
HETATM   13  C   UNK N   1      26.547  25.107  -5.417  0.00  0.00     0.007 A 
ENDBRANCH   7   8
ENDBRANCH   6   7
ENDBRANCH   5   6
BRANCH   5  14
HETATM   14  C   UNK N   1      28.317  29.311  -5.254  0.00  0.00     0.281 C 
HETATM   15  O   UNK N   1      28.198  30.234  -6.044  0.00  0.00    -0.263 OA
BRANCH  14  16
HETATM   16  O   UNK N   1      27.675  29.425  -4.055  0.00  0.00    -0.320 OA
BRANCH  16  17
HETATM   17  C   UNK N   1      26.311  29.479  -3.883  0.00  0.00     0.174 C 
HETATM   18  C   UNK N   1      25.771  28.115  -3.510  0.00  0.00     0.034 C 
ENDBRANCH  16  17
ENDBRANCH  14  16
ENDBRANCH   5  14
ENDBRANCH   3   5
ENDBRANCH   1   3
BRANCH   1  19
HETATM   19  C   UNK N   1      30.508  24.954  -4.134  0.00  0.00     0.242 C 
HETATM   20  O   UNK N   1      30.752  25.072  -2.945  0.00  0.00    -0.271 OA
HETATM   21  N   UNK N   1      30.185  23.725  -4.681  0.00  0.00    -0.331 N 
HETATM   22  C   UNK N   1      30.157  22.465  -3.900  0.00  0.00     0.189 C 
HETATM   23  C   UNK N   1      29.776  23.684  -6.087  0.00  0.00     0.166 C 
HETATM   24  C   UNK N   1      30.790  21.332  -4.699  0.00  0.00     0.075 C 
HETATM   25  C   UNK N   1      30.076  21.177  -5.993  0.00  0.00    -0.048 A 
HETATM   26  C   UNK N   1      29.600  22.310  -6.668  0.00  0.00    -0.034 A 
HETATM   27  C   UNK N   1      29.899  19.905  -6.547  0.00  0.00     0.008 A 
HETATM   28  C   UNK N   1      28.954  22.164  -7.899  0.00  0.00     0.009 A 
HETATM   29  C   UNK N   1      28.778  20.892  -8.453  0.00  0.00     0.001 A 
HETATM   30  C   UNK N   1      29.248  19.763  -7.777  0.00  0.00     0.001 A 
BRANCH  22  31
HETATM   31  C   UNK N   1      30.829  22.493  -2.552  0.00  0.00     0.164 C 
HETATM   32  O   UNK N   1      31.985  22.114  -2.427  0.00  0.00    -0.648 OA
BRANCH  31  33
HETATM   33  O   UNK N   1      30.147  22.919  -1.472  0.00  0.00    -0.775 OA
HETATM   34  H   UNK N   1      30.381  23.434  -0.725  0.00  0.00     0.167 HD
ENDBRANCH  31  33
ENDBRANCH  22  31
ENDBRANCH   1  19
TORSDOF 11
ENDMDL
MODEL 5
REMARK VINA RESULT:      -7.2     13.663     16.165
REMARK  11 active torsions:
REMARK  status: ('A' for Active; 'I' for Inactive)
REMARK    1  A    between atoms: O_2  and  C_16 
REMARK    2  A    between atoms: O_4  and  C_24 
REMARK    3  A    between atoms: O_4  and  C_28 
REMARK       I    between atoms: N_6  and  C_14 
REMARK    4  A    between atoms: C_13  and  N_7 
REMARK    5  A    between atoms: C_15  and  N_7 
REMARK    6  A    between atoms: C_8  and  C_16 
REMARK    7  A    between atoms: C_13  and  C_14 
REMARK    8  A    between atoms: C_15  and  C_17 
REMARK    9  A    between atoms: C_15  and  C_24 
REMARK   10  A    between atoms: C_17  and  C_21 
REMARK   11  A    between atoms: C_21  and  C_25 
ROOT
HETATM    1  C   UNK N   1      29.094  26.123  -4.764  0.00  0.00     0.166 C 
HETATM    2  C   UNK N   1      29.972  27.337  -4.513  0.00  0.00     0.042 C 
ENDROOT
BRANCH   1   3
HETATM    3  N   UNK N   1      27.708  26.401  -4.406  0.00  0.00    -0.397 N 
HETATM    4  H   UNK N   1      27.074  25.667  -4.091  0.00  0.00     0.154 HD
BRANCH   3   5
HETATM    5  C   UNK N   1      27.276  27.809  -4.527  0.00  0.00     0.178 C 
BRANCH   5   6
HETATM    6  C   UNK N   1      26.717  28.005  -5.933  0.00  0.00     0.039 C 
BRANCH   6   7
HETATM    7  C   UNK N   1      25.842  26.815  -6.315  0.00  0.00     0.041 C 
BRANCH   7   8
HETATM    8  C   UNK N   1      26.299  26.152  -7.567  0.00  0.00    -0.058 A 
HETATM    9  C   UNK N   1      27.424  26.620  -8.259  0.00  0.00     0.007 A 
HETATM   10  C   UNK N   1      27.861  25.961  -9.411  0.00  0.00     0.001 A 
HETATM   11  C   UNK N   1      27.181  24.828  -9.868  0.00  0.00     0.000 A 
HETATM   12  C   UNK N   1      26.061  24.357  -9.175  0.00  0.00     0.001 A 
HETATM   13  C   UNK N   1      25.621  25.017  -8.025  0.00  0.00     0.007 A 
ENDBRANCH   7   8
ENDBRANCH   6   7
ENDBRANCH   5   6
BRANCH   5  14
HETATM   14  C   UNK N   1      26.444  28.399  -3.367  0.00  0.00     0.281 C 
HETATM   15  O   UNK N   1      25.553  27.717  -2.886  0.00  0.00    -0.263 OA
BRANCH  14  16
HETATM   16  O   UNK N   1      26.692  29.608  -2.788  0.00  0.00    -0.320 OA
BRANCH  16  17
HETATM   17  C   UNK N   1      27.937  30.096  -2.462  0.00  0.00     0.174 C 
HETATM   18  C   UNK N   1      28.238  29.840  -1.000  0.00  0.00     0.034 C 
ENDBRANCH  16  17
ENDBRANCH  14  16
ENDBRANCH   5  14
ENDBRANCH   3   5
ENDBRANCH   1   3
BRANCH   1  19
HETATM   19  C   UNK N   1      29.564  24.888  -4.038  0.00  0.00     0.242 C 
HETATM   20  O   UNK N   1      30.028  25.049  -2.922  0.00  0.00    -0.271 OA
HETATM   21  N   UNK N   1      29.494  23.630  -4.611  0.00  0.00    -0.331 N 
HETATM   22  C   UNK N   1      30.009  22.404  -3.956  0.00  0.00     0.189 C 
HETATM   23  C   UNK N   1      28.805  23.499  -5.897  0.00  0.00     0.166 C 
HETATM   24  C   UNK N   1      30.743  21.532  -4.967  0.00  0.00     0.075 C 
HETATM   25  C   UNK N   1      29.829  21.196  -6.090  0.00  0.00    -0.048 A 
HETATM   26  C   UNK N   1      28.906  22.147  -6.547  0.00  0.00    -0.034 A 
HETATM   27  C   UNK N   1      29.906  19.942  -6.704  0.00  0.00     0.008 A 
HETATM   28  C   UNK N   1      28.068  21.840  -7.622  0.00  0.00     0.009 A 
HETATM   29  C   UNK N   1      28.144  20.586  -8.236  0.00  0.00     0.001 A 
HETATM   30  C   UNK N   1      29.061  19.637  -7.776  0.00  0.00     0.001 A 
BRANCH  22  31
HETATM   31  C   UNK N   1      30.932  22.605  -2.782  0.00  0.00     0.164 C 
HETATM   32  O   UNK N   1      32.145  22.564  -2.934  0.00  0.00    -0.648 OA
BRANCH  31  33
HETATM   33  O   UNK N   1      30.421  22.810  -1.555  0.00  0.00    -0.775 OA
HETATM   34  H   UNK N   1      29.910  23.499  -1.177  0.00  0.00     0.167 HD
ENDBRANCH  31  33
ENDBRANCH  22  31
ENDBRANCH   1  19
TORSDOF 11
ENDMDL
MODEL 6
REMARK VINA RESULT:      -7.2      4.424      7.486
REMARK  11 active torsions:
REMARK  status: ('A' for Active; 'I' for Inactive)
REMARK    1  A    between atoms: O_2  and  C_16 
REMARK    2  A    between atoms: O_4  and  C_24 
REMARK    3  A    between atoms: O_4  and  C_28 
REMARK       I    between atoms: N_6  and  C_14 
REMARK    4  A    between atoms: C_13  and  N_7 
REMARK    5  A    between atoms: C_15  and  N_7 
REMARK    6  A    between atoms: C_8  and  C_16 
REMARK    7  A    between atoms: C_13  and  C_14 
REMARK    8  A    between atoms: C_15  and  C_17 
REMARK    9  A    between atoms: C_15  and  C_24 
REMARK   10  A    between atoms: C_17  and  C_21 
REMARK   11  A    between atoms: C_21  and  C_25 
ROOT
HETATM    1  C   UNK N   1      27.328  20.343   5.689  0.00  0.00     0.166 C 
HETATM    2  C   UNK N   1      27.342  21.799   6.122  0.00  0.00     0.042 C 
ENDROOT
BRANCH   1   3
HETATM    3  N   UNK N   1      26.011  19.961   5.193  0.00  0.00    -0.397 N 
HETATM    4  H   UNK N   1      25.233  19.760   5.821  0.00  0.00     0.154 HD
BRANCH   3   5
HETATM    5  C   UNK N   1      25.870  19.883   3.724  0.00  0.00     0.178 C 
BRANCH   5   6
HETATM    6  C   UNK N   1      26.458  18.550   3.269  0.00  0.00     0.039 C 
BRANCH   6   7
HETATM    7  C   UNK N   1      25.730  17.400   3.958  0.00  0.00     0.041 C 
BRANCH   7   8
HETATM    8  C   UNK N   1      26.545  16.154   3.999  0.00  0.00    -0.058 A 
HETATM    9  C   UNK N   1      27.061  15.594   2.823  0.00  0.00     0.007 A 
HETATM   10  C   UNK N   1      27.856  14.447   2.885  0.00  0.00     0.001 A 
HETATM   11  C   UNK N   1      28.144  13.862   4.122  0.00  0.00     0.000 A 
HETATM   12  C   UNK N   1      27.634  14.424   5.297  0.00  0.00     0.001 A 
HETATM   13  C   UNK N   1      26.836  15.569   5.236  0.00  0.00     0.007 A 
ENDBRANCH   7   8
ENDBRANCH   6   7
ENDBRANCH   5   6
BRANCH   5  14
HETATM   14  C   UNK N   1      24.502  20.272   3.120  0.00  0.00     0.281 C 
HETATM   15  O   UNK N   1      24.486  21.007   2.145  0.00  0.00    -0.263 OA
BRANCH  14  16
HETATM   16  O   UNK N   1      23.307  19.782   3.557  0.00  0.00    -0.320 OA
BRANCH  16  17
HETATM   17  C   UNK N   1      22.075  20.103   3.035  0.00  0.00     0.174 C 
HETATM   18  C   UNK N   1      20.991  19.272   3.690  0.00  0.00     0.034 C 
ENDBRANCH  16  17
ENDBRANCH  14  16
ENDBRANCH   5  14
ENDBRANCH   3   5
ENDBRANCH   1   3
BRANCH   1  19
HETATM   19  C   UNK N   1      27.749  19.394   6.783  0.00  0.00     0.242 C 
HETATM   20  O   UNK N   1      27.245  19.561   7.880  0.00  0.00    -0.271 OA
HETATM   21  N   UNK N   1      28.676  18.390   6.564  0.00  0.00    -0.331 N 
HETATM   22  C   UNK N   1      29.164  17.483   7.630  0.00  0.00     0.189 C 
HETATM   23  C   UNK N   1      29.136  18.167   5.192  0.00  0.00     0.166 C 
HETATM   24  C   UNK N   1      30.669  17.281   7.505  0.00  0.00     0.075 C 
HETATM   25  C   UNK N   1      30.989  16.745   6.156  0.00  0.00    -0.048 A 
HETATM   26  C   UNK N   1      30.261  17.182   5.041  0.00  0.00    -0.034 A 
HETATM   27  C   UNK N   1      32.030  15.824   5.997  0.00  0.00     0.008 A 
HETATM   28  C   UNK N   1      30.582  16.698   3.770  0.00  0.00     0.009 A 
HETATM   29  C   UNK N   1      31.622  15.777   3.611  0.00  0.00     0.001 A 
HETATM   30  C   UNK N   1      32.345  15.339   4.724  0.00  0.00     0.001 A 
BRANCH  22  31
HETATM   31  C   UNK N   1      28.883  17.900   9.050  0.00  0.00     0.164 C 
HETATM   32  O   UNK N   1      29.682  18.595   9.661  0.00  0.00    -0.648 OA
BRANCH  31  33
HETATM   33  O   UNK N   1      27.756  17.488   9.659  0.00  0.00    -0.775 OA
HETATM   34  H   UNK N   1      26.855  17.731   9.578  0.00  0.00     0.167 HD
ENDBRANCH  31  33
ENDBRANCH  22  31
ENDBRANCH   1  19
TORSDOF 11
ENDMDL
MODEL 7
REMARK VINA RESULT:      -7.1      2.183      4.012
REMARK  11 active torsions:
REMARK  status: ('A' for Active; 'I' for Inactive)
REMARK    1  A    between atoms: O_2  and  C_16 
REMARK    2  A    between atoms: O_4  and  C_24 
REMARK    3  A    between atoms: O_4  and  C_28 
REMARK       I    between atoms: N_6  and  C_14 
REMARK    4  A    between atoms: C_13  and  N_7 
REMARK    5  A    between atoms: C_15  and  N_7 
REMARK    6  A    between atoms: C_8  and  C_16 
REMARK    7  A    between atoms: C_13  and  C_14 
REMARK    8  A    between atoms: C_15  and  C_17 
REMARK    9  A    between atoms: C_15  and  C_24 
REMARK   10  A    between atoms: C_17  and  C_21 
REMARK   11  A    between atoms: C_21  and  C_25 
ROOT
HETATM    1  C   UNK N   1      21.361  16.265   3.361  0.00  0.00     0.166 C 
HETATM    2  C   UNK N   1      20.535  15.649   2.244  0.00  0.00     0.042 C 
ENDROOT
BRANCH   1   3
HETATM    3  N   UNK N   1      20.854  15.859   4.667  0.00  0.00    -0.397 N 
HETATM    4  H   UNK N   1      20.266  16.471   5.233  0.00  0.00     0.154 HD
BRANCH   3   5
HETATM    5  C   UNK N   1      21.241  14.507   5.122  0.00  0.00     0.178 C 
BRANCH   5   6
HETATM    6  C   UNK N   1      22.763  14.468   5.222  0.00  0.00     0.039 C 
BRANCH   6   7
HETATM    7  C   UNK N   1      23.297  13.221   4.524  0.00  0.00     0.041 C 
BRANCH   7   8
HETATM    8  C   UNK N   1      23.405  13.396   3.050  0.00  0.00    -0.058 A 
HETATM    9  C   UNK N   1      24.325  14.299   2.500  0.00  0.00     0.007 A 
HETATM   10  C   UNK N   1      24.441  14.422   1.113  0.00  0.00     0.001 A 
HETATM   11  C   UNK N   1      23.645  13.637   0.273  0.00  0.00     0.000 A 
HETATM   12  C   UNK N   1      22.729  12.732   0.821  0.00  0.00     0.001 A 
HETATM   13  C   UNK N   1      22.611  12.611   2.208  0.00  0.00     0.007 A 
ENDBRANCH   7   8
ENDBRANCH   6   7
ENDBRANCH   5   6
BRANCH   5  14
HETATM   14  C   UNK N   1      20.458  13.906   6.310  0.00  0.00     0.281 C 
HETATM   15  O   UNK N   1      20.346  12.692   6.377  0.00  0.00    -0.263 OA
BRANCH  14  16
HETATM   16  O   UNK N   1      19.948  14.642   7.339  0.00  0.00    -0.320 OA
BRANCH  16  17
HETATM   17  C   UNK N   1      20.689  15.347   8.259  0.00  0.00     0.174 C 
HETATM   18  C   UNK N   1      20.290  16.808   8.251  0.00  0.00     0.034 C 
ENDBRANCH  16  17
ENDBRANCH  14  16
ENDBRANCH   5  14
ENDBRANCH   3   5
ENDBRANCH   1   3
BRANCH   1  19
HETATM   19  C   UNK N   1      21.427  17.770   3.292  0.00  0.00     0.242 C 
HETATM   20  O   UNK N   1      20.391  18.354   3.029  0.00  0.00    -0.271 OA
HETATM   21  N   UNK N   1      22.609  18.460   3.497  0.00  0.00    -0.331 N 
HETATM   22  C   UNK N   1      22.727  19.933   3.368  0.00  0.00     0.189 C 
HETATM   23  C   UNK N   1      23.781  17.701   3.937  0.00  0.00     0.166 C 
HETATM   24  C   UNK N   1      24.014  20.299   2.641  0.00  0.00     0.075 C 
HETATM   25  C   UNK N   1      25.177  19.730   3.369  0.00  0.00    -0.048 A 
HETATM   26  C   UNK N   1      25.070  18.473   3.981  0.00  0.00    -0.034 A 
HETATM   27  C   UNK N   1      26.383  20.435   3.424  0.00  0.00     0.008 A 
HETATM   28  C   UNK N   1      26.174  17.926   4.641  0.00  0.00     0.009 A 
HETATM   29  C   UNK N   1      27.380  18.632   4.696  0.00  0.00     0.001 A 
HETATM   30  C   UNK N   1      27.484  19.887   4.090  0.00  0.00     0.001 A 
BRANCH  22  31
HETATM   31  C   UNK N   1      21.597  20.640   2.667  0.00  0.00     0.164 C 
HETATM   32  O   UNK N   1      21.617  20.790   1.454  0.00  0.00    -0.648 OA
BRANCH  31  33
HETATM   33  O   UNK N   1      20.567  21.130   3.382  0.00  0.00    -0.775 OA
HETATM   34  H   UNK N   1      20.191  20.902   4.210  0.00  0.00     0.167 HD
ENDBRANCH  31  33
ENDBRANCH  22  31
ENDBRANCH   1  19
TORSDOF 11
ENDMDL
MODEL 8
REMARK VINA RESULT:      -6.8     13.701     16.553
REMARK  11 active torsions:
REMARK  status: ('A' for Active; 'I' for Inactive)
REMARK    1  A    between atoms: O_2  and  C_16 
REMARK    2  A    between atoms: O_4  and  C_24 
REMARK    3  A    between atoms: O_4  and  C_28 
REMARK       I    between atoms: N_6  and  C_14 
REMARK    4  A    between atoms: C_13  and  N_7 
REMARK    5  A    between atoms: C_15  and  N_7 
REMARK    6  A    between atoms: C_8  and  C_16 
REMARK    7  A    between atoms: C_13  and  C_14 
REMARK    8  A    between atoms: C_15  and  C_17 
REMARK    9  A    between atoms: C_15  and  C_24 
REMARK   10  A    between atoms: C_17  and  C_21 
REMARK   11  A    between atoms: C_21  and  C_25 
ROOT
HETATM    1  C   UNK N   1      30.361  26.709  -4.699  0.00  0.00     0.166 C 
HETATM    2  C   UNK N   1      31.750  27.157  -5.120  0.00  0.00     0.042 C 
ENDROOT
BRANCH   1   3
HETATM    3  N   UNK N   1      29.723  27.714  -3.857  0.00  0.00    -0.397 N 
HETATM    4  H   UNK N   1      29.141  27.460  -3.059  0.00  0.00     0.154 HD
BRANCH   3   5
HETATM    5  C   UNK N   1      29.970  29.123  -4.229  0.00  0.00     0.178 C 
BRANCH   5   6
HETATM    6  C   UNK N   1      29.042  29.467  -5.390  0.00  0.00     0.039 C 
BRANCH   6   7
HETATM    7  C   UNK N   1      27.588  29.300  -4.960  0.00  0.00     0.041 C 
BRANCH   7   8
HETATM    8  C   UNK N   1      26.889  28.227  -5.720  0.00  0.00    -0.058 A 
HETATM    9  C   UNK N   1      27.422  27.732  -6.918  0.00  0.00     0.007 A 
HETATM   10  C   UNK N   1      26.773  26.698  -7.597  0.00  0.00     0.001 A 
HETATM   11  C   UNK N   1      25.596  26.151  -7.078  0.00  0.00     0.000 A 
HETATM   12  C   UNK N   1      25.066  26.641  -5.879  0.00  0.00     0.001 A 
HETATM   13  C   UNK N   1      25.713  27.677  -5.201  0.00  0.00     0.007 A 
ENDBRANCH   7   8
ENDBRANCH   6   7
ENDBRANCH   5   6
BRANCH   5  14
HETATM   14  C   UNK N   1      30.050  30.156  -3.084  0.00  0.00     0.281 C 
HETATM   15  O   UNK N   1      30.878  31.050  -3.165  0.00  0.00    -0.263 OA
BRANCH  14  16
HETATM   16  O   UNK N   1      29.199  30.184  -2.018  0.00  0.00    -0.320 OA
BRANCH  16  17
HETATM   17  C   UNK N   1      29.553  29.953  -0.709  0.00  0.00     0.174 C 
HETATM   18  C   UNK N   1      28.322  29.913   0.172  0.00  0.00     0.034 C 
ENDBRANCH  16  17
ENDBRANCH  14  16
ENDBRANCH   5  14
ENDBRANCH   3   5
ENDBRANCH   1   3
BRANCH   1  19
HETATM   19  C   UNK N   1      30.355  25.379  -3.988  0.00  0.00     0.242 C 
HETATM   20  O   UNK N   1      30.767  25.367  -2.840  0.00  0.00    -0.271 OA
HETATM   21  N   UNK N   1      29.923  24.219  -4.607  0.00  0.00    -0.331 N 
HETATM   22  C   UNK N   1      29.969  22.884  -3.964  0.00  0.00     0.189 C 
HETATM   23  C   UNK N   1      29.321  24.334  -5.937  0.00  0.00     0.166 C 
HETATM   24  C   UNK N   1      30.450  21.834  -4.956  0.00  0.00     0.075 C 
HETATM   25  C   UNK N   1      29.559  21.826  -6.145  0.00  0.00    -0.048 A 
HETATM   26  C   UNK N   1      29.026  23.031  -6.625  0.00  0.00    -0.034 A 
HETATM   27  C   UNK N   1      29.269  20.623  -6.797  0.00  0.00     0.008 A 
HETATM   28  C   UNK N   1      28.211  23.025  -7.761  0.00  0.00     0.009 A 
HETATM   29  C   UNK N   1      27.922  21.822  -8.412  0.00  0.00     0.001 A 
HETATM   30  C   UNK N   1      28.449  20.621  -7.929  0.00  0.00     0.001 A 
BRANCH  22  31
HETATM   31  C   UNK N   1      30.822  22.760  -2.729  0.00  0.00     0.164 C 
HETATM   32  O   UNK N   1      31.985  22.391  -2.813  0.00  0.00    -0.648 OA
BRANCH  31  33
HETATM   33  O   UNK N   1      30.298  23.037  -1.521  0.00  0.00    -0.775 OA
HETATM   34  H   UNK N   1      30.660  23.089  -0.658  0.00  0.00     0.167 HD
ENDBRANCH  31  33
ENDBRANCH  22  31
ENDBRANCH   1  19
TORSDOF 11
ENDMDL
MODEL 9
REMARK VINA RESULT:      -6.7      2.177      3.436
REMARK  11 active torsions:
REMARK  status: ('A' for Active; 'I' for Inactive)
REMARK    1  A    between atoms: O_2  and  C_16 
REMARK    2  A    between atoms: O_4  and  C_24 
REMARK    3  A    between atoms: O_4  and  C_28 
REMARK       I    between atoms: N_6  and  C_14 
REMARK    4  A    between atoms: C_13  and  N_7 
REMARK    5  A    between atoms: C_15  and  N_7 
REMARK    6  A    between atoms: C_8  and  C_16 
REMARK    7  A    between atoms: C_13  and  C_14 
REMARK    8  A    between atoms: C_15  and  C_17 
REMARK    9  A    between atoms: C_15  and  C_24 
REMARK   10  A    between atoms: C_17  and  C_21 
REMARK   11  A    between atoms: C_21  and  C_25 
ROOT
HETATM    1  C   UNK N   1      21.470  15.765   3.180  0.00  0.00     0.166 C 
HETATM    2  C   UNK N   1      20.882  15.226   1.888  0.00  0.00     0.042 C 
ENDROOT
BRANCH   1   3
HETATM    3  N   UNK N   1      20.860  15.122   4.338  0.00  0.00    -0.397 N 
HETATM    4  H   UNK N   1      19.850  15.107   4.478  0.00  0.00     0.154 HD
BRANCH   3   5
HETATM    5  C   UNK N   1      21.791  14.492   5.296  0.00  0.00     0.178 C 
BRANCH   5   6
HETATM    6  C   UNK N   1      20.964  13.929   6.448  0.00  0.00     0.039 C 
BRANCH   6   7
HETATM    7  C   UNK N   1      21.471  14.488   7.774  0.00  0.00     0.041 C 
BRANCH   7   8
HETATM    8  C   UNK N   1      21.925  13.421   8.706  0.00  0.00    -0.058 A 
HETATM    9  C   UNK N   1      22.868  12.466   8.301  0.00  0.00     0.007 A 
HETATM   10  C   UNK N   1      23.312  11.495   9.202  0.00  0.00     0.001 A 
HETATM   11  C   UNK N   1      22.822  11.481  10.511  0.00  0.00     0.000 A 
HETATM   12  C   UNK N   1      21.885  12.436  10.919  0.00  0.00     0.001 A 
HETATM   13  C   UNK N   1      21.438  13.406  10.017  0.00  0.00     0.007 A 
ENDBRANCH   7   8
ENDBRANCH   6   7
ENDBRANCH   5   6
BRANCH   5  14
HETATM   14  C   UNK N   1      22.886  13.566   4.720  0.00  0.00     0.281 C 
HETATM   15  O   UNK N   1      22.581  12.424   4.418  0.00  0.00    -0.263 OA
BRANCH  14  16
HETATM   16  O   UNK N   1      24.161  13.968   4.450  0.00  0.00    -0.320 OA
BRANCH  16  17
HETATM   17  C   UNK N   1      24.971  13.444   3.469  0.00  0.00     0.174 C 
HETATM   18  C   UNK N   1      24.961  14.335   2.244  0.00  0.00     0.034 C 
ENDBRANCH  16  17
ENDBRANCH  14  16
ENDBRANCH   5  14
ENDBRANCH   3   5
ENDBRANCH   1   3
BRANCH   1  19
HETATM   19  C   UNK N   1      21.347  17.262   3.312  0.00  0.00     0.242 C 
HETATM   20  O   UNK N   1      20.228  17.733   3.201  0.00  0.00    -0.271 OA
HETATM   21  N   UNK N   1      22.448  18.071   3.529  0.00  0.00    -0.331 N 
HETATM   22  C   UNK N   1      22.373  19.551   3.594  0.00  0.00     0.189 C 
HETATM   23  C   UNK N   1      23.737  17.424   3.782  0.00  0.00     0.166 C 
HETATM   24  C   UNK N   1      23.540  20.173   2.839  0.00  0.00     0.075 C 
HETATM   25  C   UNK N   1      24.822  19.675   3.402  0.00  0.00    -0.048 A 
HETATM   26  C   UNK N   1      24.920  18.348   3.844  0.00  0.00    -0.034 A 
HETATM   27  C   UNK N   1      25.933  20.521   3.472  0.00  0.00     0.008 A 
HETATM   28  C   UNK N   1      26.135  17.873   4.348  0.00  0.00     0.009 A 
HETATM   29  C   UNK N   1      27.246  18.720   4.417  0.00  0.00     0.001 A 
HETATM   30  C   UNK N   1      27.145  20.044   3.981  0.00  0.00     0.001 A 
BRANCH  22  31
HETATM   31  C   UNK N   1      21.111  20.185   3.074  0.00  0.00     0.164 C 
HETATM   32  O   UNK N   1      20.303  20.684   3.846  0.00  0.00    -0.648 OA
BRANCH  31  33
HETATM   33  O   UNK N   1      20.857  20.187   1.752  0.00  0.00    -0.775 OA
HETATM   34  H   UNK N   1      21.403  20.150   0.992  0.00  0.00     0.167 HD
ENDBRANCH  31  33
ENDBRANCH  22  31
ENDBRANCH   1  19
TORSDOF 11
ENDMDL
