REMARK  11 active torsions:
REMARK  status: ('A' for Active; 'I' for Inactive)
REMARK    1  A    between atoms: O_2  and  C_16 
REMARK    2  A    between atoms: O_4  and  C_24 
REMARK    3  A    between atoms: O_4  and  C_28 
REMARK       I    between atoms: N_6  and  C_14 
REMARK    4  A    between atoms: C_13  and  N_7 
REMARK    5  A    between atoms: C_15  and  N_7 
REMARK    6  A    between atoms: C_8  and  C_16 
REMARK    7  A    between atoms: C_13  and  C_14 
REMARK    8  A    between atoms: C_15  and  C_17 
REMARK    9  A    between atoms: C_15  and  C_24 
REMARK   10  A    between atoms: C_17  and  C_21 
REMARK   11  A    between atoms: C_21  and  C_25 
ROOT
HETATM    1  C   UNK N   1       2.942   0.175   0.945  0.00  0.00     0.166 C 
HETATM    2  C   UNK N   1       3.803  -0.277   2.112  0.00  0.00     0.042 C 
ENDROOT
BRANCH   1   3
HETATM    3  N   UNK N   1       3.317  -0.523  -0.279  0.00  0.00    -0.397 N 
HETATM    4  H   UNK N   1       4.239  -0.416  -0.702  0.00  0.00     0.154 HD
BRANCH   3   5
HETATM    5  C   UNK N   1       2.282  -1.396  -0.871  0.00  0.00     0.178 C 
BRANCH   5   6
HETATM    6  C   UNK N   1       2.933  -2.738  -1.193  0.00  0.00     0.039 C 
BRANCH   6   7
HETATM    7  C   UNK N   1       3.389  -3.416   0.095  0.00  0.00     0.041 C 
BRANCH   7   8
HETATM    8  C   UNK N   1       4.864  -3.614   0.143  0.00  0.00    -0.058 A 
HETATM    9  C   UNK N   1       5.738  -2.521   0.067  0.00  0.00     0.007 A 
HETATM   10  C   UNK N   1       7.118  -2.722   0.153  0.00  0.00     0.001 A 
HETATM   11  C   UNK N   1       7.627  -4.013   0.324  0.00  0.00     0.000 A 
HETATM   12  C   UNK N   1       6.755  -5.104   0.405  0.00  0.00     0.001 A 
HETATM   13  C   UNK N   1       5.375  -4.904   0.316  0.00  0.00     0.007 A 
ENDBRANCH   7   8
ENDBRANCH   6   7
ENDBRANCH   5   6
BRANCH   5  14
HETATM   14  C   UNK N   1       0.909  -1.450  -0.165  0.00  0.00     0.281 C 
HETATM   15  O   UNK N   1       0.396  -0.400   0.188  0.00  0.00    -0.263 OA
BRANCH  14  16
HETATM   16  O   UNK N   1       0.190  -2.594   0.020  0.00  0.00    -0.320 OA
BRANCH  16  17
HETATM   17  C   UNK N   1       0.343  -3.757  -0.700  0.00  0.00     0.174 C 
HETATM   18  C   UNK N   1       0.605  -4.923   0.230  0.00  0.00     0.034 C 
ENDBRANCH  16  17
ENDBRANCH  14  16
ENDBRANCH   5  14
ENDBRANCH   3   5
ENDBRANCH   1   3
BRANCH   1  19
HETATM   19  C   UNK N   1       2.991   1.664   0.711  0.00  0.00     0.242 C 
HETATM   20  O   UNK N   1       1.941   2.273   0.823  0.00  0.00    -0.271 OA
HETATM   21  N   UNK N   1       4.164   2.313   0.367  0.00  0.00    -0.331 N 
HETATM   22  C   UNK N   1       4.236   3.762   0.062  0.00  0.00     0.189 C 
HETATM   23  C   UNK N   1       5.407   1.539   0.381  0.00  0.00     0.166 C 
HETATM   24  C   UNK N   1       5.133   4.005  -1.145  0.00  0.00     0.075 C 
HETATM   25  C   UNK N   1       6.484   3.444  -0.883  0.00  0.00    -0.048 A 
HETATM   26  C   UNK N   1       6.615   2.250  -0.160  0.00  0.00    -0.034 A 
HETATM   27  C   UNK N   1       7.620   4.094  -1.375  0.00  0.00     0.008 A 
HETATM   28  C   UNK N   1       7.885   1.709   0.061  0.00  0.00     0.009 A 
HETATM   29  C   UNK N   1       9.021   2.359  -0.431  0.00  0.00     0.001 A 
HETATM   30  C   UNK N   1       8.889   3.552  -1.147  0.00  0.00     0.001 A 
BRANCH  22  31
HETATM   31  C   UNK N   1       2.928   4.461  -0.202  0.00  0.00     0.164 C 
HETATM   32  O   UNK N   1       2.246   4.155  -1.170  0.00  0.00    -0.648 OA
BRANCH  31  33
HETATM   33  O   UNK N   1       2.515   5.443   0.620  0.00  0.00    -0.775 OA
HETATM   34  H   UNK N   1       2.963   6.034   1.193  0.00  0.00     0.167 HD
ENDBRANCH  31  33
ENDBRANCH  22  31
ENDBRANCH   1  19
TORSDOF 11
