MODEL 1
REMARK VINA RESULT:      -5.5      0.000      0.000
REMARK  9 active torsions:
REMARK  status: ('A' for Active; 'I' for Inactive)
REMARK    1  A    between atoms: P_1  and  O_4 
REMARK    2  A    between atoms: P_1  and  O_5 
REMARK    3  A    between atoms: P_1  and  C_12 
REMARK    4  A    between atoms: P_2  and  O_6 
REMARK    5  A    between atoms: P_2  and  O_7 
REMARK    6  A    between atoms: P_2  and  C_12 
REMARK    7  A    between atoms: O_3  and  C_12 
REMARK    8  A    between atoms: C_12  and  C_13 
REMARK    9  A    between atoms: C_13  and  C_14 
ROOT
HETATM    1  C   UNK N   1      32.817  16.448   8.183  0.00  0.00     0.256 C 
ENDROOT
BRANCH   1   2
HETATM    2  P   UNK N   1      33.867  15.887   9.620  0.00  0.00     0.284 P 
HETATM    3  O   UNK N   1      34.956  14.893   9.135  0.00  0.00    -0.651 OA
BRANCH   2   4
HETATM    4  O   UNK N   1      34.772  17.142  10.405  0.00  0.00    -0.327 OA
HETATM    5  H   UNK N   1      35.692  17.298  10.671  0.00  0.00     0.220 HD
ENDBRANCH   2   4
BRANCH   2   6
HETATM    6  O   UNK N   1      33.031  15.012  10.865  0.00  0.00    -0.327 OA
HETATM    7  H   UNK N   1      32.284  14.420  10.685  0.00  0.00     0.220 HD
ENDBRANCH   2   6
ENDBRANCH   1   2
BRANCH   1   8
HETATM    8  P   UNK N   1      33.912  16.954   6.770  0.00  0.00     0.284 P 
HETATM    9  O   UNK N   1      34.656  18.280   7.083  0.00  0.00    -0.651 OA
BRANCH   8  10
HETATM   10  O   UNK N   1      35.173  15.833   6.365  0.00  0.00    -0.327 OA
HETATM   11  H   UNK N   1      35.494  14.955   6.625  0.00  0.00     0.220 HD
ENDBRANCH   8  10
BRANCH   8  12
HETATM   12  O   UNK N   1      33.051  17.291   5.301  0.00  0.00    -0.327 OA
HETATM   13  H   UNK N   1      33.217  18.069   4.745  0.00  0.00     0.220 HD
ENDBRANCH   8  12
ENDBRANCH   1   8
BRANCH   1  14
HETATM   14  O   UNK N   1      32.012  15.388   7.756  0.00  0.00    -0.368 OA
HETATM   15  H   UNK N   1      31.888  14.757   7.030  0.00  0.00     0.212 HD
ENDBRANCH   1  14
BRANCH   1  16
HETATM   16  C   UNK N   1      31.977  17.671   8.571  0.00  0.00     0.103 C 
BRANCH  16  17
HETATM   17  C   UNK N   1      30.504  17.514   8.359  0.00  0.00    -0.039 A 
HETATM   18  C   UNK N   1      29.659  17.467   9.468  0.00  0.00     0.010 A 
HETATM   19  C   UNK N   1      28.283  17.340   9.289  0.00  0.00     0.018 A 
HETATM   20  C   UNK N   1      27.769  17.256   7.993  0.00  0.00     0.087 A 
HETATM   21  N   UNK N   1      28.608  17.298   6.921  0.00  0.00    -0.375 N 
HETATM   22  C   UNK N   1      29.954  17.426   7.076  0.00  0.00     0.094 A 
ATOM     23  HN  UNK N   1      28.219  17.231   5.980  1.00  0.00     0.164 HD
ENDBRANCH  16  17
ENDBRANCH   1  16
TORSDOF 9
ENDMDL
MODEL 2
REMARK VINA RESULT:      -5.5      4.136      5.999
REMARK  9 active torsions:
REMARK  status: ('A' for Active; 'I' for Inactive)
REMARK    1  A    between atoms: P_1  and  O_4 
REMARK    2  A    between atoms: P_1  and  O_5 
REMARK    3  A    between atoms: P_1  and  C_12 
REMARK    4  A    between atoms: P_2  and  O_6 
REMARK    5  A    between atoms: P_2  and  O_7 
REMARK    6  A    between atoms: P_2  and  C_12 
REMARK    7  A    between atoms: O_3  and  C_12 
REMARK    8  A    between atoms: C_12  and  C_13 
REMARK    9  A    between atoms: C_13  and  C_14 
ROOT
HETATM    1  C   UNK N   1      34.369  16.180   8.781  0.00  0.00     0.256 C 
ENDROOT
BRANCH   1   2
HETATM    2  P   UNK N   1      34.152  17.833   7.944  0.00  0.00     0.284 P 
HETATM    3  O   UNK N   1      32.735  18.399   8.230  0.00  0.00    -0.651 OA
BRANCH   2   4
HETATM    4  O   UNK N   1      35.218  19.085   8.501  0.00  0.00    -0.327 OA
HETATM    5  H   UNK N   1      35.146  20.014   8.774  0.00  0.00     0.220 HD
ENDBRANCH   2   4
BRANCH   2   6
HETATM    6  O   UNK N   1      34.253  17.817   6.211  0.00  0.00    -0.327 OA
HETATM    7  H   UNK N   1      33.505  18.043   5.636  0.00  0.00     0.220 HD
ENDBRANCH   2   6
ENDBRANCH   1   2
BRANCH   1   8
HETATM    8  P   UNK N   1      32.739  15.290   8.839  0.00  0.00     0.284 P 
HETATM    9  O   UNK N   1      32.914  13.779   8.533  0.00  0.00    -0.651 OA
BRANCH   8  10
HETATM   10  O   UNK N   1      31.920  15.333  10.368  0.00  0.00    -0.327 OA
HETATM   11  H   UNK N   1      31.815  15.918  11.135  0.00  0.00     0.220 HD
ENDBRANCH   8  10
BRANCH   8  12
HETATM   12  O   UNK N   1      31.601  15.833   7.646  0.00  0.00    -0.327 OA
HETATM   13  H   UNK N   1      30.654  15.954   7.820  0.00  0.00     0.220 HD
ENDBRANCH   8  12
ENDBRANCH   1   8
BRANCH   1  14
HETATM   14  O   UNK N   1      35.267  15.402   8.045  0.00  0.00    -0.368 OA
HETATM   15  H   UNK N   1      36.151  15.005   8.077  0.00  0.00     0.212 HD
ENDBRANCH   1  14
BRANCH   1  16
HETATM   16  C   UNK N   1      34.841  16.363  10.229  0.00  0.00     0.103 C 
BRANCH  16  17
HETATM   17  C   UNK N   1      35.605  15.207  10.792  0.00  0.00    -0.039 A 
HETATM   18  C   UNK N   1      34.974  14.352  11.697  0.00  0.00     0.010 A 
HETATM   19  C   UNK N   1      35.665  13.259  12.217  0.00  0.00     0.018 A 
HETATM   20  C   UNK N   1      36.988  13.039  11.826  0.00  0.00     0.087 A 
HETATM   21  N   UNK N   1      37.591  13.886  10.947  0.00  0.00    -0.375 N 
HETATM   22  C   UNK N   1      36.931  14.956  10.425  0.00  0.00     0.094 A 
ATOM     23  HN  UNK N   1      38.559  13.716  10.674  1.00  0.00     0.164 HD
ENDBRANCH  16  17
ENDBRANCH   1  16
TORSDOF 9
ENDMDL
MODEL 3
REMARK VINA RESULT:      -5.4      4.113      5.842
REMARK  9 active torsions:
REMARK  status: ('A' for Active; 'I' for Inactive)
REMARK    1  A    between atoms: P_1  and  O_4 
REMARK    2  A    between atoms: P_1  and  O_5 
REMARK    3  A    between atoms: P_1  and  C_12 
REMARK    4  A    between atoms: P_2  and  O_6 
REMARK    5  A    between atoms: P_2  and  O_7 
REMARK    6  A    between atoms: P_2  and  C_12 
REMARK    7  A    between atoms: O_3  and  C_12 
REMARK    8  A    between atoms: C_12  and  C_13 
REMARK    9  A    between atoms: C_13  and  C_14 
ROOT
HETATM    1  C   UNK N   1      34.116  16.073   9.176  0.00  0.00     0.256 C 
ENDROOT
BRANCH   1   2
HETATM    2  P   UNK N   1      32.427  15.300   9.012  0.00  0.00     0.284 P 
HETATM    3  O   UNK N   1      31.535  16.152   8.069  0.00  0.00    -0.651 OA
BRANCH   2   4
HETATM    4  O   UNK N   1      32.406  13.722   8.290  0.00  0.00    -0.327 OA
HETATM    5  H   UNK N   1      31.835  12.937   8.308  0.00  0.00     0.220 HD
ENDBRANCH   2   4
BRANCH   2   6
HETATM    6  O   UNK N   1      31.502  15.197  10.478  0.00  0.00    -0.327 OA
HETATM    7  H   UNK N   1      31.472  15.909  11.135  0.00  0.00     0.220 HD
ENDBRANCH   2   6
ENDBRANCH   1   2
BRANCH   1   8
HETATM    8  P   UNK N   1      34.168  17.669   8.225  0.00  0.00     0.284 P 
HETATM    9  O   UNK N   1      35.240  18.632   8.803  0.00  0.00    -0.651 OA
BRANCH   8  10
HETATM   10  O   UNK N   1      34.575  17.522   6.545  0.00  0.00    -0.327 OA
HETATM   11  H   UNK N   1      35.115  17.966   5.873  0.00  0.00     0.220 HD
ENDBRANCH   8  10
BRANCH   8  12
HETATM   12  O   UNK N   1      32.695  18.583   8.307  0.00  0.00    -0.327 OA
HETATM   13  H   UNK N   1      32.419  19.223   7.631  0.00  0.00     0.220 HD
ENDBRANCH   8  12
ENDBRANCH   1   8
BRANCH   1  14
HETATM   14  O   UNK N   1      34.368  16.357  10.522  0.00  0.00    -0.368 OA
HETATM   15  H   UNK N   1      34.361  15.963  11.408  0.00  0.00     0.212 HD
ENDBRANCH   1  14
BRANCH   1  16
HETATM   16  C   UNK N   1      35.193  15.154   8.585  0.00  0.00     0.103 C 
BRANCH  16  17
HETATM   17  C   UNK N   1      35.926  14.319   9.587  0.00  0.00    -0.039 A 
HETATM   18  C   UNK N   1      35.359  13.119  10.016  0.00  0.00     0.010 A 
HETATM   19  C   UNK N   1      36.037  12.320  10.936  0.00  0.00     0.018 A 
HETATM   20  C   UNK N   1      37.278  12.740  11.419  0.00  0.00     0.087 A 
HETATM   21  N   UNK N   1      37.815  13.917  10.995  0.00  0.00    -0.375 N 
HETATM   22  C   UNK N   1      37.170  14.708  10.094  0.00  0.00     0.094 A 
ATOM     23  HN  UNK N   1      38.720  14.214  11.360  1.00  0.00     0.164 HD
ENDBRANCH  16  17
ENDBRANCH   1  16
TORSDOF 9
ENDMDL
MODEL 4
REMARK VINA RESULT:      -5.3      8.608     10.229
REMARK  9 active torsions:
REMARK  status: ('A' for Active; 'I' for Inactive)
REMARK    1  A    between atoms: P_1  and  O_4 
REMARK    2  A    between atoms: P_1  and  O_5 
REMARK    3  A    between atoms: P_1  and  C_12 
REMARK    4  A    between atoms: P_2  and  O_6 
REMARK    5  A    between atoms: P_2  and  O_7 
REMARK    6  A    between atoms: P_2  and  C_12 
REMARK    7  A    between atoms: O_3  and  C_12 
REMARK    8  A    between atoms: C_12  and  C_13 
REMARK    9  A    between atoms: C_13  and  C_14 
ROOT
HETATM    1  C   UNK N   1      35.452  12.300  14.711  0.00  0.00     0.256 C 
ENDROOT
BRANCH   1   2
HETATM    2  P   UNK N   1      35.886  13.511  13.359  0.00  0.00     0.284 P 
HETATM    3  O   UNK N   1      36.838  12.847  12.328  0.00  0.00    -0.651 OA
BRANCH   2   4
HETATM    4  O   UNK N   1      34.546  14.052  12.398  0.00  0.00    -0.327 OA
HETATM    5  H   UNK N   1      34.397  14.351  11.486  0.00  0.00     0.220 HD
ENDBRANCH   2   4
BRANCH   2   6
HETATM    6  O   UNK N   1      36.748  14.929  13.869  0.00  0.00    -0.327 OA
HETATM    7  H   UNK N   1      36.967  15.659  13.269  0.00  0.00     0.220 HD
ENDBRANCH   2   6
ENDBRANCH   1   2
BRANCH   1   8
HETATM    8  P   UNK N   1      34.485  10.884  13.995  0.00  0.00     0.284 P 
HETATM    9  O   UNK N   1      33.090  10.763  14.664  0.00  0.00    -0.651 OA
BRANCH   8  10
HETATM   10  O   UNK N   1      34.145  10.998  12.297  0.00  0.00    -0.327 OA
HETATM   11  H   UNK N   1      34.585  11.246  11.469  0.00  0.00     0.220 HD
ENDBRANCH   8  10
BRANCH   8  12
HETATM   12  O   UNK N   1      35.215   9.332  14.257  0.00  0.00    -0.327 OA
HETATM   13  H   UNK N   1      36.162   9.154  14.139  0.00  0.00     0.220 HD
ENDBRANCH   8  12
ENDBRANCH   1   8
BRANCH   1  14
HETATM   14  O   UNK N   1      36.627  11.789  15.270  0.00  0.00    -0.368 OA
HETATM   15  H   UNK N   1      37.018  10.983  15.641  0.00  0.00     0.212 HD
ENDBRANCH   1  14
BRANCH   1  16
HETATM   16  C   UNK N   1      34.569  12.967  15.773  0.00  0.00     0.103 C 
BRANCH  16  17
HETATM   17  C   UNK N   1      34.933  12.643  17.187  0.00  0.00    -0.039 A 
HETATM   18  C   UNK N   1      35.064  11.306  17.565  0.00  0.00     0.010 A 
HETATM   19  C   UNK N   1      35.420  10.986  18.874  0.00  0.00     0.018 A 
HETATM   20  C   UNK N   1      35.636  12.016  19.793  0.00  0.00     0.087 A 
HETATM   21  N   UNK N   1      35.499  13.315  19.410  0.00  0.00    -0.375 N 
HETATM   22  C   UNK N   1      35.156  13.647  18.135  0.00  0.00     0.094 A 
ATOM     23  HN  UNK N   1      35.655  14.056  20.092  1.00  0.00     0.164 HD
ENDBRANCH  16  17
ENDBRANCH   1  16
TORSDOF 9
ENDMDL
MODEL 5
REMARK VINA RESULT:      -5.3      2.935      3.905
REMARK  9 active torsions:
REMARK  status: ('A' for Active; 'I' for Inactive)
REMARK    1  A    between atoms: P_1  and  O_4 
REMARK    2  A    between atoms: P_1  and  O_5 
REMARK    3  A    between atoms: P_1  and  C_12 
REMARK    4  A    between atoms: P_2  and  O_6 
REMARK    5  A    between atoms: P_2  and  O_7 
REMARK    6  A    between atoms: P_2  and  C_12 
REMARK    7  A    between atoms: O_3  and  C_12 
REMARK    8  A    between atoms: C_12  and  C_13 
REMARK    9  A    between atoms: C_13  and  C_14 
ROOT
HETATM    1  C   UNK N   1      33.541  15.555   7.880  0.00  0.00     0.256 C 
ENDROOT
BRANCH   1   2
HETATM    2  P   UNK N   1      33.444  14.348   9.299  0.00  0.00     0.284 P 
HETATM    3  O   UNK N   1      34.832  13.701   9.550  0.00  0.00    -0.651 OA
BRANCH   2   4
HETATM    4  O   UNK N   1      33.028  15.046  10.832  0.00  0.00    -0.327 OA
HETATM    5  H   UNK N   1      32.792  15.923  11.176  0.00  0.00     0.220 HD
ENDBRANCH   2   4
BRANCH   2   6
HETATM    6  O   UNK N   1      32.389  12.990   9.059  0.00  0.00    -0.327 OA
HETATM    7  H   UNK N   1      31.436  13.023   9.235  0.00  0.00     0.220 HD
ENDBRANCH   2   6
ENDBRANCH   1   2
BRANCH   1   8
HETATM    8  P   UNK N   1      33.814  17.272   8.537  0.00  0.00     0.284 P 
HETATM    9  O   UNK N   1      32.468  18.025   8.714  0.00  0.00    -0.651 OA
BRANCH   8  10
HETATM   10  O   UNK N   1      34.571  17.361  10.096  0.00  0.00    -0.327 OA
HETATM   11  H   UNK N   1      35.437  17.555  10.488  0.00  0.00     0.220 HD
ENDBRANCH   8  10
BRANCH   8  12
HETATM   12  O   UNK N   1      34.732  18.292   7.475  0.00  0.00    -0.327 OA
HETATM   13  H   UNK N   1      35.132  19.133   7.748  0.00  0.00     0.220 HD
ENDBRANCH   8  12
ENDBRANCH   1   8
BRANCH   1  14
HETATM   14  O   UNK N   1      34.624  15.222   7.061  0.00  0.00    -0.368 OA
HETATM   15  H   UNK N   1      35.369  15.606   6.574  0.00  0.00     0.212 HD
ENDBRANCH   1  14
BRANCH   1  16
HETATM   16  C   UNK N   1      32.225  15.571   7.091  0.00  0.00     0.103 C 
BRANCH  16  17
HETATM   17  C   UNK N   1      32.369  15.888   5.636  0.00  0.00    -0.039 A 
HETATM   18  C   UNK N   1      32.332  17.221   5.224  0.00  0.00     0.010 A 
HETATM   19  C   UNK N   1      32.482  17.535   3.874  0.00  0.00     0.018 A 
HETATM   20  C   UNK N   1      32.663  16.503   2.950  0.00  0.00     0.087 A 
HETATM   21  N   UNK N   1      32.691  15.207   3.368  0.00  0.00    -0.375 N 
HETATM   22  C   UNK N   1      32.550  14.882   4.682  0.00  0.00     0.094 A 
ATOM     23  HN  UNK N   1      32.819  14.464   2.681  1.00  0.00     0.164 HD
ENDBRANCH  16  17
ENDBRANCH   1  16
TORSDOF 9
ENDMDL
MODEL 6
REMARK VINA RESULT:      -5.2      2.434      3.846
REMARK  9 active torsions:
REMARK  status: ('A' for Active; 'I' for Inactive)
REMARK    1  A    between atoms: P_1  and  O_4 
REMARK    2  A    between atoms: P_1  and  O_5 
REMARK    3  A    between atoms: P_1  and  C_12 
REMARK    4  A    between atoms: P_2  and  O_6 
REMARK    5  A    between atoms: P_2  and  O_7 
REMARK    6  A    between atoms: P_2  and  C_12 
REMARK    7  A    between atoms: O_3  and  C_12 
REMARK    8  A    between atoms: C_12  and  C_13 
REMARK    9  A    between atoms: C_13  and  C_14 
ROOT
HETATM    1  C   UNK N   1      34.121  15.940   8.790  0.00  0.00     0.256 C 
ENDROOT
BRANCH   1   2
HETATM    2  P   UNK N   1      32.889  14.636   9.300  0.00  0.00     0.284 P 
HETATM    3  O   UNK N   1      32.270  13.962   8.046  0.00  0.00    -0.651 OA
BRANCH   2   4
HETATM    4  O   UNK N   1      33.552  13.309  10.200  0.00  0.00    -0.327 OA
HETATM    5  H   UNK N   1      34.424  12.903  10.335  0.00  0.00     0.220 HD
ENDBRANCH   2   4
BRANCH   2   6
HETATM    6  O   UNK N   1      31.511  15.209  10.186  0.00  0.00    -0.327 OA
HETATM    7  H   UNK N   1      31.194  14.790  11.000  0.00  0.00     0.220 HD
ENDBRANCH   2   6
ENDBRANCH   1   2
BRANCH   1   8
HETATM    8  P   UNK N   1      35.290  16.280  10.195  0.00  0.00     0.284 P 
HETATM    9  O   UNK N   1      35.668  17.784  10.259  0.00  0.00    -0.651 OA
BRANCH   8  10
HETATM   10  O   UNK N   1      34.677  15.917  11.777  0.00  0.00    -0.327 OA
HETATM   11  H   UNK N   1      34.862  16.122  12.707  0.00  0.00     0.220 HD
ENDBRANCH   8  10
BRANCH   8  12
HETATM   12  O   UNK N   1      36.816  15.467  10.049  0.00  0.00    -0.327 OA
HETATM   13  H   UNK N   1      36.932  14.511  10.173  0.00  0.00     0.220 HD
ENDBRANCH   8  12
ENDBRANCH   1   8
BRANCH   1  14
HETATM   14  O   UNK N   1      34.867  15.474   7.703  0.00  0.00    -0.368 OA
HETATM   15  H   UNK N   1      35.775  15.332   7.394  0.00  0.00     0.212 HD
ENDBRANCH   1  14
BRANCH   1  16
HETATM   16  C   UNK N   1      33.410  17.258   8.458  0.00  0.00     0.103 C 
BRANCH  16  17
HETATM   17  C   UNK N   1      32.773  17.307   7.105  0.00  0.00    -0.039 A 
HETATM   18  C   UNK N   1      33.578  17.510   5.983  0.00  0.00     0.010 A 
HETATM   19  C   UNK N   1      33.003  17.539   4.713  0.00  0.00     0.018 A 
HETATM   20  C   UNK N   1      31.623  17.369   4.585  0.00  0.00     0.087 A 
HETATM   21  N   UNK N   1      30.852  17.177   5.690  0.00  0.00    -0.375 N 
HETATM   22  C   UNK N   1      31.395  17.141   6.938  0.00  0.00     0.094 A 
ATOM     23  HN  UNK N   1      29.845  17.060   5.582  1.00  0.00     0.164 HD
ENDBRANCH  16  17
ENDBRANCH   1  16
TORSDOF 9
ENDMDL
MODEL 7
REMARK VINA RESULT:      -5.1     11.918     13.687
REMARK  9 active torsions:
REMARK  status: ('A' for Active; 'I' for Inactive)
REMARK    1  A    between atoms: P_1  and  O_4 
REMARK    2  A    between atoms: P_1  and  O_5 
REMARK    3  A    between atoms: P_1  and  C_12 
REMARK    4  A    between atoms: P_2  and  O_6 
REMARK    5  A    between atoms: P_2  and  O_7 
REMARK    6  A    between atoms: P_2  and  C_12 
REMARK    7  A    between atoms: O_3  and  C_12 
REMARK    8  A    between atoms: C_12  and  C_13 
REMARK    9  A    between atoms: C_13  and  C_14 
ROOT
HETATM    1  C   UNK N   1      20.381  17.683   3.328  0.00  0.00     0.256 C 
ENDROOT
BRANCH   1   2
HETATM    2  P   UNK N   1      20.851  19.430   2.871  0.00  0.00     0.284 P 
HETATM    3  O   UNK N   1      22.382  19.632   3.026  0.00  0.00    -0.651 OA
BRANCH   2   4
HETATM    4  O   UNK N   1      20.539  19.869   1.222  0.00  0.00    -0.327 OA
HETATM    5  H   UNK N   1      21.059  20.093   0.433  0.00  0.00     0.220 HD
ENDBRANCH   2   4
BRANCH   2   6
HETATM    6  O   UNK N   1      20.164  20.677   3.865  0.00  0.00    -0.327 OA
HETATM    7  H   UNK N   1      19.284  21.053   3.709  0.00  0.00     0.220 HD
ENDBRANCH   2   6
ENDBRANCH   1   2
BRANCH   1   8
HETATM    8  P   UNK N   1      21.032  17.283   5.022  0.00  0.00     0.284 P 
HETATM    9  O   UNK N   1      19.976  16.514   5.861  0.00  0.00    -0.651 OA
BRANCH   8  10
HETATM   10  O   UNK N   1      22.440  16.271   5.059  0.00  0.00    -0.327 OA
HETATM   11  H   UNK N   1      22.969  15.718   4.463  0.00  0.00     0.220 HD
ENDBRANCH   8  10
BRANCH   8  12
HETATM   12  O   UNK N   1      21.395  18.683   5.982  0.00  0.00    -0.327 OA
HETATM   13  H   UNK N   1      20.725  19.200   6.457  0.00  0.00     0.220 HD
ENDBRANCH   8  12
ENDBRANCH   1   8
BRANCH   1  14
HETATM   14  O   UNK N   1      18.988  17.570   3.356  0.00  0.00    -0.368 OA
HETATM   15  H   UNK N   1      18.209  17.757   3.903  0.00  0.00     0.212 HD
ENDBRANCH   1  14
BRANCH   1  16
HETATM   16  C   UNK N   1      21.006  16.680   2.350  0.00  0.00     0.103 C 
BRANCH  16  17
HETATM   17  C   UNK N   1      20.026  15.950   1.486  0.00  0.00    -0.039 A 
HETATM   18  C   UNK N   1      19.712  14.624   1.787  0.00  0.00     0.010 A 
HETATM   19  C   UNK N   1      18.788  13.935   1.004  0.00  0.00     0.018 A 
HETATM   20  C   UNK N   1      18.191  14.585  -0.079  0.00  0.00     0.087 A 
HETATM   21  N   UNK N   1      18.513  15.877  -0.362  0.00  0.00    -0.375 N 
HETATM   22  C   UNK N   1      19.410  16.568   0.394  0.00  0.00     0.094 A 
ATOM     23  HN  UNK N   1      18.073  16.338  -1.158  1.00  0.00     0.164 HD
ENDBRANCH  16  17
ENDBRANCH   1  16
TORSDOF 9
ENDMDL
MODEL 8
REMARK VINA RESULT:      -5.1      3.282      4.303
REMARK  9 active torsions:
REMARK  status: ('A' for Active; 'I' for Inactive)
REMARK    1  A    between atoms: P_1  and  O_4 
REMARK    2  A    between atoms: P_1  and  O_5 
REMARK    3  A    between atoms: P_1  and  C_12 
REMARK    4  A    between atoms: P_2  and  O_6 
REMARK    5  A    between atoms: P_2  and  O_7 
REMARK    6  A    between atoms: P_2  and  C_12 
REMARK    7  A    between atoms: O_3  and  C_12 
REMARK    8  A    between atoms: C_12  and  C_13 
REMARK    9  A    between atoms: C_13  and  C_14 
ROOT
HETATM    1  C   UNK N   1      34.249  15.950   8.364  0.00  0.00     0.256 C 
ENDROOT
BRANCH   1   2
HETATM    2  P   UNK N   1      34.710  15.807  10.166  0.00  0.00     0.284 P 
HETATM    3  O   UNK N   1      35.993  14.948  10.326  0.00  0.00    -0.651 OA
BRANCH   2   4
HETATM    4  O   UNK N   1      35.114  17.304  10.944  0.00  0.00    -0.327 OA
HETATM    5  H   UNK N   1      34.796  18.222  10.934  0.00  0.00     0.220 HD
ENDBRANCH   2   4
BRANCH   2   6
HETATM    6  O   UNK N   1      33.547  15.008  11.178  0.00  0.00    -0.327 OA
HETATM    7  H   UNK N   1      33.686  14.121  11.545  0.00  0.00     0.220 HD
ENDBRANCH   2   6
ENDBRANCH   1   2
BRANCH   1   8
HETATM    8  P   UNK N   1      34.103  17.743   7.898  0.00  0.00     0.284 P 
HETATM    9  O   UNK N   1      32.712  18.313   8.286  0.00  0.00    -0.651 OA
BRANCH   8  10
HETATM   10  O   UNK N   1      35.238  18.807   8.664  0.00  0.00    -0.327 OA
HETATM   11  H   UNK N   1      35.676  18.929   9.521  0.00  0.00     0.220 HD
ENDBRANCH   8  10
BRANCH   8  12
HETATM   12  O   UNK N   1      34.216  18.035   6.190  0.00  0.00    -0.327 OA
HETATM   13  H   UNK N   1      33.454  18.249   5.628  0.00  0.00     0.220 HD
ENDBRANCH   8  12
ENDBRANCH   1   8
BRANCH   1  14
HETATM   14  O   UNK N   1      35.253  15.375   7.581  0.00  0.00    -0.368 OA
HETATM   15  H   UNK N   1      35.482  15.141   6.668  0.00  0.00     0.212 HD
ENDBRANCH   1  14
BRANCH   1  16
HETATM   16  C   UNK N   1      32.886  15.297   8.099  0.00  0.00     0.103 C 
BRANCH  16  17
HETATM   17  C   UNK N   1      32.952  13.913   7.534  0.00  0.00    -0.039 A 
HETATM   18  C   UNK N   1      32.765  13.730   6.164  0.00  0.00     0.010 A 
HETATM   19  C   UNK N   1      32.841  12.449   5.618  0.00  0.00     0.018 A 
HETATM   20  C   UNK N   1      33.099  11.364   6.458  0.00  0.00     0.087 A 
HETATM   21  N   UNK N   1      33.274  11.559   7.794  0.00  0.00    -0.375 N 
HETATM   22  C   UNK N   1      33.208  12.803   8.345  0.00  0.00     0.094 A 
ATOM     23  HN  UNK N   1      33.457  10.757   8.396  1.00  0.00     0.164 HD
ENDBRANCH  16  17
ENDBRANCH   1  16
TORSDOF 9
ENDMDL
MODEL 9
REMARK VINA RESULT:      -5.1      4.635      6.100
REMARK  9 active torsions:
REMARK  status: ('A' for Active; 'I' for Inactive)
REMARK    1  A    between atoms: P_1  and  O_4 
REMARK    2  A    between atoms: P_1  and  O_5 
REMARK    3  A    between atoms: P_1  and  C_12 
REMARK    4  A    between atoms: P_2  and  O_6 
REMARK    5  A    between atoms: P_2  and  O_7 
REMARK    6  A    between atoms: P_2  and  C_12 
REMARK    7  A    between atoms: O_3  and  C_12 
REMARK    8  A    between atoms: C_12  and  C_13 
REMARK    9  A    between atoms: C_13  and  C_14 
ROOT
HETATM    1  C   UNK N   1      34.021  14.892   9.880  0.00  0.00     0.256 C 
ENDROOT
BRANCH   1   2
HETATM    2  P   UNK N   1      33.217  13.735   8.657  0.00  0.00     0.284 P 
HETATM    3  O   UNK N   1      34.244  13.293   7.580  0.00  0.00    -0.651 OA
BRANCH   2   4
HETATM    4  O   UNK N   1      32.647  12.239   9.326  0.00  0.00    -0.327 OA
HETATM    5  H   UNK N   1      31.895  11.937   9.861  0.00  0.00     0.220 HD
ENDBRANCH   2   4
BRANCH   2   6
HETATM    6  O   UNK N   1      31.909  14.407   7.735  0.00  0.00    -0.327 OA
HETATM    7  H   UNK N   1      30.978  14.308   7.987  0.00  0.00     0.220 HD
ENDBRANCH   2   6
ENDBRANCH   1   2
BRANCH   1   8
HETATM    8  P   UNK N   1      34.274  16.557   9.092  0.00  0.00     0.284 P 
HETATM    9  O   UNK N   1      35.298  17.406   9.891  0.00  0.00    -0.651 OA
BRANCH   8  10
HETATM   10  O   UNK N   1      34.900  16.528   7.474  0.00  0.00    -0.327 OA
HETATM   11  H   UNK N   1      35.697  16.785   6.985  0.00  0.00     0.220 HD
ENDBRANCH   8  10
BRANCH   8  12
HETATM   12  O   UNK N   1      32.845  17.541   9.059  0.00  0.00    -0.327 OA
HETATM   13  H   UNK N   1      32.859  18.511   9.011  0.00  0.00     0.220 HD
ENDBRANCH   8  12
ENDBRANCH   1   8
BRANCH   1  14
HETATM   14  O   UNK N   1      33.182  15.054  10.986  0.00  0.00    -0.368 OA
HETATM   15  H   UNK N   1      33.187  15.150  11.951  0.00  0.00     0.212 HD
ENDBRANCH   1  14
BRANCH   1  16
HETATM   16  C   UNK N   1      35.403  14.369  10.294  0.00  0.00     0.103 C 
BRANCH  16  17
HETATM   17  C   UNK N   1      35.484  13.852  11.696  0.00  0.00    -0.039 A 
HETATM   18  C   UNK N   1      36.068  14.649  12.681  0.00  0.00     0.010 A 
HETATM   19  C   UNK N   1      36.136  14.191  13.995  0.00  0.00     0.018 A 
HETATM   20  C   UNK N   1      35.620  12.930  14.305  0.00  0.00     0.087 A 
HETATM   21  N   UNK N   1      35.059  12.162  13.331  0.00  0.00    -0.375 N 
HETATM   22  C   UNK N   1      34.979  12.595  12.043  0.00  0.00     0.094 A 
ATOM     23  HN  UNK N   1      34.691  11.242  13.572  1.00  0.00     0.164 HD
ENDBRANCH  16  17
ENDBRANCH   1  16
TORSDOF 9
ENDMDL
