REMARK  9 active torsions:
REMARK  status: ('A' for Active; 'I' for Inactive)
REMARK    1  A    between atoms: P_1  and  O_4 
REMARK    2  A    between atoms: P_1  and  O_5 
REMARK    3  A    between atoms: P_1  and  C_12 
REMARK    4  A    between atoms: P_2  and  O_6 
REMARK    5  A    between atoms: P_2  and  O_7 
REMARK    6  A    between atoms: P_2  and  C_12 
REMARK    7  A    between atoms: O_3  and  C_12 
REMARK    8  A    between atoms: C_12  and  C_13 
REMARK    9  A    between atoms: C_13  and  C_14 
ROOT
HETATM    1  C   UNK N   1       3.340   0.557   0.176  0.00  0.00     0.256 C 
ENDROOT
BRANCH   1   2
HETATM    2  P   UNK N   1       2.174   1.921   0.685  0.00  0.00     0.284 P 
HETATM    3  O   UNK N   1       2.745   2.688   1.908  0.00  0.00    -0.651 OA
BRANCH   2   4
HETATM    4  O   UNK N   1       1.928   3.161  -0.504  0.00  0.00    -0.327 OA
HETATM    5  H   UNK N   1       2.460   3.627  -1.169  0.00  0.00     0.220 HD
ENDBRANCH   2   4
BRANCH   2   6
HETATM    6  O   UNK N   1       0.602   1.408   1.213  0.00  0.00    -0.327 OA
HETATM    7  H   UNK N   1      -0.085   2.026   1.507  0.00  0.00     0.220 HD
ENDBRANCH   2   6
ENDBRANCH   1   2
BRANCH   1   8
HETATM    8  P   UNK N   1       4.990   1.282  -0.278  0.00  0.00     0.284 P 
HETATM    9  O   UNK N   1       4.856   2.292  -1.449  0.00  0.00    -0.651 OA
BRANCH   8  10
HETATM   10  O   UNK N   1       5.782   2.176   0.980  0.00  0.00    -0.327 OA
HETATM   11  H   UNK N   1       6.436   2.042   1.684  0.00  0.00     0.220 HD
ENDBRANCH   8  10
BRANCH   8  12
HETATM   12  O   UNK N   1       6.134   0.113  -0.859  0.00  0.00    -0.327 OA
HETATM   13  H   UNK N   1       5.887  -0.768  -1.183  0.00  0.00     0.220 HD
ENDBRANCH   8  12
ENDBRANCH   1   8
BRANCH   1  14
HETATM   14  O   UNK N   1       3.527  -0.318   1.250  0.00  0.00    -0.368 OA
HETATM   15  H   UNK N   1       3.067  -0.735   1.995  0.00  0.00     0.212 HD
ENDBRANCH   1  14
BRANCH   1  16
HETATM   16  C   UNK N   1       2.808  -0.178  -1.061  0.00  0.00     0.103 C 
BRANCH  16  17
HETATM   17  C   UNK N   1       2.163  -1.498  -0.779  0.00  0.00    -0.039 A 
HETATM   18  C   UNK N   1       2.812  -2.669  -1.172  0.00  0.00     0.010 A 
HETATM   19  C   UNK N   1       2.234  -3.908  -0.901  0.00  0.00     0.018 A 
HETATM   20  C   UNK N   1       1.004  -3.957  -0.241  0.00  0.00     0.087 A 
HETATM   21  N   UNK N   1       0.381  -2.805   0.131  0.00  0.00    -0.375 N 
HETATM   22  C   UNK N   1       0.932  -1.586  -0.121  0.00  0.00     0.094 A 
ATOM     23  HN  UNK N   1      -0.519  -2.856   0.608  1.00  0.00     0.164 HD
ENDBRANCH  16  17
ENDBRANCH   1  16
TORSDOF 9
