REMARK  15 active torsions:
REMARK  status: ('A' for Active; 'I' for Inactive)
REMARK    1  A    between atoms: C_8  and  O_1 
REMARK    2  A    between atoms: C_9  and  O_2 
REMARK    3  A    between atoms: C_15  and  O_3 
REMARK       I    between atoms: N_5  and  C_25 
REMARK    4  A    between atoms: N_5  and  C_29 
REMARK    5  A    between atoms: C_6  and  C_11 
REMARK    6  A    between atoms: C_7  and  C_12 
REMARK    7  A    between atoms: C_11  and  C_13 
REMARK    8  A    between atoms: C_14  and  C_15 
REMARK    9  A    between atoms: C_15  and  C_17 
REMARK   10  A    between atoms: C_16  and  C_18 
REMARK   11  A    between atoms: C_17  and  C_19 
REMARK   12  A    between atoms: C_18  and  C_20 
REMARK   13  A    between atoms: C_19  and  C_21 
REMARK   14  A    between atoms: C_20  and  C_22 
REMARK   15  A    between atoms: C_22  and  C_25 
ROOT
HETATM    1  C   UNK N   1       8.829   1.792  -0.241  0.00  0.00     0.028 C 
HETATM    2  C   UNK N   1       8.467   0.375   0.168  0.00  0.00     0.043 C 
HETATM    3  C   UNK N   1      10.291   1.714  -0.704  0.00  0.00     0.125 C 
HETATM    4  C   UNK N   1       9.554  -0.497  -0.423  0.00  0.00     0.128 C 
HETATM    5  C   UNK N   1      10.791   0.354  -0.270  0.00  0.00     0.064 C 
ENDROOT
BRANCH   2   6
HETATM    6  C   UNK N   1       7.115   0.047  -0.369  0.00  0.00    -0.021 C 
HETATM    7  C   UNK N   1       6.125  -0.326   0.441  0.00  0.00     0.001 C 
BRANCH   7   8
HETATM    8  C   UNK N   1       4.731  -0.512  -0.083  0.00  0.00     0.141 C 
BRANCH   8   9
HETATM    9  O   UNK N   1       4.238   0.704  -0.551  0.00  0.00    -0.392 OA
HETATM   10  H   UNK N   1       4.800   1.424  -0.877  0.00  0.00     0.210 HD
ENDBRANCH   8   9
BRANCH   8  11
HETATM   11  C   UNK N   1       4.672  -1.525  -1.210  0.00  0.00     0.040 C 
BRANCH  11  12
HETATM   12  C   UNK N   1       3.823  -2.715  -0.792  0.00  0.00     0.041 C 
BRANCH  12  13
HETATM   13  C   UNK N   1       4.627  -3.888  -0.320  0.00  0.00    -0.058 A 
HETATM   14  C   UNK N   1       6.032  -3.860  -0.282  0.00  0.00     0.007 A 
HETATM   15  C   UNK N   1       6.748  -4.979   0.148  0.00  0.00     0.001 A 
HETATM   16  C   UNK N   1       6.066  -6.134   0.540  0.00  0.00     0.000 A 
HETATM   17  C   UNK N   1       4.669  -6.168   0.505  0.00  0.00     0.001 A 
HETATM   18  C   UNK N   1       3.953  -5.048   0.075  0.00  0.00     0.007 A 
ENDBRANCH  12  13
ENDBRANCH  11  12
ENDBRANCH   8  11
ENDBRANCH   7   8
ENDBRANCH   2   6
BRANCH   1  19
HETATM   19  C   UNK N   1       8.556   2.741   0.925  0.00  0.00     0.034 C 
BRANCH  19  20
HETATM   20  C   UNK N   1       8.558   4.165   0.455  0.00  0.00    -0.030 C 
HETATM   21  C   UNK N   1       7.503   4.736  -0.143  0.00  0.00    -0.031 C 
BRANCH  21  22
HETATM   22  C   UNK N   1       6.205   4.020  -0.359  0.00  0.00     0.027 C 
BRANCH  22  23
HETATM   23  C   UNK N   1       5.364   4.113   0.901  0.00  0.00     0.013 C 
BRANCH  23  24
HETATM   24  C   UNK N   1       4.101   3.278   0.759  0.00  0.00     0.103 C 
BRANCH  24  25
HETATM   25  C   UNK N   1       2.954   4.003   0.113  0.00  0.00     0.217 C 
HETATM   26  O   UNK N   1       3.053   5.181  -0.197  0.00  0.00    -0.274 OA
HETATM   27  N   UNK N   1       1.801   3.327  -0.109  0.00  0.00    -0.361 N 
HETATM   28  H   UNK N   1       1.751   2.375   0.140  0.00  0.00     0.162 HD
BRANCH  27  29
HETATM   29  C   UNK N   1       0.644   3.954  -0.696  0.00  0.00     0.118 C 
HETATM   30  C   UNK N   1      -0.543   3.784   0.230  0.00  0.00     0.026 C 
ENDBRANCH  27  29
ENDBRANCH  24  25
ENDBRANCH  23  24
ENDBRANCH  22  23
ENDBRANCH  21  22
ENDBRANCH  19  20
ENDBRANCH   1  19
BRANCH   4  31
HETATM   31  O   UNK N   1       9.683  -1.685   0.296  0.00  0.00    -0.395 OA
HETATM   32  H   UNK N   1       9.013  -2.176   0.797  0.00  0.00     0.210 HD
ENDBRANCH   4  31
BRANCH   3  33
HETATM   33  O   UNK N   1      11.096   2.740  -0.204  0.00  0.00    -0.395 OA
HETATM   34  H   UNK N   1      11.993   2.611   0.143  0.00  0.00     0.210 HD
ENDBRANCH   3  33
TORSDOF 15
