MODEL 1
REMARK VINA RESULT:      -5.9      0.000      0.000
REMARK  15 active torsions:
REMARK  status: ('A' for Active; 'I' for Inactive)
REMARK    1  A    between atoms: C_8  and  O_1 
REMARK    2  A    between atoms: C_9  and  O_2 
REMARK    3  A    between atoms: C_15  and  O_3 
REMARK       I    between atoms: N_5  and  C_25 
REMARK    4  A    between atoms: N_5  and  C_29 
REMARK    5  A    between atoms: C_6  and  C_11 
REMARK    6  A    between atoms: C_7  and  C_12 
REMARK    7  A    between atoms: C_11  and  C_13 
REMARK    8  A    between atoms: C_14  and  C_15 
REMARK    9  A    between atoms: C_15  and  C_17 
REMARK   10  A    between atoms: C_16  and  C_18 
REMARK   11  A    between atoms: C_17  and  C_19 
REMARK   12  A    between atoms: C_18  and  C_20 
REMARK   13  A    between atoms: C_19  and  C_21 
REMARK   14  A    between atoms: C_20  and  C_22 
REMARK   15  A    between atoms: C_22  and  C_25 
ROOT
HETATM    1  C   UNK N   1      27.210  22.869  -7.582  0.00  0.00     0.028 C 
HETATM    2  C   UNK N   1      26.056  22.688  -6.612  0.00  0.00     0.043 C 
HETATM    3  C   UNK N   1      26.898  21.931  -8.756  0.00  0.00     0.125 C 
HETATM    4  C   UNK N   1      24.976  21.988  -7.410  0.00  0.00     0.128 C 
HETATM    5  C   UNK N   1      25.763  21.047  -8.290  0.00  0.00     0.064 C 
ENDROOT
BRANCH   2   6
HETATM    6  C   UNK N   1      25.624  24.027  -6.118  0.00  0.00    -0.021 C 
HETATM    7  C   UNK N   1      25.920  24.433  -4.884  0.00  0.00     0.001 C 
BRANCH   7   8
HETATM    8  C   UNK N   1      25.613  25.834  -4.441  0.00  0.00     0.141 C 
BRANCH   8   9
HETATM    9  O   UNK N   1      26.690  26.345  -3.719  0.00  0.00    -0.392 OA
HETATM   10  H   UNK N   1      27.482  26.724  -4.129  0.00  0.00     0.210 HD
ENDBRANCH   8   9
BRANCH   8  11
HETATM   11  C   UNK N   1      25.332  26.757  -5.610  0.00  0.00     0.040 C 
BRANCH  11  12
HETATM   12  C   UNK N   1      26.378  27.860  -5.663  0.00  0.00     0.041 C 
BRANCH  12  13
HETATM   13  C   UNK N   1      27.244  27.806  -6.884  0.00  0.00    -0.058 A 
HETATM   14  C   UNK N   1      28.304  28.708  -7.085  0.00  0.00     0.007 A 
HETATM   15  C   UNK N   1      29.078  28.639  -8.245  0.00  0.00     0.001 A 
HETATM   16  C   UNK N   1      28.798  27.671  -9.213  0.00  0.00     0.000 A 
HETATM   17  C   UNK N   1      27.746  26.771  -9.019  0.00  0.00     0.001 A 
HETATM   18  C   UNK N   1      26.971  26.841  -7.858  0.00  0.00     0.007 A 
ENDBRANCH  12  13
ENDBRANCH  11  12
ENDBRANCH   8  11
ENDBRANCH   7   8
ENDBRANCH   2   6
BRANCH   1  19
HETATM   19  C   UNK N   1      28.528  22.602  -6.856  0.00  0.00     0.034 C 
BRANCH  19  20
HETATM   20  C   UNK N   1      29.619  23.468  -7.411  0.00  0.00    -0.030 C 
HETATM   21  C   UNK N   1      29.971  24.638  -6.860  0.00  0.00    -0.031 C 
BRANCH  21  22
HETATM   22  C   UNK N   1      29.338  25.172  -5.611  0.00  0.00     0.027 C 
BRANCH  22  23
HETATM   23  C   UNK N   1      30.393  25.298  -4.527  0.00  0.00     0.013 C 
BRANCH  23  24
HETATM   24  C   UNK N   1      29.920  24.630  -3.246  0.00  0.00     0.103 C 
BRANCH  24  25
HETATM   25  C   UNK N   1      30.671  23.378  -2.890  0.00  0.00     0.217 C 
HETATM   26  O   UNK N   1      30.691  22.965  -1.740  0.00  0.00    -0.274 OA
HETATM   27  N   UNK N   1      31.337  22.721  -3.870  0.00  0.00    -0.361 N 
HETATM   28  H   UNK N   1      31.296  23.068  -4.791  0.00  0.00     0.162 HD
BRANCH  27  29
HETATM   29  C   UNK N   1      32.106  21.530  -3.610  0.00  0.00     0.118 C 
HETATM   30  C   UNK N   1      31.464  20.354  -4.317  0.00  0.00     0.026 C 
ENDBRANCH  27  29
ENDBRANCH  24  25
ENDBRANCH  23  24
ENDBRANCH  22  23
ENDBRANCH  21  22
ENDBRANCH  19  20
ENDBRANCH   1  19
BRANCH   4  31
HETATM   31  O   UNK N   1      24.122  21.275  -6.569  0.00  0.00    -0.395 OA
HETATM   32  H   UNK N   1      23.609  20.472  -6.752  0.00  0.00     0.210 HD
ENDBRANCH   4  31
BRANCH   3  33
HETATM   33  O   UNK N   1      27.994  21.177  -9.182  0.00  0.00    -0.395 OA
HETATM   34  H   UNK N   1      28.735  20.919  -8.610  0.00  0.00     0.210 HD
ENDBRANCH   3  33
TORSDOF 15
ENDMDL
MODEL 2
REMARK VINA RESULT:      -5.8      2.439      5.966
REMARK  15 active torsions:
REMARK  status: ('A' for Active; 'I' for Inactive)
REMARK    1  A    between atoms: C_8  and  O_1 
REMARK    2  A    between atoms: C_9  and  O_2 
REMARK    3  A    between atoms: C_15  and  O_3 
REMARK       I    between atoms: N_5  and  C_25 
REMARK    4  A    between atoms: N_5  and  C_29 
REMARK    5  A    between atoms: C_6  and  C_11 
REMARK    6  A    between atoms: C_7  and  C_12 
REMARK    7  A    between atoms: C_11  and  C_13 
REMARK    8  A    between atoms: C_14  and  C_15 
REMARK    9  A    between atoms: C_15  and  C_17 
REMARK   10  A    between atoms: C_16  and  C_18 
REMARK   11  A    between atoms: C_17  and  C_19 
REMARK   12  A    between atoms: C_18  and  C_20 
REMARK   13  A    between atoms: C_19  and  C_21 
REMARK   14  A    between atoms: C_20  and  C_22 
REMARK   15  A    between atoms: C_22  and  C_25 
ROOT
HETATM    1  C   UNK N   1      29.494  23.534  -3.673  0.00  0.00     0.028 C 
HETATM    2  C   UNK N   1      29.487  22.517  -4.800  0.00  0.00     0.043 C 
HETATM    3  C   UNK N   1      30.707  23.163  -2.807  0.00  0.00     0.125 C 
HETATM    4  C   UNK N   1      30.859  21.877  -4.765  0.00  0.00     0.128 C 
HETATM    5  C   UNK N   1      31.159  21.802  -3.287  0.00  0.00     0.064 C 
ENDROOT
BRANCH   2   6
HETATM    6  C   UNK N   1      29.218  23.221  -6.086  0.00  0.00    -0.021 C 
HETATM    7  C   UNK N   1      29.479  24.520  -6.227  0.00  0.00     0.001 C 
BRANCH   7   8
HETATM    8  C   UNK N   1      29.346  25.192  -7.562  0.00  0.00     0.141 C 
BRANCH   8   9
HETATM    9  O   UNK N   1      28.801  24.301  -8.485  0.00  0.00    -0.392 OA
HETATM   10  H   UNK N   1      28.382  23.461  -8.240  0.00  0.00     0.210 HD
ENDBRANCH   8   9
BRANCH   8  11
HETATM   11  C   UNK N   1      28.464  26.424  -7.499  0.00  0.00     0.040 C 
BRANCH  11  12
HETATM   12  C   UNK N   1      29.073  27.448  -6.554  0.00  0.00     0.041 C 
BRANCH  12  13
HETATM   13  C   UNK N   1      28.134  27.902  -5.478  0.00  0.00    -0.058 A 
HETATM   14  C   UNK N   1      28.576  28.180  -4.173  0.00  0.00     0.007 A 
HETATM   15  C   UNK N   1      27.669  28.584  -3.192  0.00  0.00     0.001 A 
HETATM   16  C   UNK N   1      26.313  28.711  -3.507  0.00  0.00     0.000 A 
HETATM   17  C   UNK N   1      25.867  28.437  -4.803  0.00  0.00     0.001 A 
HETATM   18  C   UNK N   1      26.776  28.032  -5.784  0.00  0.00     0.007 A 
ENDBRANCH  12  13
ENDBRANCH  11  12
ENDBRANCH   8  11
ENDBRANCH   7   8
ENDBRANCH   2   6
BRANCH   1  19
HETATM   19  C   UNK N   1      28.143  23.510  -2.961  0.00  0.00     0.034 C 
BRANCH  19  20
HETATM   20  C   UNK N   1      27.449  24.832  -3.107  0.00  0.00    -0.030 C 
HETATM   21  C   UNK N   1      26.412  25.021  -3.935  0.00  0.00    -0.031 C 
BRANCH  21  22
HETATM   22  C   UNK N   1      25.818  23.921  -4.760  0.00  0.00     0.027 C 
BRANCH  22  23
HETATM   23  C   UNK N   1      25.713  24.376  -6.204  0.00  0.00     0.013 C 
BRANCH  23  24
HETATM   24  C   UNK N   1      25.725  23.178  -7.140  0.00  0.00     0.103 C 
BRANCH  24  25
HETATM   25  C   UNK N   1      25.476  23.522  -8.582  0.00  0.00     0.217 C 
HETATM   26  O   UNK N   1      25.188  22.653  -9.392  0.00  0.00    -0.274 OA
HETATM   27  N   UNK N   1      25.589  24.815  -8.970  0.00  0.00    -0.361 N 
HETATM   28  H   UNK N   1      25.811  25.497  -8.295  0.00  0.00     0.162 HD
BRANCH  27  29
HETATM   29  C   UNK N   1      25.396  25.226 -10.337  0.00  0.00     0.118 C 
HETATM   30  C   UNK N   1      26.499  26.187 -10.733  0.00  0.00     0.026 C 
ENDBRANCH  27  29
ENDBRANCH  24  25
ENDBRANCH  23  24
ENDBRANCH  22  23
ENDBRANCH  21  22
ENDBRANCH  19  20
ENDBRANCH   1  19
BRANCH   4  31
HETATM   31  O   UNK N   1      30.826  20.600  -5.325  0.00  0.00    -0.395 OA
HETATM   32  H   UNK N   1      31.383  19.830  -5.132  0.00  0.00     0.210 HD
ENDBRANCH   4  31
BRANCH   3  33
HETATM   33  O   UNK N   1      30.440  23.160  -1.436  0.00  0.00    -0.395 OA
HETATM   34  H   UNK N   1      30.524  23.938  -0.861  0.00  0.00     0.210 HD
ENDBRANCH   3  33
TORSDOF 15
ENDMDL
MODEL 3
REMARK VINA RESULT:      -5.8     13.782     16.166
REMARK  15 active torsions:
REMARK  status: ('A' for Active; 'I' for Inactive)
REMARK    1  A    between atoms: C_8  and  O_1 
REMARK    2  A    between atoms: C_9  and  O_2 
REMARK    3  A    between atoms: C_15  and  O_3 
REMARK       I    between atoms: N_5  and  C_25 
REMARK    4  A    between atoms: N_5  and  C_29 
REMARK    5  A    between atoms: C_6  and  C_11 
REMARK    6  A    between atoms: C_7  and  C_12 
REMARK    7  A    between atoms: C_11  and  C_13 
REMARK    8  A    between atoms: C_14  and  C_15 
REMARK    9  A    between atoms: C_15  and  C_17 
REMARK   10  A    between atoms: C_16  and  C_18 
REMARK   11  A    between atoms: C_17  and  C_19 
REMARK   12  A    between atoms: C_18  and  C_20 
REMARK   13  A    between atoms: C_19  and  C_21 
REMARK   14  A    between atoms: C_20  and  C_22 
REMARK   15  A    between atoms: C_22  and  C_25 
ROOT
HETATM    1  C   UNK N   1      21.477  17.744   3.591  0.00  0.00     0.028 C 
HETATM    2  C   UNK N   1      22.090  19.128   3.712  0.00  0.00     0.043 C 
HETATM    3  C   UNK N   1      20.127  17.964   2.893  0.00  0.00     0.125 C 
HETATM    4  C   UNK N   1      21.290  19.999   2.767  0.00  0.00     0.128 C 
HETATM    5  C   UNK N   1      19.889  19.458   2.912  0.00  0.00     0.064 C 
ENDROOT
BRANCH   2   6
HETATM    6  C   UNK N   1      23.532  19.052   3.338  0.00  0.00    -0.021 C 
HETATM    7  C   UNK N   1      24.488  19.196   4.254  0.00  0.00     0.001 C 
BRANCH   7   8
HETATM    8  C   UNK N   1      25.930  18.973   3.903  0.00  0.00     0.141 C 
BRANCH   8   9
HETATM    9  O   UNK N   1      26.744  19.696   4.772  0.00  0.00    -0.392 OA
HETATM   10  H   UNK N   1      27.210  20.509   4.524  0.00  0.00     0.210 HD
ENDBRANCH   8   9
BRANCH   8  11
HETATM   11  C   UNK N   1      26.320  17.509   3.979  0.00  0.00     0.040 C 
BRANCH  11  12
HETATM   12  C   UNK N   1      25.978  16.954   5.352  0.00  0.00     0.041 C 
BRANCH  12  13
HETATM   13  C   UNK N   1      24.952  15.863   5.318  0.00  0.00    -0.058 A 
HETATM   14  C   UNK N   1      24.382  15.340   6.493  0.00  0.00     0.007 A 
HETATM   15  C   UNK N   1      23.441  14.312   6.422  0.00  0.00     0.001 A 
HETATM   16  C   UNK N   1      23.064  13.796   5.180  0.00  0.00     0.000 A 
HETATM   17  C   UNK N   1      23.626  14.311   4.008  0.00  0.00     0.001 A 
HETATM   18  C   UNK N   1      24.568  15.341   4.079  0.00  0.00     0.007 A 
ENDBRANCH  12  13
ENDBRANCH  11  12
ENDBRANCH   8  11
ENDBRANCH   7   8
ENDBRANCH   2   6
BRANCH   1  19
HETATM   19  C   UNK N   1      21.407  17.099   4.974  0.00  0.00     0.034 C 
BRANCH  19  20
HETATM   20  C   UNK N   1      21.440  18.147   6.046  0.00  0.00    -0.030 C 
HETATM   21  C   UNK N   1      20.781  18.024   7.206  0.00  0.00    -0.031 C 
BRANCH  21  22
HETATM   22  C   UNK N   1      19.984  16.807   7.563  0.00  0.00     0.027 C 
BRANCH  22  23
HETATM   23  C   UNK N   1      20.826  15.893   8.435  0.00  0.00     0.013 C 
BRANCH  23  24
HETATM   24  C   UNK N   1      19.936  14.964   9.246  0.00  0.00     0.103 C 
BRANCH  24  25
HETATM   25  C   UNK N   1      20.668  13.829   9.904  0.00  0.00     0.217 C 
HETATM   26  O   UNK N   1      20.061  12.965  10.520  0.00  0.00    -0.274 OA
HETATM   27  N   UNK N   1      22.019  13.787   9.811  0.00  0.00    -0.361 N 
HETATM   28  H   UNK N   1      22.484  14.490   9.299  0.00  0.00     0.162 HD
BRANCH  27  29
HETATM   29  C   UNK N   1      22.801  12.751  10.437  0.00  0.00     0.118 C 
HETATM   30  C   UNK N   1      23.152  11.697   9.407  0.00  0.00     0.026 C 
ENDBRANCH  27  29
ENDBRANCH  24  25
ENDBRANCH  23  24
ENDBRANCH  22  23
ENDBRANCH  21  22
ENDBRANCH  19  20
ENDBRANCH   1  19
BRANCH   4  31
HETATM   31  O   UNK N   1      21.344  21.336   3.159  0.00  0.00    -0.395 OA
HETATM   32  H   UNK N   1      22.050  21.813   3.623  0.00  0.00     0.210 HD
ENDBRANCH   4  31
BRANCH   3  33
HETATM   33  O   UNK N   1      19.068  17.269   3.482  0.00  0.00    -0.395 OA
HETATM   34  H   UNK N   1      19.174  16.479   4.036  0.00  0.00     0.210 HD
ENDBRANCH   3  33
TORSDOF 15
ENDMDL
MODEL 4
REMARK VINA RESULT:      -5.7      1.512      2.763
REMARK  15 active torsions:
REMARK  status: ('A' for Active; 'I' for Inactive)
REMARK    1  A    between atoms: C_8  and  O_1 
REMARK    2  A    between atoms: C_9  and  O_2 
REMARK    3  A    between atoms: C_15  and  O_3 
REMARK       I    between atoms: N_5  and  C_25 
REMARK    4  A    between atoms: N_5  and  C_29 
REMARK    5  A    between atoms: C_6  and  C_11 
REMARK    6  A    between atoms: C_7  and  C_12 
REMARK    7  A    between atoms: C_11  and  C_13 
REMARK    8  A    between atoms: C_14  and  C_15 
REMARK    9  A    between atoms: C_15  and  C_17 
REMARK   10  A    between atoms: C_16  and  C_18 
REMARK   11  A    between atoms: C_17  and  C_19 
REMARK   12  A    between atoms: C_18  and  C_20 
REMARK   13  A    between atoms: C_19  and  C_21 
REMARK   14  A    between atoms: C_20  and  C_22 
REMARK   15  A    between atoms: C_22  and  C_25 
ROOT
HETATM    1  C   UNK N   1      27.557  23.708  -7.788  0.00  0.00     0.028 C 
HETATM    2  C   UNK N   1      26.403  22.848  -7.302  0.00  0.00     0.043 C 
HETATM    3  C   UNK N   1      27.171  24.127  -9.214  0.00  0.00     0.125 C 
HETATM    4  C   UNK N   1      25.272  23.121  -8.270  0.00  0.00     0.128 C 
HETATM    5  C   UNK N   1      25.986  23.267  -9.592  0.00  0.00     0.064 C 
ENDROOT
BRANCH   2   6
HETATM    6  C   UNK N   1      26.065  23.238  -5.903  0.00  0.00    -0.021 C 
HETATM    7  C   UNK N   1      26.386  24.441  -5.427  0.00  0.00     0.001 C 
BRANCH   7   8
HETATM    8  C   UNK N   1      25.915  24.882  -4.072  0.00  0.00     0.141 C 
BRANCH   8   9
HETATM    9  O   UNK N   1      26.537  24.119  -3.086  0.00  0.00    -0.392 OA
HETATM   10  H   UNK N   1      27.426  24.302  -2.743  0.00  0.00     0.210 HD
ENDBRANCH   8   9
BRANCH   8  11
HETATM   11  C   UNK N   1      26.212  26.346  -3.810  0.00  0.00     0.040 C 
BRANCH  11  12
HETATM   12  C   UNK N   1      25.648  27.198  -4.936  0.00  0.00     0.041 C 
BRANCH  12  13
HETATM   13  C   UNK N   1      26.685  28.007  -5.653  0.00  0.00    -0.058 A 
HETATM   14  C   UNK N   1      27.203  27.617  -6.900  0.00  0.00     0.007 A 
HETATM   15  C   UNK N   1      28.181  28.389  -7.530  0.00  0.00     0.001 A 
HETATM   16  C   UNK N   1      28.652  29.553  -6.917  0.00  0.00     0.000 A 
HETATM   17  C   UNK N   1      28.141  29.947  -5.677  0.00  0.00     0.001 A 
HETATM   18  C   UNK N   1      27.161  29.175  -5.048  0.00  0.00     0.007 A 
ENDBRANCH  12  13
ENDBRANCH  11  12
ENDBRANCH   8  11
ENDBRANCH   7   8
ENDBRANCH   2   6
BRANCH   1  19
HETATM   19  C   UNK N   1      28.862  22.924  -7.660  0.00  0.00     0.034 C 
BRANCH  19  20
HETATM   20  C   UNK N   1      28.580  21.467  -7.443  0.00  0.00    -0.030 C 
HETATM   21  C   UNK N   1      29.467  20.629  -6.889  0.00  0.00    -0.031 C 
BRANCH  21  22
HETATM   22  C   UNK N   1      30.809  21.075  -6.394  0.00  0.00     0.027 C 
BRANCH  22  23
HETATM   23  C   UNK N   1      31.014  20.571  -4.977  0.00  0.00     0.013 C 
BRANCH  23  24
HETATM   24  C   UNK N   1      30.159  21.364  -4.002  0.00  0.00     0.103 C 
BRANCH  24  25
HETATM   25  C   UNK N   1      30.558  22.807  -3.867  0.00  0.00     0.217 C 
HETATM   26  O   UNK N   1      31.727  23.121  -3.699  0.00  0.00    -0.274 OA
HETATM   27  N   UNK N   1      29.592  23.756  -3.924  0.00  0.00    -0.361 N 
HETATM   28  H   UNK N   1      28.658  23.477  -4.072  0.00  0.00     0.162 HD
BRANCH  27  29
HETATM   29  C   UNK N   1      29.884  25.159  -3.775  0.00  0.00     0.118 C 
HETATM   30  C   UNK N   1      29.777  25.840  -5.123  0.00  0.00     0.026 C 
ENDBRANCH  27  29
ENDBRANCH  24  25
ENDBRANCH  23  24
ENDBRANCH  22  23
ENDBRANCH  21  22
ENDBRANCH  19  20
ENDBRANCH   1  19
BRANCH   4  31
HETATM   31  O   UNK N   1      24.382  22.047  -8.308  0.00  0.00    -0.395 OA
HETATM   32  H   UNK N   1      24.483  21.181  -8.733  0.00  0.00     0.210 HD
ENDBRANCH   4  31
BRANCH   3  33
HETATM   33  O   UNK N   1      28.211  24.002 -10.138  0.00  0.00    -0.395 OA
HETATM   34  H   UNK N   1      28.110  23.625 -11.027  0.00  0.00     0.210 HD
ENDBRANCH   3  33
TORSDOF 15
ENDMDL
MODEL 5
REMARK VINA RESULT:      -5.7      2.610      6.334
REMARK  15 active torsions:
REMARK  status: ('A' for Active; 'I' for Inactive)
REMARK    1  A    between atoms: C_8  and  O_1 
REMARK    2  A    between atoms: C_9  and  O_2 
REMARK    3  A    between atoms: C_15  and  O_3 
REMARK       I    between atoms: N_5  and  C_25 
REMARK    4  A    between atoms: N_5  and  C_29 
REMARK    5  A    between atoms: C_6  and  C_11 
REMARK    6  A    between atoms: C_7  and  C_12 
REMARK    7  A    between atoms: C_11  and  C_13 
REMARK    8  A    between atoms: C_14  and  C_15 
REMARK    9  A    between atoms: C_15  and  C_17 
REMARK   10  A    between atoms: C_16  and  C_18 
REMARK   11  A    between atoms: C_17  and  C_19 
REMARK   12  A    between atoms: C_18  and  C_20 
REMARK   13  A    between atoms: C_19  and  C_21 
REMARK   14  A    between atoms: C_20  and  C_22 
REMARK   15  A    between atoms: C_22  and  C_25 
ROOT
HETATM    1  C   UNK N   1      26.280  23.725  -6.461  0.00  0.00     0.028 C 
HETATM    2  C   UNK N   1      27.785  23.634  -6.641  0.00  0.00     0.043 C 
HETATM    3  C   UNK N   1      25.719  22.466  -7.137  0.00  0.00     0.125 C 
HETATM    4  C   UNK N   1      28.049  22.198  -7.042  0.00  0.00     0.128 C 
HETATM    5  C   UNK N   1      26.867  21.870  -7.921  0.00  0.00     0.064 C 
ENDROOT
BRANCH   2   6
HETATM    6  C   UNK N   1      28.449  24.000  -5.357  0.00  0.00    -0.021 C 
HETATM    7  C   UNK N   1      27.831  23.827  -4.189  0.00  0.00     0.001 C 
BRANCH   7   8
HETATM    8  C   UNK N   1      28.554  24.057  -2.894  0.00  0.00     0.141 C 
BRANCH   8   9
HETATM    9  O   UNK N   1      28.118  23.139  -1.942  0.00  0.00    -0.392 OA
HETATM   10  H   UNK N   1      27.829  22.238  -2.154  0.00  0.00     0.210 HD
ENDBRANCH   8   9
BRANCH   8  11
HETATM   11  C   UNK N   1      30.057  23.923  -3.045  0.00  0.00     0.040 C 
BRANCH  11  12
HETATM   12  C   UNK N   1      30.543  22.689  -2.302  0.00  0.00     0.041 C 
BRANCH  12  13
HETATM   13  C   UNK N   1      31.306  21.731  -3.166  0.00  0.00    -0.058 A 
HETATM   14  C   UNK N   1      32.662  21.441  -2.938  0.00  0.00     0.007 A 
HETATM   15  C   UNK N   1      33.344  20.556  -3.775  0.00  0.00     0.001 A 
HETATM   16  C   UNK N   1      32.677  19.957  -4.847  0.00  0.00     0.000 A 
HETATM   17  C   UNK N   1      31.328  20.241  -5.079  0.00  0.00     0.001 A 
HETATM   18  C   UNK N   1      30.646  21.127  -4.241  0.00  0.00     0.007 A 
ENDBRANCH  12  13
ENDBRANCH  11  12
ENDBRANCH   8  11
ENDBRANCH   7   8
ENDBRANCH   2   6
BRANCH   1  19
HETATM   19  C   UNK N   1      25.783  25.055  -7.026  0.00  0.00     0.034 C 
BRANCH  19  20
HETATM   20  C   UNK N   1      25.201  25.905  -5.936  0.00  0.00    -0.030 C 
HETATM   21  C   UNK N   1      25.671  27.123  -5.633  0.00  0.00    -0.031 C 
BRANCH  21  22
HETATM   22  C   UNK N   1      26.794  27.771  -6.384  0.00  0.00     0.027 C 
BRANCH  22  23
HETATM   23  C   UNK N   1      27.804  28.327  -5.397  0.00  0.00     0.013 C 
BRANCH  23  24
HETATM   24  C   UNK N   1      27.257  29.576  -4.723  0.00  0.00     0.103 C 
BRANCH  24  25
HETATM   25  C   UNK N   1      27.298  29.533  -3.222  0.00  0.00     0.217 C 
HETATM   26  O   UNK N   1      26.706  28.661  -2.604  0.00  0.00    -0.274 OA
HETATM   27  N   UNK N   1      27.997  30.490  -2.564  0.00  0.00    -0.361 N 
HETATM   28  H   UNK N   1      28.475  31.175  -3.086  0.00  0.00     0.162 HD
BRANCH  27  29
HETATM   29  C   UNK N   1      28.064  30.539  -1.125  0.00  0.00     0.118 C 
HETATM   30  C   UNK N   1      29.427  30.060  -0.669  0.00  0.00     0.026 C 
ENDBRANCH  27  29
ENDBRANCH  24  25
ENDBRANCH  23  24
ENDBRANCH  22  23
ENDBRANCH  21  22
ENDBRANCH  19  20
ENDBRANCH   1  19
BRANCH   4  31
HETATM   31  O   UNK N   1      29.239  22.094  -7.760  0.00  0.00    -0.395 OA
HETATM   32  H   UNK N   1      29.835  21.334  -7.856  0.00  0.00     0.210 HD
ENDBRANCH   4  31
BRANCH   3  33
HETATM   33  O   UNK N   1      24.613  22.711  -7.954  0.00  0.00    -0.395 OA
HETATM   34  H   UNK N   1      24.430  23.560  -8.386  0.00  0.00     0.210 HD
ENDBRANCH   3  33
TORSDOF 15
ENDMDL
MODEL 6
REMARK VINA RESULT:      -5.7     13.281     15.558
REMARK  15 active torsions:
REMARK  status: ('A' for Active; 'I' for Inactive)
REMARK    1  A    between atoms: C_8  and  O_1 
REMARK    2  A    between atoms: C_9  and  O_2 
REMARK    3  A    between atoms: C_15  and  O_3 
REMARK       I    between atoms: N_5  and  C_25 
REMARK    4  A    between atoms: N_5  and  C_29 
REMARK    5  A    between atoms: C_6  and  C_11 
REMARK    6  A    between atoms: C_7  and  C_12 
REMARK    7  A    between atoms: C_11  and  C_13 
REMARK    8  A    between atoms: C_14  and  C_15 
REMARK    9  A    between atoms: C_15  and  C_17 
REMARK   10  A    between atoms: C_16  and  C_18 
REMARK   11  A    between atoms: C_17  and  C_19 
REMARK   12  A    between atoms: C_18  and  C_20 
REMARK   13  A    between atoms: C_19  and  C_21 
REMARK   14  A    between atoms: C_20  and  C_22 
REMARK   15  A    between atoms: C_22  and  C_25 
ROOT
HETATM    1  C   UNK N   1      20.886  17.850   3.225  0.00  0.00     0.028 C 
HETATM    2  C   UNK N   1      21.642  19.055   3.757  0.00  0.00     0.043 C 
HETATM    3  C   UNK N   1      20.321  18.299   1.870  0.00  0.00     0.125 C 
HETATM    4  C   UNK N   1      21.812  19.974   2.566  0.00  0.00     0.128 C 
HETATM    5  C   UNK N   1      20.513  19.799   1.816  0.00  0.00     0.064 C 
ENDROOT
BRANCH   2   6
HETATM    6  C   UNK N   1      22.947  18.599   4.318  0.00  0.00    -0.021 C 
HETATM    7  C   UNK N   1      23.501  17.452   3.925  0.00  0.00     0.001 C 
BRANCH   7   8
HETATM    8  C   UNK N   1      24.879  17.069   4.379  0.00  0.00     0.141 C 
BRANCH   8   9
HETATM    9  O   UNK N   1      24.896  15.725   4.746  0.00  0.00    -0.392 OA
HETATM   10  H   UNK N   1      25.339  15.032   4.233  0.00  0.00     0.210 HD
ENDBRANCH   8   9
BRANCH   8  11
HETATM   11  C   UNK N   1      25.921  17.290   3.299  0.00  0.00     0.040 C 
BRANCH  11  12
HETATM   12  C   UNK N   1      27.287  17.497   3.934  0.00  0.00     0.041 C 
BRANCH  12  13
HETATM   13  C   UNK N   1      27.354  18.693   4.834  0.00  0.00    -0.058 A 
HETATM   14  C   UNK N   1      27.758  18.592   6.177  0.00  0.00     0.007 A 
HETATM   15  C   UNK N   1      27.792  19.727   6.990  0.00  0.00     0.001 A 
HETATM   16  C   UNK N   1      27.419  20.969   6.469  0.00  0.00     0.000 A 
HETATM   17  C   UNK N   1      27.017  21.076   5.134  0.00  0.00     0.001 A 
HETATM   18  C   UNK N   1      26.984  19.940   4.321  0.00  0.00     0.007 A 
ENDBRANCH  12  13
ENDBRANCH  11  12
ENDBRANCH   8  11
ENDBRANCH   7   8
ENDBRANCH   2   6
BRANCH   1  19
HETATM   19  C   UNK N   1      19.851  17.406   4.257  0.00  0.00     0.034 C 
BRANCH  19  20
HETATM   20  C   UNK N   1      20.169  16.029   4.760  0.00  0.00    -0.030 C 
HETATM   21  C   UNK N   1      20.302  15.743   6.063  0.00  0.00    -0.031 C 
BRANCH  21  22
HETATM   22  C   UNK N   1      20.102  16.760   7.144  0.00  0.00     0.027 C 
BRANCH  22  23
HETATM   23  C   UNK N   1      19.871  16.051   8.465  0.00  0.00     0.013 C 
BRANCH  23  24
HETATM   24  C   UNK N   1      21.155  15.394   8.946  0.00  0.00     0.103 C 
BRANCH  24  25
HETATM   25  C   UNK N   1      20.947  14.092   9.667  0.00  0.00     0.217 C 
HETATM   26  O   UNK N   1      19.834  13.759  10.049  0.00  0.00    -0.274 OA
HETATM   27  N   UNK N   1      22.020  13.298   9.897  0.00  0.00    -0.361 N 
HETATM   28  H   UNK N   1      22.904  13.584   9.570  0.00  0.00     0.162 HD
BRANCH  27  29
HETATM   29  C   UNK N   1      21.913  12.048  10.607  0.00  0.00     0.118 C 
HETATM   30  C   UNK N   1      22.877  12.051  11.776  0.00  0.00     0.026 C 
ENDBRANCH  27  29
ENDBRANCH  24  25
ENDBRANCH  23  24
ENDBRANCH  22  23
ENDBRANCH  21  22
ENDBRANCH  19  20
ENDBRANCH   1  19
BRANCH   4  31
HETATM   31  O   UNK N   1      21.967  21.297   2.977  0.00  0.00    -0.395 OA
HETATM   32  H   UNK N   1      22.352  22.048   2.499  0.00  0.00     0.210 HD
ENDBRANCH   4  31
BRANCH   3  33
HETATM   33  O   UNK N   1      18.984  17.947   1.672  0.00  0.00    -0.395 OA
HETATM   34  H   UNK N   1      18.689  17.214   1.108  0.00  0.00     0.210 HD
ENDBRANCH   3  33
TORSDOF 15
ENDMDL
MODEL 7
REMARK VINA RESULT:      -5.7     13.055     15.459
REMARK  15 active torsions:
REMARK  status: ('A' for Active; 'I' for Inactive)
REMARK    1  A    between atoms: C_8  and  O_1 
REMARK    2  A    between atoms: C_9  and  O_2 
REMARK    3  A    between atoms: C_15  and  O_3 
REMARK       I    between atoms: N_5  and  C_25 
REMARK    4  A    between atoms: N_5  and  C_29 
REMARK    5  A    between atoms: C_6  and  C_11 
REMARK    6  A    between atoms: C_7  and  C_12 
REMARK    7  A    between atoms: C_11  and  C_13 
REMARK    8  A    between atoms: C_14  and  C_15 
REMARK    9  A    between atoms: C_15  and  C_17 
REMARK   10  A    between atoms: C_16  and  C_18 
REMARK   11  A    between atoms: C_17  and  C_19 
REMARK   12  A    between atoms: C_18  and  C_20 
REMARK   13  A    between atoms: C_19  and  C_21 
REMARK   14  A    between atoms: C_20  and  C_22 
REMARK   15  A    between atoms: C_22  and  C_25 
ROOT
HETATM    1  C   UNK N   1      21.413  18.163   3.525  0.00  0.00     0.028 C 
HETATM    2  C   UNK N   1      21.995  19.563   3.620  0.00  0.00     0.043 C 
HETATM    3  C   UNK N   1      20.263  18.275   2.514  0.00  0.00     0.125 C 
HETATM    4  C   UNK N   1      21.443  20.302   2.420  0.00  0.00     0.128 C 
HETATM    5  C   UNK N   1      20.041  19.756   2.301  0.00  0.00     0.064 C 
ENDROOT
BRANCH   2   6
HETATM    6  C   UNK N   1      23.483  19.470   3.600  0.00  0.00    -0.021 C 
HETATM    7  C   UNK N   1      24.207  20.210   2.761  0.00  0.00     0.001 C 
BRANCH   7   8
HETATM    8  C   UNK N   1      25.706  20.223   2.845  0.00  0.00     0.141 C 
BRANCH   8   9
HETATM    9  O   UNK N   1      26.201  21.373   2.234  0.00  0.00    -0.392 OA
HETATM   10  H   UNK N   1      25.642  22.103   1.925  0.00  0.00     0.210 HD
ENDBRANCH   8   9
BRANCH   8  11
HETATM   11  C   UNK N   1      26.201  20.185   4.278  0.00  0.00     0.040 C 
BRANCH  11  12
HETATM   12  C   UNK N   1      27.694  19.899   4.303  0.00  0.00     0.041 C 
BRANCH  12  13
HETATM   13  C   UNK N   1      28.138  19.133   5.511  0.00  0.00    -0.058 A 
HETATM   14  C   UNK N   1      28.910  17.963   5.409  0.00  0.00     0.007 A 
HETATM   15  C   UNK N   1      29.291  17.266   6.557  0.00  0.00     0.001 A 
HETATM   16  C   UNK N   1      28.900  17.732   7.816  0.00  0.00     0.000 A 
HETATM   17  C   UNK N   1      28.132  18.895   7.925  0.00  0.00     0.001 A 
HETATM   18  C   UNK N   1      27.752  19.592   6.775  0.00  0.00     0.007 A 
ENDBRANCH  12  13
ENDBRANCH  11  12
ENDBRANCH   8  11
ENDBRANCH   7   8
ENDBRANCH   2   6
BRANCH   1  19
HETATM   19  C   UNK N   1      21.019  17.683   4.922  0.00  0.00     0.034 C 
BRANCH  19  20
HETATM   20  C   UNK N   1      22.101  16.824   5.506  0.00  0.00    -0.030 C 
HETATM   21  C   UNK N   1      21.982  16.210   6.692  0.00  0.00    -0.031 C 
BRANCH  21  22
HETATM   22  C   UNK N   1      20.741  16.287   7.526  0.00  0.00     0.027 C 
BRANCH  22  23
HETATM   23  C   UNK N   1      20.376  14.897   8.015  0.00  0.00     0.013 C 
BRANCH  23  24
HETATM   24  C   UNK N   1      20.937  14.661   9.409  0.00  0.00     0.103 C 
BRANCH  24  25
HETATM   25  C   UNK N   1      21.607  13.327   9.583  0.00  0.00     0.217 C 
HETATM   26  O   UNK N   1      21.316  12.381   8.866  0.00  0.00    -0.274 OA
HETATM   27  N   UNK N   1      22.534  13.190  10.562  0.00  0.00    -0.361 N 
HETATM   28  H   UNK N   1      22.759  13.971  11.119  0.00  0.00     0.162 HD
BRANCH  27  29
HETATM   29  C   UNK N   1      23.203  11.939  10.816  0.00  0.00     0.118 C 
HETATM   30  C   UNK N   1      24.694  12.116  10.614  0.00  0.00     0.026 C 
ENDBRANCH  27  29
ENDBRANCH  24  25
ENDBRANCH  23  24
ENDBRANCH  22  23
ENDBRANCH  21  22
ENDBRANCH  19  20
ENDBRANCH   1  19
BRANCH   4  31
HETATM   31  O   UNK N   1      21.417  21.677   2.653  0.00  0.00    -0.395 OA
HETATM   32  H   UNK N   1      22.088  22.348   2.450  0.00  0.00     0.210 HD
ENDBRANCH   4  31
BRANCH   3  33
HETATM   33  O   UNK N   1      19.090  17.635   2.921  0.00  0.00    -0.395 OA
HETATM   34  H   UNK N   1      18.239  17.711   2.462  0.00  0.00     0.210 HD
ENDBRANCH   3  33
TORSDOF 15
ENDMDL
MODEL 8
REMARK VINA RESULT:      -5.7     12.044     14.989
REMARK  15 active torsions:
REMARK  status: ('A' for Active; 'I' for Inactive)
REMARK    1  A    between atoms: C_8  and  O_1 
REMARK    2  A    between atoms: C_9  and  O_2 
REMARK    3  A    between atoms: C_15  and  O_3 
REMARK       I    between atoms: N_5  and  C_25 
REMARK    4  A    between atoms: N_5  and  C_29 
REMARK    5  A    between atoms: C_6  and  C_11 
REMARK    6  A    between atoms: C_7  and  C_12 
REMARK    7  A    between atoms: C_11  and  C_13 
REMARK    8  A    between atoms: C_14  and  C_15 
REMARK    9  A    between atoms: C_15  and  C_17 
REMARK   10  A    between atoms: C_16  and  C_18 
REMARK   11  A    between atoms: C_17  and  C_19 
REMARK   12  A    between atoms: C_18  and  C_20 
REMARK   13  A    between atoms: C_19  and  C_21 
REMARK   14  A    between atoms: C_20  and  C_22 
REMARK   15  A    between atoms: C_22  and  C_25 
ROOT
HETATM    1  C   UNK N   1      28.094  18.669   4.896  0.00  0.00     0.028 C 
HETATM    2  C   UNK N   1      27.881  18.525   6.393  0.00  0.00     0.043 C 
HETATM    3  C   UNK N   1      27.616  20.089   4.559  0.00  0.00     0.125 C 
HETATM    4  C   UNK N   1      27.674  19.936   6.900  0.00  0.00     0.128 C 
HETATM    5  C   UNK N   1      26.887  20.584   5.788  0.00  0.00     0.064 C 
ENDROOT
BRANCH   2   6
HETATM    6  C   UNK N   1      29.081  17.871   6.991  0.00  0.00    -0.021 C 
HETATM    7  C   UNK N   1      29.691  18.395   8.054  0.00  0.00     0.001 C 
BRANCH   7   8
HETATM    8  C   UNK N   1      30.804  17.659   8.741  0.00  0.00     0.141 C 
BRANCH   8   9
HETATM    9  O   UNK N   1      30.306  16.985   9.854  0.00  0.00    -0.392 OA
HETATM   10  H   UNK N   1      29.398  17.081  10.181  0.00  0.00     0.210 HD
ENDBRANCH   8   9
BRANCH   8  11
HETATM   11  C   UNK N   1      31.478  16.655   7.827  0.00  0.00     0.040 C 
BRANCH  11  12
HETATM   12  C   UNK N   1      32.667  17.302   7.135  0.00  0.00     0.041 C 
BRANCH  12  13
HETATM   13  C   UNK N   1      32.807  16.913   5.695  0.00  0.00    -0.058 A 
HETATM   14  C   UNK N   1      33.735  15.945   5.272  0.00  0.00     0.007 A 
HETATM   15  C   UNK N   1      33.848  15.621   3.919  0.00  0.00     0.001 A 
HETATM   16  C   UNK N   1      33.037  16.262   2.979  0.00  0.00     0.000 A 
HETATM   17  C   UNK N   1      32.112  17.224   3.393  0.00  0.00     0.001 A 
HETATM   18  C   UNK N   1      31.999  17.548   4.747  0.00  0.00     0.007 A 
ENDBRANCH  12  13
ENDBRANCH  11  12
ENDBRANCH   8  11
ENDBRANCH   7   8
ENDBRANCH   2   6
BRANCH   1  19
HETATM   19  C   UNK N   1      27.366  17.538   4.170  0.00  0.00     0.034 C 
BRANCH  19  20
HETATM   20  C   UNK N   1      28.306  16.811   3.256  0.00  0.00    -0.030 C 
HETATM   21  C   UNK N   1      28.925  15.674   3.603  0.00  0.00    -0.031 C 
BRANCH  21  22
HETATM   22  C   UNK N   1      28.704  14.997   4.921  0.00  0.00     0.027 C 
BRANCH  22  23
HETATM   23  C   UNK N   1      30.008  14.386   5.398  0.00  0.00     0.013 C 
BRANCH  23  24
HETATM   24  C   UNK N   1      30.697  13.649   4.260  0.00  0.00     0.103 C 
BRANCH  24  25
HETATM   25  C   UNK N   1      31.798  12.726   4.701  0.00  0.00     0.217 C 
HETATM   26  O   UNK N   1      32.023  12.544   5.889  0.00  0.00    -0.274 OA
HETATM   27  N   UNK N   1      32.545  12.107   3.756  0.00  0.00    -0.361 N 
HETATM   28  H   UNK N   1      32.336  12.263   2.806  0.00  0.00     0.162 HD
BRANCH  27  29
HETATM   29  C   UNK N   1      33.638  11.231   4.093  0.00  0.00     0.118 C 
HETATM   30  C   UNK N   1      34.943  11.993   3.989  0.00  0.00     0.026 C 
ENDBRANCH  27  29
ENDBRANCH  24  25
ENDBRANCH  23  24
ENDBRANCH  22  23
ENDBRANCH  21  22
ENDBRANCH  19  20
ENDBRANCH   1  19
BRANCH   4  31
HETATM   31  O   UNK N   1      26.939  19.934   8.086  0.00  0.00    -0.395 OA
HETATM   32  H   UNK N   1      26.031  19.634   8.245  0.00  0.00     0.210 HD
ENDBRANCH   4  31
BRANCH   3  33
HETATM   33  O   UNK N   1      26.809  20.156   3.421  0.00  0.00    -0.395 OA
HETATM   34  H   UNK N   1      26.950  19.629   2.618  0.00  0.00     0.210 HD
ENDBRANCH   3  33
TORSDOF 15
ENDMDL
MODEL 9
REMARK VINA RESULT:      -5.7     17.761     22.878
REMARK  15 active torsions:
REMARK  status: ('A' for Active; 'I' for Inactive)
REMARK    1  A    between atoms: C_8  and  O_1 
REMARK    2  A    between atoms: C_9  and  O_2 
REMARK    3  A    between atoms: C_15  and  O_3 
REMARK       I    between atoms: N_5  and  C_25 
REMARK    4  A    between atoms: N_5  and  C_29 
REMARK    5  A    between atoms: C_6  and  C_11 
REMARK    6  A    between atoms: C_7  and  C_12 
REMARK    7  A    between atoms: C_11  and  C_13 
REMARK    8  A    between atoms: C_14  and  C_15 
REMARK    9  A    between atoms: C_15  and  C_17 
REMARK   10  A    between atoms: C_16  and  C_18 
REMARK   11  A    between atoms: C_17  and  C_19 
REMARK   12  A    between atoms: C_18  and  C_20 
REMARK   13  A    between atoms: C_19  and  C_21 
REMARK   14  A    between atoms: C_20  and  C_22 
REMARK   15  A    between atoms: C_22  and  C_25 
ROOT
HETATM    1  C   UNK N   1      35.254  13.226  11.391  0.00  0.00     0.028 C 
HETATM    2  C   UNK N   1      36.649  13.465  11.940  0.00  0.00     0.043 C 
HETATM    3  C   UNK N   1      35.471  12.588  10.011  0.00  0.00     0.125 C 
HETATM    4  C   UNK N   1      37.565  12.630  11.071  0.00  0.00     0.128 C 
HETATM    5  C   UNK N   1      36.942  12.758   9.702  0.00  0.00     0.064 C 
ENDROOT
BRANCH   2   6
HETATM    6  C   UNK N   1      36.683  13.049  13.372  0.00  0.00    -0.021 C 
HETATM    7  C   UNK N   1      36.276  13.872  14.337  0.00  0.00     0.001 C 
BRANCH   7   8
HETATM    8  C   UNK N   1      36.172  13.400  15.758  0.00  0.00     0.141 C 
BRANCH   8   9
HETATM    9  O   UNK N   1      36.472  14.448  16.625  0.00  0.00    -0.392 OA
HETATM   10  H   UNK N   1      36.576  14.342  17.584  0.00  0.00     0.210 HD
ENDBRANCH   8   9
BRANCH   8  11
HETATM   11  C   UNK N   1      34.788  12.877  16.090  0.00  0.00     0.040 C 
BRANCH  11  12
HETATM   12  C   UNK N   1      34.831  11.367  16.257  0.00  0.00     0.041 C 
BRANCH  12  13
HETATM   13  C   UNK N   1      34.791  10.619  14.959  0.00  0.00    -0.058 A 
HETATM   14  C   UNK N   1      33.813  10.876  13.982  0.00  0.00     0.007 A 
HETATM   15  C   UNK N   1      33.797  10.148  12.791  0.00  0.00     0.001 A 
HETATM   16  C   UNK N   1      34.756   9.156  12.569  0.00  0.00     0.000 A 
HETATM   17  C   UNK N   1      35.732   8.896  13.536  0.00  0.00     0.001 A 
HETATM   18  C   UNK N   1      35.747   9.625  14.727  0.00  0.00     0.007 A 
ENDBRANCH  12  13
ENDBRANCH  11  12
ENDBRANCH   8  11
ENDBRANCH   7   8
ENDBRANCH   2   6
BRANCH   1  19
HETATM   19  C   UNK N   1      34.476  14.541  11.394  0.00  0.00     0.034 C 
BRANCH  19  20
HETATM   20  C   UNK N   1      35.416  15.708  11.351  0.00  0.00    -0.030 C 
HETATM   21  C   UNK N   1      35.431  16.594  10.346  0.00  0.00    -0.031 C 
BRANCH  21  22
HETATM   22  C   UNK N   1      34.480  16.530   9.191  0.00  0.00     0.027 C 
BRANCH  22  23
HETATM   23  C   UNK N   1      34.368  17.903   8.555  0.00  0.00     0.013 C 
BRANCH  23  24
HETATM   24  C   UNK N   1      33.532  17.834   7.286  0.00  0.00     0.103 C 
BRANCH  24  25
HETATM   25  C   UNK N   1      32.086  17.500   7.520  0.00  0.00     0.217 C 
HETATM   26  O   UNK N   1      31.387  17.073   6.612  0.00  0.00    -0.274 OA
HETATM   27  N   UNK N   1      31.566  17.692   8.757  0.00  0.00    -0.361 N 
HETATM   28  H   UNK N   1      32.154  18.027   9.473  0.00  0.00     0.162 HD
BRANCH  27  29
HETATM   29  C   UNK N   1      30.183  17.425   9.059  0.00  0.00     0.118 C 
HETATM   30  C   UNK N   1      29.565  18.649   9.703  0.00  0.00     0.026 C 
ENDBRANCH  27  29
ENDBRANCH  24  25
ENDBRANCH  23  24
ENDBRANCH  22  23
ENDBRANCH  21  22
ENDBRANCH  19  20
ENDBRANCH   1  19
BRANCH   4  31
HETATM   31  O   UNK N   1      38.859  13.149  11.072  0.00  0.00    -0.395 OA
HETATM   32  H   UNK N   1      39.447  13.335  10.323  0.00  0.00     0.210 HD
ENDBRANCH   4  31
BRANCH   3  33
HETATM   33  O   UNK N   1      34.669  13.133   9.005  0.00  0.00    -0.395 OA
HETATM   34  H   UNK N   1      34.942  13.860   8.423  0.00  0.00     0.210 HD
ENDBRANCH   3  33
TORSDOF 15
ENDMDL
