MODEL 1
REMARK VINA RESULT:      -5.5      0.000      0.000
REMARK  3 active torsions:
REMARK  status: ('A' for Active; 'I' for Inactive)
REMARK    1  A    between atoms: S_1  and  N_7 
REMARK    2  A    between atoms: S_1  and  C_8 
REMARK    3  A    between atoms: C_8  and  C_9 
ROOT
HETATM    1  O   UNK N   1      31.261  16.543   8.289  0.00  0.00    -0.237 OA
HETATM    2  N   UNK N   1      32.268  16.660   9.119  0.00  0.00    -0.263 N 
ATOM      3  HN  UNK N   1      32.249  16.474  10.121  1.00  0.00     0.194 HD
HETATM    4  C   UNK N   1      33.338  17.073   8.400  0.00  0.00     0.061 A 
HETATM    5  C   UNK N   1      32.953  17.206   7.089  0.00  0.00     0.025 A 
HETATM    6  C   UNK N   1      31.636  16.856   7.073  0.00  0.00     0.111 A 
HETATM    7  C   UNK N   1      33.637  17.572   5.935  0.00  0.00     0.016 A 
HETATM    8  C   UNK N   1      30.889  16.835   5.899  0.00  0.00     0.040 A 
HETATM    9  C   UNK N   1      32.914  17.570   4.725  0.00  0.00     0.001 A 
HETATM   10  C   UNK N   1      31.547  17.199   4.707  0.00  0.00     0.003 A 
ENDROOT
BRANCH   4  11
HETATM   11  C   UNK N   1      34.717  17.266   8.954  0.00  0.00     0.222 C 
BRANCH  11  12
HETATM   12  S   UNK N   1      34.993  16.335  10.493  0.00  0.00     0.229 S 
HETATM   13  O   UNK N   1      35.906  17.567  10.416  0.00  0.00    -0.206 OA
HETATM   14  O   UNK N   1      35.409  15.521   9.257  0.00  0.00    -0.206 OA
BRANCH  12  15
HETATM   15  N   UNK N   1      36.557  15.663  10.964  0.00  0.00    -0.328 N 
HETATM   16  H   UNK N   1      37.077  16.038  11.757  0.00  0.00     0.168 HD
HETATM   17  H   UNK N   1      36.947  14.885  10.432  0.00  0.00     0.168 HD
ENDBRANCH  12  15
ENDBRANCH  11  12
ENDBRANCH   4  11
TORSDOF 3
ENDMDL
MODEL 2
REMARK VINA RESULT:      -5.4      8.592     10.712
REMARK  3 active torsions:
REMARK  status: ('A' for Active; 'I' for Inactive)
REMARK    1  A    between atoms: S_1  and  N_7 
REMARK    2  A    between atoms: S_1  and  C_8 
REMARK    3  A    between atoms: C_8  and  C_9 
ROOT
HETATM    1  O   UNK N   1      35.809   9.964  16.853  0.00  0.00    -0.237 OA
HETATM    2  N   UNK N   1      35.643  10.325  15.604  0.00  0.00    -0.263 N 
ATOM      3  HN  UNK N   1      35.727   9.723  14.785  1.00  0.00     0.194 HD
HETATM    4  C   UNK N   1      35.340  11.644  15.602  0.00  0.00     0.061 A 
HETATM    5  C   UNK N   1      35.323  12.087  16.901  0.00  0.00     0.025 A 
HETATM    6  C   UNK N   1      35.621  10.988  17.649  0.00  0.00     0.111 A 
HETATM    7  C   UNK N   1      35.055  13.324  17.476  0.00  0.00     0.016 A 
HETATM    8  C   UNK N   1      35.669  11.029  19.040  0.00  0.00     0.040 A 
HETATM    9  C   UNK N   1      35.100  13.409  18.881  0.00  0.00     0.001 A 
HETATM   10  C   UNK N   1      35.402  12.266  19.660  0.00  0.00     0.003 A 
ENDROOT
BRANCH   4  11
HETATM   11  C   UNK N   1      35.005  12.442  14.378  0.00  0.00     0.222 C 
BRANCH  11  12
HETATM   12  S   UNK N   1      36.277  13.678  13.973  0.00  0.00     0.229 S 
HETATM   13  O   UNK N   1      35.027  13.860  13.101  0.00  0.00    -0.206 OA
HETATM   14  O   UNK N   1      36.739  12.255  13.621  0.00  0.00    -0.206 OA
BRANCH  12  15
HETATM   15  N   UNK N   1      36.978  13.871  12.364  0.00  0.00    -0.328 N 
HETATM   16  H   UNK N   1      37.985  13.813  12.214  0.00  0.00     0.168 HD
HETATM   17  H   UNK N   1      36.363  14.045  11.569  0.00  0.00     0.168 HD
ENDBRANCH  12  15
ENDBRANCH  11  12
ENDBRANCH   4  11
TORSDOF 3
ENDMDL
MODEL 3
REMARK VINA RESULT:      -5.3      9.768     11.768
REMARK  3 active torsions:
REMARK  status: ('A' for Active; 'I' for Inactive)
REMARK    1  A    between atoms: S_1  and  N_7 
REMARK    2  A    between atoms: S_1  and  C_8 
REMARK    3  A    between atoms: C_8  and  C_9 
ROOT
HETATM    1  O   UNK N   1      35.535  13.132  19.750  0.00  0.00    -0.237 OA
HETATM    2  N   UNK N   1      35.263  13.825  18.672  0.00  0.00    -0.263 N 
ATOM      3  HN  UNK N   1      35.203  14.841  18.607  1.00  0.00     0.194 HD
HETATM    4  C   UNK N   1      35.077  12.944  17.662  0.00  0.00     0.061 A 
HETATM    5  C   UNK N   1      35.245  11.676  18.157  0.00  0.00     0.025 A 
HETATM    6  C   UNK N   1      35.537  11.850  19.477  0.00  0.00     0.111 A 
HETATM    7  C   UNK N   1      35.192  10.416  17.570  0.00  0.00     0.016 A 
HETATM    8  C   UNK N   1      35.807  10.779  20.324  0.00  0.00     0.040 A 
HETATM    9  C   UNK N   1      35.455   9.305  18.396  0.00  0.00     0.001 A 
HETATM   10  C   UNK N   1      35.765   9.486  19.766  0.00  0.00     0.003 A 
ENDROOT
BRANCH   4  11
HETATM   11  C   UNK N   1      34.812  13.323  16.236  0.00  0.00     0.222 C 
BRANCH  11  12
HETATM   12  S   UNK N   1      36.255  13.065  15.159  0.00  0.00     0.229 S 
HETATM   13  O   UNK N   1      36.449  14.289  16.065  0.00  0.00    -0.206 OA
HETATM   14  O   UNK N   1      35.003  13.431  14.347  0.00  0.00    -0.206 OA
BRANCH  12  15
HETATM   15  N   UNK N   1      36.856  14.273  14.019  0.00  0.00    -0.328 N 
HETATM   16  H   UNK N   1      37.164  14.010  13.084  0.00  0.00     0.168 HD
HETATM   17  H   UNK N   1      36.895  15.251  14.304  0.00  0.00     0.168 HD
ENDBRANCH  12  15
ENDBRANCH  11  12
ENDBRANCH   4  11
TORSDOF 3
ENDMDL
MODEL 4
REMARK VINA RESULT:      -5.3      5.558      7.752
REMARK  3 active torsions:
REMARK  status: ('A' for Active; 'I' for Inactive)
REMARK    1  A    between atoms: S_1  and  N_7 
REMARK    2  A    between atoms: S_1  and  C_8 
REMARK    3  A    between atoms: C_8  and  C_9 
ROOT
HETATM    1  O   UNK N   1      34.383  11.897  13.106  0.00  0.00    -0.237 OA
HETATM    2  N   UNK N   1      34.680  12.510  11.987  0.00  0.00    -0.263 N 
ATOM      3  HN  UNK N   1      34.322  12.281  11.060  1.00  0.00     0.194 HD
HETATM    4  C   UNK N   1      35.550  13.501  12.288  0.00  0.00     0.061 A 
HETATM    5  C   UNK N   1      35.780  13.480  13.641  0.00  0.00     0.025 A 
HETATM    6  C   UNK N   1      35.017  12.452  14.110  0.00  0.00     0.111 A 
HETATM    7  C   UNK N   1      36.556  14.270  14.482  0.00  0.00     0.016 A 
HETATM    8  C   UNK N   1      34.958  12.130  15.462  0.00  0.00     0.040 A 
HETATM    9  C   UNK N   1      36.528  13.972  15.859  0.00  0.00     0.001 A 
HETATM   10  C   UNK N   1      35.730  12.909  16.348  0.00  0.00     0.003 A 
ENDROOT
BRANCH   4  11
HETATM   11  C   UNK N   1      36.092  14.491  11.302  0.00  0.00     0.222 C 
BRANCH  11  12
HETATM   12  S   UNK N   1      35.356  16.145  11.488  0.00  0.00     0.229 S 
HETATM   13  O   UNK N   1      34.432  15.210  10.694  0.00  0.00    -0.206 OA
HETATM   14  O   UNK N   1      36.628  16.186  10.626  0.00  0.00    -0.206 OA
BRANCH  12  15
HETATM   15  N   UNK N   1      34.884  17.166  10.126  0.00  0.00    -0.328 N 
HETATM   16  H   UNK N   1      35.299  18.087   9.986  0.00  0.00     0.168 HD
HETATM   17  H   UNK N   1      34.183  16.827   9.468  0.00  0.00     0.168 HD
ENDBRANCH  12  15
ENDBRANCH  11  12
ENDBRANCH   4  11
TORSDOF 3
ENDMDL
MODEL 5
REMARK VINA RESULT:      -5.3      2.909      5.160
REMARK  3 active torsions:
REMARK  status: ('A' for Active; 'I' for Inactive)
REMARK    1  A    between atoms: S_1  and  N_7 
REMARK    2  A    between atoms: S_1  and  C_8 
REMARK    3  A    between atoms: C_8  and  C_9 
ROOT
HETATM    1  O   UNK N   1      35.526  18.186   9.572  0.00  0.00    -0.237 OA
HETATM    2  N   UNK N   1      34.779  18.595   8.576  0.00  0.00    -0.263 N 
ATOM      3  HN  UNK N   1      34.889  19.466   8.057  1.00  0.00     0.194 HD
HETATM    4  C   UNK N   1      33.836  17.648   8.363  0.00  0.00     0.061 A 
HETATM    5  C   UNK N   1      34.029  16.634   9.267  0.00  0.00     0.025 A 
HETATM    6  C   UNK N   1      35.108  17.021  10.003  0.00  0.00     0.111 A 
HETATM    7  C   UNK N   1      33.378  15.424   9.485  0.00  0.00     0.016 A 
HETATM    8  C   UNK N   1      35.637  16.227  11.017  0.00  0.00     0.040 A 
HETATM    9  C   UNK N   1      33.880  14.594  10.508  0.00  0.00     0.001 A 
HETATM   10  C   UNK N   1      35.006  14.993  11.268  0.00  0.00     0.003 A 
ENDROOT
BRANCH   4  11
HETATM   11  C   UNK N   1      32.816  17.689   7.265  0.00  0.00     0.222 C 
BRANCH  11  12
HETATM   12  S   UNK N   1      33.241  16.604   5.869  0.00  0.00     0.229 S 
HETATM   13  O   UNK N   1      34.104  17.874   5.869  0.00  0.00    -0.206 OA
HETATM   14  O   UNK N   1      31.813  17.157   5.740  0.00  0.00    -0.206 OA
BRANCH  12  15
HETATM   15  N   UNK N   1      33.157  17.104   4.177  0.00  0.00    -0.328 N 
HETATM   16  H   UNK N   1      33.154  16.419   3.422  0.00  0.00     0.168 HD
HETATM   17  H   UNK N   1      33.110  18.098   3.953  0.00  0.00     0.168 HD
ENDBRANCH  12  15
ENDBRANCH  11  12
ENDBRANCH   4  11
TORSDOF 3
ENDMDL
MODEL 6
REMARK VINA RESULT:      -5.2     16.625     18.177
REMARK  3 active torsions:
REMARK  status: ('A' for Active; 'I' for Inactive)
REMARK    1  A    between atoms: S_1  and  N_7 
REMARK    2  A    between atoms: S_1  and  C_8 
REMARK    3  A    between atoms: C_8  and  C_9 
ROOT
HETATM    1  O   UNK N   1      27.102  24.336  -4.131  0.00  0.00    -0.237 OA
HETATM    2  N   UNK N   1      26.961  23.606  -5.210  0.00  0.00    -0.263 N 
ATOM      3  HN  UNK N   1      27.327  22.665  -5.355  1.00  0.00     0.194 HD
HETATM    4  C   UNK N   1      26.240  24.331  -6.097  0.00  0.00     0.061 A 
HETATM    5  C   UNK N   1      25.938  25.541  -5.524  0.00  0.00     0.025 A 
HETATM    6  C   UNK N   1      26.501  25.491  -4.284  0.00  0.00     0.111 A 
HETATM    7  C   UNK N   1      25.215  26.643  -5.965  0.00  0.00     0.016 A 
HETATM    8  C   UNK N   1      26.384  26.538  -3.374  0.00  0.00     0.040 A 
HETATM    9  C   UNK N   1      25.078  27.727  -5.075  0.00  0.00     0.001 A 
HETATM   10  C   UNK N   1      25.657  27.674  -3.784  0.00  0.00     0.003 A 
ENDROOT
BRANCH   4  11
HETATM   11  C   UNK N   1      25.793  23.838  -7.440  0.00  0.00     0.222 C 
BRANCH  11  12
HETATM   12  S   UNK N   1      25.272  22.095  -7.413  0.00  0.00     0.229 S 
HETATM   13  O   UNK N   1      26.715  22.237  -7.919  0.00  0.00    -0.206 OA
HETATM   14  O   UNK N   1      24.466  22.910  -8.436  0.00  0.00    -0.206 OA
BRANCH  12  15
HETATM   15  N   UNK N   1      25.264  21.052  -8.838  0.00  0.00    -0.328 N 
HETATM   16  H   UNK N   1      24.976  21.405  -9.750  0.00  0.00     0.168 HD
HETATM   17  H   UNK N   1      25.554  20.079  -8.746  0.00  0.00     0.168 HD
ENDBRANCH  12  15
ENDBRANCH  11  12
ENDBRANCH   4  11
TORSDOF 3
ENDMDL
MODEL 7
REMARK VINA RESULT:      -5.2      5.932      8.153
REMARK  3 active torsions:
REMARK  status: ('A' for Active; 'I' for Inactive)
REMARK    1  A    between atoms: S_1  and  N_7 
REMARK    2  A    between atoms: S_1  and  C_8 
REMARK    3  A    between atoms: C_8  and  C_9 
ROOT
HETATM    1  O   UNK N   1      36.754  14.187  15.334  0.00  0.00    -0.237 OA
HETATM    2  N   UNK N   1      36.873  14.784  14.173  0.00  0.00    -0.263 N 
ATOM      3  HN  UNK N   1      37.440  15.607  13.973  1.00  0.00     0.194 HD
HETATM    4  C   UNK N   1      36.103  14.106  13.290  0.00  0.00     0.061 A 
HETATM    5  C   UNK N   1      35.503  13.064  13.950  0.00  0.00     0.025 A 
HETATM    6  C   UNK N   1      35.950  13.157  15.234  0.00  0.00     0.111 A 
HETATM    7  C   UNK N   1      34.642  12.052  13.537  0.00  0.00     0.016 A 
HETATM    8  C   UNK N   1      35.580  12.242  16.216  0.00  0.00     0.040 A 
HETATM    9  C   UNK N   1      34.240  11.109  14.504  0.00  0.00     0.001 A 
HETATM   10  C   UNK N   1      34.710  11.201  15.837  0.00  0.00     0.003 A 
ENDROOT
BRANCH   4  11
HETATM   11  C   UNK N   1      36.006  14.417  11.827  0.00  0.00     0.222 C 
BRANCH  11  12
HETATM   12  S   UNK N   1      35.394  16.100  11.505  0.00  0.00     0.229 S 
HETATM   13  O   UNK N   1      34.262  15.068  11.404  0.00  0.00    -0.206 OA
HETATM   14  O   UNK N   1      36.379  15.639  10.419  0.00  0.00    -0.206 OA
BRANCH  12  15
HETATM   15  N   UNK N   1      34.593  16.581  10.006  0.00  0.00    -0.328 N 
HETATM   16  H   UNK N   1      34.163  15.891   9.391  0.00  0.00     0.168 HD
HETATM   17  H   UNK N   1      34.559  17.568   9.753  0.00  0.00     0.168 HD
ENDBRANCH  12  15
ENDBRANCH  11  12
ENDBRANCH   4  11
TORSDOF 3
ENDMDL
MODEL 8
REMARK VINA RESULT:      -5.1     18.256     19.164
REMARK  3 active torsions:
REMARK  status: ('A' for Active; 'I' for Inactive)
REMARK    1  A    between atoms: S_1  and  N_7 
REMARK    2  A    between atoms: S_1  and  C_8 
REMARK    3  A    between atoms: C_8  and  C_9 
ROOT
HETATM    1  O   UNK N   1      27.929  28.127  -7.395  0.00  0.00    -0.237 OA
HETATM    2  N   UNK N   1      27.207  27.041  -7.521  0.00  0.00    -0.263 N 
ATOM      3  HN  UNK N   1      27.272  26.356  -8.275  1.00  0.00     0.194 HD
HETATM    4  C   UNK N   1      26.358  26.995  -6.468  0.00  0.00     0.061 A 
HETATM    5  C   UNK N   1      26.584  28.097  -5.682  0.00  0.00     0.025 A 
HETATM    6  C   UNK N   1      27.587  28.775  -6.309  0.00  0.00     0.111 A 
HETATM    7  C   UNK N   1      26.026  28.539  -4.488  0.00  0.00     0.016 A 
HETATM    8  C   UNK N   1      28.123  29.951  -5.792  0.00  0.00     0.040 A 
HETATM    9  C   UNK N   1      26.537  29.729  -3.934  0.00  0.00     0.001 A 
HETATM   10  C   UNK N   1      27.584  30.431  -4.581  0.00  0.00     0.003 A 
ENDROOT
BRANCH   4  11
HETATM   11  C   UNK N   1      25.400  25.877  -6.190  0.00  0.00     0.222 C 
BRANCH  11  12
HETATM   12  S   UNK N   1      26.184  24.238  -6.291  0.00  0.00     0.229 S 
HETATM   13  O   UNK N   1      25.365  24.542  -7.554  0.00  0.00    -0.206 OA
HETATM   14  O   UNK N   1      25.129  24.292  -5.175  0.00  0.00    -0.206 OA
BRANCH  12  15
HETATM   15  N   UNK N   1      25.285  22.734  -6.516  0.00  0.00    -0.328 N 
HETATM   16  H   UNK N   1      25.617  22.009  -7.151  0.00  0.00     0.168 HD
HETATM   17  H   UNK N   1      24.418  22.590  -6.000  0.00  0.00     0.168 HD
ENDBRANCH  12  15
ENDBRANCH  11  12
ENDBRANCH   4  11
TORSDOF 3
ENDMDL
MODEL 9
REMARK VINA RESULT:      -5.0      7.432      9.430
REMARK  3 active torsions:
REMARK  status: ('A' for Active; 'I' for Inactive)
REMARK    1  A    between atoms: S_1  and  N_7 
REMARK    2  A    between atoms: S_1  and  C_8 
REMARK    3  A    between atoms: C_8  and  C_9 
ROOT
HETATM    1  O   UNK N   1      37.150  15.508  15.681  0.00  0.00    -0.237 OA
HETATM    2  N   UNK N   1      37.184  14.964  14.490  0.00  0.00    -0.263 N 
ATOM      3  HN  UNK N   1      37.662  15.336  13.669  1.00  0.00     0.194 HD
HETATM    4  C   UNK N   1      36.470  13.816  14.549  0.00  0.00     0.061 A 
HETATM    5  C   UNK N   1      35.992  13.670  15.827  0.00  0.00     0.025 A 
HETATM    6  C   UNK N   1      36.452  14.761  16.501  0.00  0.00     0.111 A 
HETATM    7  C   UNK N   1      35.231  12.684  16.446  0.00  0.00     0.016 A 
HETATM    8  C   UNK N   1      36.197  14.958  17.855  0.00  0.00     0.040 A 
HETATM    9  C   UNK N   1      34.945  12.850  17.816  0.00  0.00     0.001 A 
HETATM   10  C   UNK N   1      35.430  13.980  18.518  0.00  0.00     0.003 A 
ENDROOT
BRANCH   4  11
HETATM   11  C   UNK N   1      36.313  12.848  13.416  0.00  0.00     0.222 C 
BRANCH  11  12
HETATM   12  S   UNK N   1      35.949  13.669  11.834  0.00  0.00     0.229 S 
HETATM   13  O   UNK N   1      34.775  13.805  12.814  0.00  0.00    -0.206 OA
HETATM   14  O   UNK N   1      36.082  12.147  11.664  0.00  0.00    -0.206 OA
BRANCH  12  15
HETATM   15  N   UNK N   1      34.569  13.259  10.812  0.00  0.00    -0.328 N 
HETATM   16  H   UNK N   1      34.387  12.296  10.529  0.00  0.00     0.168 HD
HETATM   17  H   UNK N   1      33.942  13.999  10.499  0.00  0.00     0.168 HD
ENDBRANCH  12  15
ENDBRANCH  11  12
ENDBRANCH   4  11
TORSDOF 3
ENDMDL
