MODEL 1
REMARK VINA RESULT:      -7.8      0.000      0.000
REMARK  8 active torsions:
REMARK  status: ('A' for Active; 'I' for Inactive)
REMARK    1  A    between atoms: O_1  and  C_22 
REMARK    2  A    between atoms: C_26  and  O_2 
REMARK    3  A    between atoms: C_27  and  O_3 
REMARK    4  A    between atoms: C_5  and  C_10 
REMARK    5  A    between atoms: C_10  and  C_16 
REMARK    6  A    between atoms: C_17  and  C_19 
REMARK    7  A    between atoms: C_18  and  C_20 
REMARK    8  A    between atoms: C_20  and  C_22 
ROOT
HETATM    1  C   UNK N   1      36.153  10.743  14.299  0.00  0.00    -0.032 C 
HETATM    2  C   UNK N   1      35.650  10.231  12.933  0.00  0.00     0.002 C 
HETATM    3  C   UNK N   1      35.008  10.257  15.196  0.00  0.00     0.023 C 
HETATM    4  C   UNK N   1      34.159  10.584  12.957  0.00  0.00     0.007 C 
HETATM    5  C   UNK N   1      33.759  10.657  14.428  0.00  0.00     0.010 C 
HETATM    6  C   UNK N   1      36.257  12.289  14.360  0.00  0.00     0.010 C 
HETATM    7  C   UNK N   1      35.042  10.872  16.567  0.00  0.00    -0.075 C 
HETATM    8  C   UNK N   1      37.491  10.125  14.703  0.00  0.00     0.016 C 
HETATM    9  C   UNK N   1      36.423  12.784  15.807  0.00  0.00     0.005 C 
HETATM   10  C   UNK N   1      35.216  12.371  16.653  0.00  0.00     0.034 C 
HETATM   11  C   UNK N   1      34.890  10.071  17.630  0.00  0.00     0.003 C 
ENDROOT
BRANCH  11  12
HETATM   12  C   UNK N   1      34.819  10.510  19.034  0.00  0.00     0.003 C 
HETATM   13  C   UNK N   1      34.194   9.751  19.946  0.00  0.00    -0.075 C 
HETATM   14  C   UNK N   1      33.520   8.459  19.574  0.00  0.00     0.066 C 
HETATM   15  C   UNK N   1      34.054  10.215  21.362  0.00  0.00     0.066 C 
HETATM   16  C   UNK N   1      32.041   8.565  19.934  0.00  0.00     0.124 C 
HETATM   17  C   UNK N   1      31.882   8.915  21.415  0.00  0.00     0.064 C 
HETATM   18  C   UNK N   1      32.564  10.254  21.720  0.00  0.00     0.124 C 
BRANCH  16  19
HETATM   19  O   UNK N   1      31.405   7.354  19.664  0.00  0.00    -0.395 OA
HETATM   20  H   UNK N   1      30.469   7.156  19.827  0.00  0.00     0.210 HD
ENDBRANCH  16  19
BRANCH  18  21
HETATM   21  O   UNK N   1      32.415  10.552  23.073  0.00  0.00    -0.395 OA
HETATM   22  H   UNK N   1      32.140  11.438  23.359  0.00  0.00     0.210 HD
ENDBRANCH  18  21
ENDBRANCH  11  12
BRANCH   2  23
HETATM   23  C   UNK N   1      36.323  10.759  11.643  0.00  0.00     0.008 C 
HETATM   24  C   UNK N   1      36.608   9.645  10.652  0.00  0.00     0.014 C 
BRANCH  23  25
HETATM   25  C   UNK N   1      35.424  11.747  10.941  0.00  0.00    -0.026 C 
HETATM   26  C   UNK N   1      35.876  12.891  10.421  0.00  0.00    -0.023 C 
BRANCH  26  27
HETATM   27  C   UNK N   1      34.939  13.897   9.811  0.00  0.00     0.037 C 
HETATM   28  C   UNK N   1      33.679  13.164   9.371  0.00  0.00     0.017 C 
BRANCH  27  29
HETATM   29  C   UNK N   1      34.609  15.092  10.730  0.00  0.00     0.057 C 
HETATM   30  C   UNK N   1      35.562  15.160  11.910  0.00  0.00     0.046 C 
HETATM   31  C   UNK N   1      34.755  16.395   9.961  0.00  0.00     0.046 C 
BRANCH  29  32
HETATM   32  O   UNK N   1      33.300  14.990  11.206  0.00  0.00    -0.390 OA
HETATM   33  H   UNK N   1      32.491  14.706  11.660  0.00  0.00     0.210 HD
ENDBRANCH  29  32
ENDBRANCH  27  29
ENDBRANCH  26  27
ENDBRANCH  23  25
ENDBRANCH   2  23
TORSDOF 8
ENDMDL
MODEL 2
REMARK VINA RESULT:      -7.6      6.093     12.883
REMARK  8 active torsions:
REMARK  status: ('A' for Active; 'I' for Inactive)
REMARK    1  A    between atoms: O_1  and  C_22 
REMARK    2  A    between atoms: C_26  and  O_2 
REMARK    3  A    between atoms: C_27  and  O_3 
REMARK    4  A    between atoms: C_5  and  C_10 
REMARK    5  A    between atoms: C_10  and  C_16 
REMARK    6  A    between atoms: C_17  and  C_19 
REMARK    7  A    between atoms: C_18  and  C_20 
REMARK    8  A    between atoms: C_20  and  C_22 
ROOT
HETATM    1  C   UNK N   1      32.895  16.860   7.629  0.00  0.00    -0.032 C 
HETATM    2  C   UNK N   1      33.249  15.814   8.706  0.00  0.00     0.002 C 
HETATM    3  C   UNK N   1      31.485  16.384   7.259  0.00  0.00     0.023 C 
HETATM    4  C   UNK N   1      32.749  14.501   8.094  0.00  0.00     0.007 C 
HETATM    5  C   UNK N   1      31.644  14.879   7.112  0.00  0.00     0.010 C 
HETATM    6  C   UNK N   1      33.824  16.785   6.390  0.00  0.00     0.010 C 
HETATM    7  C   UNK N   1      30.970  17.017   5.997  0.00  0.00    -0.075 C 
HETATM    8  C   UNK N   1      32.886  18.287   8.175  0.00  0.00     0.016 C 
HETATM    9  C   UNK N   1      33.248  17.585   5.208  0.00  0.00     0.005 C 
HETATM   10  C   UNK N   1      31.887  17.021   4.796  0.00  0.00     0.034 C 
HETATM   11  C   UNK N   1      29.726  17.515   5.995  0.00  0.00     0.003 C 
ENDROOT
BRANCH  11  12
HETATM   12  C   UNK N   1      29.035  18.097   4.831  0.00  0.00     0.003 C 
HETATM   13  C   UNK N   1      28.312  19.217   4.968  0.00  0.00    -0.075 C 
HETATM   14  C   UNK N   1      28.146  19.896   6.300  0.00  0.00     0.066 C 
HETATM   15  C   UNK N   1      27.548  19.782   3.811  0.00  0.00     0.066 C 
HETATM   16  C   UNK N   1      26.660  19.940   6.640  0.00  0.00     0.124 C 
HETATM   17  C   UNK N   1      25.882  20.631   5.518  0.00  0.00     0.064 C 
HETATM   18  C   UNK N   1      26.067  19.874   4.198  0.00  0.00     0.124 C 
BRANCH  16  19
HETATM   19  O   UNK N   1      26.472  20.627   7.838  0.00  0.00    -0.395 OA
HETATM   20  H   UNK N   1      26.939  21.433   8.109  0.00  0.00     0.210 HD
ENDBRANCH  16  19
BRANCH  18  21
HETATM   21  O   UNK N   1      25.359  20.522   3.188  0.00  0.00    -0.395 OA
HETATM   22  H   UNK N   1      24.807  20.019   2.567  0.00  0.00     0.210 HD
ENDBRANCH  18  21
ENDBRANCH  11  12
BRANCH   2  23
HETATM   23  C   UNK N   1      34.722  15.684   9.166  0.00  0.00     0.008 C 
HETATM   24  C   UNK N   1      35.120  16.793  10.122  0.00  0.00     0.014 C 
BRANCH  23  25
HETATM   25  C   UNK N   1      34.938  14.382   9.897  0.00  0.00    -0.026 C 
HETATM   26  C   UNK N   1      34.800  14.264  11.220  0.00  0.00    -0.023 C 
BRANCH  26  27
HETATM   27  C   UNK N   1      35.114  12.976  11.928  0.00  0.00     0.037 C 
HETATM   28  C   UNK N   1      36.115  12.202  11.080  0.00  0.00     0.017 C 
BRANCH  27  29
HETATM   29  C   UNK N   1      35.617  13.156  13.376  0.00  0.00     0.057 C 
HETATM   30  C   UNK N   1      36.660  12.112  13.731  0.00  0.00     0.046 C 
HETATM   31  C   UNK N   1      36.273  14.518  13.533  0.00  0.00     0.046 C 
BRANCH  29  32
HETATM   32  O   UNK N   1      34.551  13.059  14.273  0.00  0.00    -0.390 OA
HETATM   33  H   UNK N   1      33.674  13.081  14.687  0.00  0.00     0.210 HD
ENDBRANCH  29  32
ENDBRANCH  27  29
ENDBRANCH  26  27
ENDBRANCH  23  25
ENDBRANCH   2  23
TORSDOF 8
ENDMDL
MODEL 3
REMARK VINA RESULT:      -7.5      3.575     10.183
REMARK  8 active torsions:
REMARK  status: ('A' for Active; 'I' for Inactive)
REMARK    1  A    between atoms: O_1  and  C_22 
REMARK    2  A    between atoms: C_26  and  O_2 
REMARK    3  A    between atoms: C_27  and  O_3 
REMARK    4  A    between atoms: C_5  and  C_10 
REMARK    5  A    between atoms: C_10  and  C_16 
REMARK    6  A    between atoms: C_17  and  C_19 
REMARK    7  A    between atoms: C_18  and  C_20 
REMARK    8  A    between atoms: C_20  and  C_22 
ROOT
HETATM    1  C   UNK N   1      35.252  14.153   9.183  0.00  0.00    -0.032 C 
HETATM    2  C   UNK N   1      36.277  14.388  10.312  0.00  0.00     0.002 C 
HETATM    3  C   UNK N   1      34.513  15.496   9.221  0.00  0.00     0.023 C 
HETATM    4  C   UNK N   1      35.441  15.055  11.409  0.00  0.00     0.007 C 
HETATM    5  C   UNK N   1      34.265  15.725  10.703  0.00  0.00     0.010 C 
HETATM    6  C   UNK N   1      34.269  12.996   9.495  0.00  0.00     0.010 C 
HETATM    7  C   UNK N   1      33.231  15.477   8.436  0.00  0.00    -0.075 C 
HETATM    8  C   UNK N   1      35.914  13.909   7.828  0.00  0.00     0.016 C 
HETATM    9  C   UNK N   1      33.066  13.007   8.536  0.00  0.00     0.005 C 
HETATM   10  C   UNK N   1      32.289  14.319   8.671  0.00  0.00     0.034 C 
HETATM   11  C   UNK N   1      32.981  16.492   7.599  0.00  0.00     0.003 C 
ENDROOT
BRANCH  11  12
HETATM   12  C   UNK N   1      31.747  16.676   6.815  0.00  0.00     0.003 C 
HETATM   13  C   UNK N   1      30.754  17.440   7.292  0.00  0.00    -0.075 C 
HETATM   14  C   UNK N   1      30.839  18.100   8.641  0.00  0.00     0.066 C 
HETATM   15  C   UNK N   1      29.467  17.581   6.540  0.00  0.00     0.066 C 
HETATM   16  C   UNK N   1      29.684  17.595   9.501  0.00  0.00     0.124 C 
HETATM   17  C   UNK N   1      28.350  17.850   8.795  0.00  0.00     0.064 C 
HETATM   18  C   UNK N   1      28.316  17.126   7.444  0.00  0.00     0.124 C 
BRANCH  16  19
HETATM   19  O   UNK N   1      29.698  18.244  10.733  0.00  0.00    -0.395 OA
HETATM   20  H   UNK N   1      29.069  18.923  11.025  0.00  0.00     0.210 HD
ENDBRANCH  16  19
BRANCH  18  21
HETATM   21  O   UNK N   1      27.099  17.375   6.815  0.00  0.00    -0.395 OA
HETATM   22  H   UNK N   1      26.470  16.655   6.646  0.00  0.00     0.210 HD
ENDBRANCH  18  21
ENDBRANCH  11  12
BRANCH   2  23
HETATM   23  C   UNK N   1      37.060  13.176  10.874  0.00  0.00     0.008 C 
HETATM   24  C   UNK N   1      38.546  13.270  10.579  0.00  0.00     0.014 C 
BRANCH  23  25
HETATM   25  C   UNK N   1      36.919  13.101  12.375  0.00  0.00    -0.026 C 
HETATM   26  C   UNK N   1      36.530  11.992  13.009  0.00  0.00    -0.023 C 
BRANCH  26  27
HETATM   27  C   UNK N   1      36.308  11.978  14.496  0.00  0.00     0.037 C 
HETATM   28  C   UNK N   1      36.763  13.319  15.055  0.00  0.00     0.017 C 
BRANCH  27  29
HETATM   29  C   UNK N   1      34.860  11.648  14.917  0.00  0.00     0.057 C 
HETATM   30  C   UNK N   1      34.089  11.004  13.778  0.00  0.00     0.046 C 
HETATM   31  C   UNK N   1      34.866  10.660  16.071  0.00  0.00     0.046 C 
BRANCH  29  32
HETATM   32  O   UNK N   1      34.197  12.810  15.317  0.00  0.00    -0.390 OA
HETATM   33  H   UNK N   1      33.605  13.445  15.750  0.00  0.00     0.210 HD
ENDBRANCH  29  32
ENDBRANCH  27  29
ENDBRANCH  26  27
ENDBRANCH  23  25
ENDBRANCH   2  23
TORSDOF 8
ENDMDL
MODEL 4
REMARK VINA RESULT:      -7.5     10.993     16.597
REMARK  8 active torsions:
REMARK  status: ('A' for Active; 'I' for Inactive)
REMARK    1  A    between atoms: O_1  and  C_22 
REMARK    2  A    between atoms: C_26  and  O_2 
REMARK    3  A    between atoms: C_27  and  O_3 
REMARK    4  A    between atoms: C_5  and  C_10 
REMARK    5  A    between atoms: C_10  and  C_16 
REMARK    6  A    between atoms: C_17  and  C_19 
REMARK    7  A    between atoms: C_18  and  C_20 
REMARK    8  A    between atoms: C_20  and  C_22 
ROOT
HETATM    1  C   UNK N   1      27.520  19.048   6.317  0.00  0.00    -0.032 C 
HETATM    2  C   UNK N   1      27.987  17.823   7.132  0.00  0.00     0.002 C 
HETATM    3  C   UNK N   1      26.339  18.424   5.565  0.00  0.00     0.023 C 
HETATM    4  C   UNK N   1      27.922  16.681   6.113  0.00  0.00     0.007 C 
HETATM    5  C   UNK N   1      26.893  17.100   5.066  0.00  0.00     0.010 C 
HETATM    6  C   UNK N   1      28.591  19.542   5.310  0.00  0.00     0.010 C 
HETATM    7  C   UNK N   1      25.848  19.286   4.436  0.00  0.00    -0.075 C 
HETATM    8  C   UNK N   1      27.078  20.211   7.203  0.00  0.00     0.016 C 
HETATM    9  C   UNK N   1      27.989  20.522   4.288  0.00  0.00     0.005 C 
HETATM   10  C   UNK N   1      26.882  19.839   3.483  0.00  0.00     0.034 C 
HETATM   11  C   UNK N   1      24.530  19.493   4.318  0.00  0.00     0.003 C 
ENDROOT
BRANCH  11  12
HETATM   12  C   UNK N   1      23.870  20.241   3.233  0.00  0.00     0.003 C 
HETATM   13  C   UNK N   1      22.547  20.135   3.051  0.00  0.00    -0.075 C 
HETATM   14  C   UNK N   1      21.697  19.236   3.906  0.00  0.00     0.066 C 
HETATM   15  C   UNK N   1      21.872  20.834   1.912  0.00  0.00     0.066 C 
HETATM   16  C   UNK N   1      21.020  18.208   3.004  0.00  0.00     0.124 C 
HETATM   17  C   UNK N   1      20.221  18.916   1.907  0.00  0.00     0.064 C 
HETATM   18  C   UNK N   1      21.147  19.790   1.055  0.00  0.00     0.124 C 
BRANCH  16  19
HETATM   19  O   UNK N   1      20.171  17.405   3.764  0.00  0.00    -0.395 OA
HETATM   20  H   UNK N   1      20.014  17.488   4.718  0.00  0.00     0.210 HD
ENDBRANCH  16  19
BRANCH  18  21
HETATM   21  O   UNK N   1      20.401  20.431   0.067  0.00  0.00    -0.395 OA
HETATM   22  H   UNK N   1      20.778  21.167  -0.440  0.00  0.00     0.210 HD
ENDBRANCH  18  21
ENDBRANCH  11  12
BRANCH   2  23
HETATM   23  C   UNK N   1      29.371  17.869   7.824  0.00  0.00     0.008 C 
HETATM   24  C   UNK N   1      29.277  17.566   9.308  0.00  0.00     0.014 C 
BRANCH  23  25
HETATM   25  C   UNK N   1      30.298  16.838   7.227  0.00  0.00    -0.026 C 
HETATM   26  C   UNK N   1      31.628  16.949   7.275  0.00  0.00    -0.023 C 
BRANCH  26  27
HETATM   27  C   UNK N   1      32.521  15.953   6.590  0.00  0.00     0.037 C 
HETATM   28  C   UNK N   1      31.639  14.961   5.844  0.00  0.00     0.017 C 
BRANCH  27  29
HETATM   29  C   UNK N   1      33.577  16.586   5.658  0.00  0.00     0.057 C 
HETATM   30  C   UNK N   1      34.656  15.584   5.287  0.00  0.00     0.046 C 
HETATM   31  C   UNK N   1      32.923  17.041   4.365  0.00  0.00     0.046 C 
BRANCH  29  32
HETATM   32  O   UNK N   1      34.171  17.687   6.278  0.00  0.00    -0.390 OA
HETATM   33  H   UNK N   1      34.474  18.343   6.925  0.00  0.00     0.210 HD
ENDBRANCH  29  32
ENDBRANCH  27  29
ENDBRANCH  26  27
ENDBRANCH  23  25
ENDBRANCH   2  23
TORSDOF 8
ENDMDL
MODEL 5
REMARK VINA RESULT:      -7.4      1.845     10.081
REMARK  8 active torsions:
REMARK  status: ('A' for Active; 'I' for Inactive)
REMARK    1  A    between atoms: O_1  and  C_22 
REMARK    2  A    between atoms: C_26  and  O_2 
REMARK    3  A    between atoms: C_27  and  O_3 
REMARK    4  A    between atoms: C_5  and  C_10 
REMARK    5  A    between atoms: C_10  and  C_16 
REMARK    6  A    between atoms: C_17  and  C_19 
REMARK    7  A    between atoms: C_18  and  C_20 
REMARK    8  A    between atoms: C_20  and  C_22 
ROOT
HETATM    1  C   UNK N   1      35.797  12.276  14.809  0.00  0.00    -0.032 C 
HETATM    2  C   UNK N   1      34.823  11.907  15.948  0.00  0.00     0.002 C 
HETATM    3  C   UNK N   1      34.844  12.178  13.612  0.00  0.00     0.023 C 
HETATM    4  C   UNK N   1      34.040  10.725  15.368  0.00  0.00     0.007 C 
HETATM    5  C   UNK N   1      34.104  10.871  13.851  0.00  0.00     0.010 C 
HETATM    6  C   UNK N   1      36.953  11.254  14.654  0.00  0.00     0.010 C 
HETATM    7  C   UNK N   1      35.565  12.179  12.293  0.00  0.00    -0.075 C 
HETATM    8  C   UNK N   1      36.375  13.682  14.960  0.00  0.00     0.016 C 
HETATM    9  C   UNK N   1      37.697  11.448  13.321  0.00  0.00     0.005 C 
HETATM   10  C   UNK N   1      36.742  11.243  12.144  0.00  0.00     0.034 C 
HETATM   11  C   UNK N   1      35.114  12.981  11.320  0.00  0.00     0.003 C 
ENDROOT
BRANCH  11  12
HETATM   12  C   UNK N   1      35.647  13.052   9.948  0.00  0.00     0.003 C 
HETATM   13  C   UNK N   1      35.784  14.239   9.340  0.00  0.00    -0.075 C 
HETATM   14  C   UNK N   1      35.373  15.524  10.006  0.00  0.00     0.066 C 
HETATM   15  C   UNK N   1      36.259  14.323   7.923  0.00  0.00     0.066 C 
HETATM   16  C   UNK N   1      34.305  16.194   9.147  0.00  0.00     0.124 C 
HETATM   17  C   UNK N   1      34.827  16.400   7.723  0.00  0.00     0.064 C 
HETATM   18  C   UNK N   1      35.198  15.054   7.092  0.00  0.00     0.124 C 
BRANCH  16  19
HETATM   19  O   UNK N   1      33.956  17.421   9.706  0.00  0.00    -0.395 OA
HETATM   20  H   UNK N   1      33.116  17.626  10.147  0.00  0.00     0.210 HD
ENDBRANCH  16  19
BRANCH  18  21
HETATM   21  O   UNK N   1      35.677  15.263   5.800  0.00  0.00    -0.395 OA
HETATM   22  H   UNK N   1      35.315  14.766   5.050  0.00  0.00     0.210 HD
ENDBRANCH  18  21
ENDBRANCH  11  12
BRANCH   2  23
HETATM   23  C   UNK N   1      35.401  11.558  17.342  0.00  0.00     0.008 C 
HETATM   24  C   UNK N   1      35.120  12.644  18.364  0.00  0.00     0.014 C 
BRANCH  23  25
HETATM   25  C   UNK N   1      34.778  10.290  17.873  0.00  0.00    -0.026 C 
HETATM   26  C   UNK N   1      34.651  10.040  19.179  0.00  0.00    -0.023 C 
BRANCH  26  27
HETATM   27  C   UNK N   1      34.112   8.727  19.675  0.00  0.00     0.037 C 
HETATM   28  C   UNK N   1      35.294   7.826  20.005  0.00  0.00     0.017 C 
BRANCH  27  29
HETATM   29  C   UNK N   1      33.141   8.852  20.868  0.00  0.00     0.057 C 
HETATM   30  C   UNK N   1      33.278  10.202  21.550  0.00  0.00     0.046 C 
HETATM   31  C   UNK N   1      31.706   8.736  20.385  0.00  0.00     0.046 C 
BRANCH  29  32
HETATM   32  O   UNK N   1      33.389   7.843  21.801  0.00  0.00    -0.390 OA
HETATM   33  H   UNK N   1      33.308   7.190  22.514  0.00  0.00     0.210 HD
ENDBRANCH  29  32
ENDBRANCH  27  29
ENDBRANCH  26  27
ENDBRANCH  23  25
ENDBRANCH   2  23
TORSDOF 8
ENDMDL
MODEL 6
REMARK VINA RESULT:      -7.4      4.117     10.999
REMARK  8 active torsions:
REMARK  status: ('A' for Active; 'I' for Inactive)
REMARK    1  A    between atoms: O_1  and  C_22 
REMARK    2  A    between atoms: C_26  and  O_2 
REMARK    3  A    between atoms: C_27  and  O_3 
REMARK    4  A    between atoms: C_5  and  C_10 
REMARK    5  A    between atoms: C_10  and  C_16 
REMARK    6  A    between atoms: C_17  and  C_19 
REMARK    7  A    between atoms: C_18  and  C_20 
REMARK    8  A    between atoms: C_20  and  C_22 
ROOT
HETATM    1  C   UNK N   1      35.472  14.372   9.224  0.00  0.00    -0.032 C 
HETATM    2  C   UNK N   1      36.720  14.443  10.128  0.00  0.00     0.002 C 
HETATM    3  C   UNK N   1      34.912  15.782   9.443  0.00  0.00     0.023 C 
HETATM    4  C   UNK N   1      36.199  15.145  11.387  0.00  0.00     0.007 C 
HETATM    5  C   UNK N   1      34.991  15.968  10.949  0.00  0.00     0.010 C 
HETATM    6  C   UNK N   1      34.445  13.313   9.702  0.00  0.00     0.010 C 
HETATM    7  C   UNK N   1      33.507  15.936   8.933  0.00  0.00    -0.075 C 
HETATM    8  C   UNK N   1      35.820  14.120   7.758  0.00  0.00     0.016 C 
HETATM    9  C   UNK N   1      33.085  13.496   9.006  0.00  0.00     0.005 C 
HETATM   10  C   UNK N   1      32.504  14.875   9.326  0.00  0.00     0.034 C 
HETATM   11  C   UNK N   1      33.212  17.009   8.188  0.00  0.00     0.003 C 
ENDROOT
BRANCH  11  12
HETATM   12  C   UNK N   1      31.876  17.359   7.674  0.00  0.00     0.003 C 
HETATM   13  C   UNK N   1      31.436  16.826   6.525  0.00  0.00    -0.075 C 
HETATM   14  C   UNK N   1      32.287  15.895   5.706  0.00  0.00     0.066 C 
HETATM   15  C   UNK N   1      30.110  17.224   5.955  0.00  0.00     0.066 C 
HETATM   16  C   UNK N   1      32.487  16.511   4.325  0.00  0.00     0.124 C 
HETATM   17  C   UNK N   1      31.132  16.806   3.677  0.00  0.00     0.064 C 
HETATM   18  C   UNK N   1      30.330  17.782   4.544  0.00  0.00     0.124 C 
BRANCH  16  19
HETATM   19  O   UNK N   1      33.214  15.635   3.521  0.00  0.00    -0.395 OA
HETATM   20  H   UNK N   1      33.711  15.876   2.723  0.00  0.00     0.210 HD
ENDBRANCH  16  19
BRANCH  18  21
HETATM   21  O   UNK N   1      29.098  18.032   3.942  0.00  0.00    -0.395 OA
HETATM   22  H   UNK N   1      29.049  18.374   3.035  0.00  0.00     0.210 HD
ENDBRANCH  18  21
ENDBRANCH  11  12
BRANCH   2  23
HETATM   23  C   UNK N   1      37.456  13.131  10.492  0.00  0.00     0.008 C 
HETATM   24  C   UNK N   1      38.959  13.253  10.319  0.00  0.00     0.014 C 
BRANCH  23  25
HETATM   25  C   UNK N   1      37.212  12.766  11.935  0.00  0.00    -0.026 C 
HETATM   26  C   UNK N   1      36.485  11.707  12.300  0.00  0.00    -0.023 C 
BRANCH  26  27
HETATM   27  C   UNK N   1      36.183  11.426  13.746  0.00  0.00     0.037 C 
HETATM   28  C   UNK N   1      37.355  11.925  14.580  0.00  0.00     0.017 C 
BRANCH  27  29
HETATM   29  C   UNK N   1      34.844  12.014  14.238  0.00  0.00     0.057 C 
HETATM   30  C   UNK N   1      33.867  10.916  14.620  0.00  0.00     0.046 C 
HETATM   31  C   UNK N   1      35.072  12.862  15.478  0.00  0.00     0.046 C 
BRANCH  29  32
HETATM   32  O   UNK N   1      34.270  12.810  13.244  0.00  0.00    -0.390 OA
HETATM   33  H   UNK N   1      33.754  13.133  12.489  0.00  0.00     0.210 HD
ENDBRANCH  29  32
ENDBRANCH  27  29
ENDBRANCH  26  27
ENDBRANCH  23  25
ENDBRANCH   2  23
TORSDOF 8
ENDMDL
MODEL 7
REMARK VINA RESULT:      -7.2      5.806     10.248
REMARK  8 active torsions:
REMARK  status: ('A' for Active; 'I' for Inactive)
REMARK    1  A    between atoms: O_1  and  C_22 
REMARK    2  A    between atoms: C_26  and  O_2 
REMARK    3  A    between atoms: C_27  and  O_3 
REMARK    4  A    between atoms: C_5  and  C_10 
REMARK    5  A    between atoms: C_10  and  C_16 
REMARK    6  A    between atoms: C_17  and  C_19 
REMARK    7  A    between atoms: C_18  and  C_20 
REMARK    8  A    between atoms: C_20  and  C_22 
ROOT
HETATM    1  C   UNK N   1      31.963  15.991   6.732  0.00  0.00    -0.032 C 
HETATM    2  C   UNK N   1      30.477  16.153   6.346  0.00  0.00     0.002 C 
HETATM    3  C   UNK N   1      31.820  15.811   8.248  0.00  0.00     0.023 C 
HETATM    4  C   UNK N   1      29.936  17.088   7.433  0.00  0.00     0.007 C 
HETATM    5  C   UNK N   1      30.844  16.906   8.646  0.00  0.00     0.010 C 
HETATM    6  C   UNK N   1      32.805  17.256   6.423  0.00  0.00     0.010 C 
HETATM    7  C   UNK N   1      33.128  15.937   8.975  0.00  0.00    -0.075 C 
HETATM    8  C   UNK N   1      32.612  14.773   6.075  0.00  0.00     0.016 C 
HETATM    9  C   UNK N   1      34.176  17.200   7.119  0.00  0.00     0.005 C 
HETATM   10  C   UNK N   1      34.000  17.124   8.637  0.00  0.00     0.034 C 
HETATM   11  C   UNK N   1      33.439  15.014   9.895  0.00  0.00     0.003 C 
ENDROOT
BRANCH  11  12
HETATM   12  C   UNK N   1      34.636  15.024  10.754  0.00  0.00     0.003 C 
HETATM   13  C   UNK N   1      35.431  13.947  10.813  0.00  0.00    -0.075 C 
HETATM   14  C   UNK N   1      35.122  12.689  10.047  0.00  0.00     0.066 C 
HETATM   15  C   UNK N   1      36.612  13.916  11.732  0.00  0.00     0.066 C 
HETATM   16  C   UNK N   1      34.967  11.543  11.042  0.00  0.00     0.124 C 
HETATM   17  C   UNK N   1      36.225  11.421  11.905  0.00  0.00     0.064 C 
HETATM   18  C   UNK N   1      36.465  12.721  12.681  0.00  0.00     0.124 C 
BRANCH  16  19
HETATM   19  O   UNK N   1      34.749  10.351  10.354  0.00  0.00    -0.395 OA
HETATM   20  H   UNK N   1      35.437   9.770   9.992  0.00  0.00     0.210 HD
ENDBRANCH  16  19
BRANCH  18  21
HETATM   21  O   UNK N   1      37.617  12.593  13.454  0.00  0.00    -0.395 OA
HETATM   22  H   UNK N   1      37.613  12.062  14.267  0.00  0.00     0.210 HD
ENDBRANCH  18  21
ENDBRANCH  11  12
BRANCH   2  23
HETATM   23  C   UNK N   1      30.125  16.682   4.935  0.00  0.00     0.008 C 
HETATM   24  C   UNK N   1      29.052  15.845   4.263  0.00  0.00     0.014 C 
BRANCH  23  25
HETATM   25  C   UNK N   1      29.592  18.091   5.013  0.00  0.00    -0.026 C 
HETATM   26  C   UNK N   1      28.305  18.389   4.813  0.00  0.00    -0.023 C 
BRANCH  26  27
HETATM   27  C   UNK N   1      27.824  19.813   4.805  0.00  0.00     0.037 C 
HETATM   28  C   UNK N   1      27.018  20.034   3.532  0.00  0.00     0.017 C 
BRANCH  27  29
HETATM   29  C   UNK N   1      27.023  20.217   6.061  0.00  0.00     0.057 C 
HETATM   30  C   UNK N   1      27.684  19.699   7.327  0.00  0.00     0.046 C 
HETATM   31  C   UNK N   1      26.962  21.731   6.175  0.00  0.00     0.046 C 
BRANCH  29  32
HETATM   32  O   UNK N   1      25.722  19.714   5.988  0.00  0.00    -0.390 OA
HETATM   33  H   UNK N   1      24.866  19.307   6.192  0.00  0.00     0.210 HD
ENDBRANCH  29  32
ENDBRANCH  27  29
ENDBRANCH  26  27
ENDBRANCH  23  25
ENDBRANCH   2  23
TORSDOF 8
ENDMDL
MODEL 8
REMARK VINA RESULT:      -7.2     10.748     16.046
REMARK  8 active torsions:
REMARK  status: ('A' for Active; 'I' for Inactive)
REMARK    1  A    between atoms: O_1  and  C_22 
REMARK    2  A    between atoms: C_26  and  O_2 
REMARK    3  A    between atoms: C_27  and  O_3 
REMARK    4  A    between atoms: C_5  and  C_10 
REMARK    5  A    between atoms: C_10  and  C_16 
REMARK    6  A    between atoms: C_17  and  C_19 
REMARK    7  A    between atoms: C_18  and  C_20 
REMARK    8  A    between atoms: C_20  and  C_22 
ROOT
HETATM    1  C   UNK N   1      25.456  16.172   5.316  0.00  0.00    -0.032 C 
HETATM    2  C   UNK N   1      24.043  16.789   5.353  0.00  0.00     0.002 C 
HETATM    3  C   UNK N   1      26.284  17.432   5.041  0.00  0.00     0.023 C 
HETATM    4  C   UNK N   1      24.055  17.756   4.163  0.00  0.00     0.007 C 
HETATM    5  C   UNK N   1      25.516  18.126   3.927  0.00  0.00     0.010 C 
HETATM    6  C   UNK N   1      25.637  15.154   4.161  0.00  0.00     0.010 C 
HETATM    7  C   UNK N   1      27.698  17.124   4.636  0.00  0.00    -0.075 C 
HETATM    8  C   UNK N   1      25.847  15.516   6.640  0.00  0.00     0.016 C 
HETATM    9  C   UNK N   1      27.122  14.819   3.936  0.00  0.00     0.005 C 
HETATM   10  C   UNK N   1      27.902  16.081   3.562  0.00  0.00     0.034 C 
HETATM   11  C   UNK N   1      28.692  17.803   5.224  0.00  0.00     0.003 C 
ENDROOT
BRANCH  11  12
HETATM   12  C   UNK N   1      30.124  17.686   4.896  0.00  0.00     0.003 C 
HETATM   13  C   UNK N   1      30.968  17.106   5.761  0.00  0.00    -0.075 C 
HETATM   14  C   UNK N   1      30.504  16.590   7.096  0.00  0.00     0.066 C 
HETATM   15  C   UNK N   1      32.435  17.041   5.473  0.00  0.00     0.066 C 
HETATM   16  C   UNK N   1      31.274  17.323   8.191  0.00  0.00     0.124 C 
HETATM   17  C   UNK N   1      32.780  17.157   7.978  0.00  0.00     0.064 C 
HETATM   18  C   UNK N   1      33.191  17.729   6.616  0.00  0.00     0.124 C 
BRANCH  16  19
HETATM   19  O   UNK N   1      30.914  16.814   9.437  0.00  0.00    -0.395 OA
HETATM   20  H   UNK N   1      30.786  15.877   9.653  0.00  0.00     0.210 HD
ENDBRANCH  16  19
BRANCH  18  21
HETATM   21  O   UNK N   1      34.562  17.563   6.438  0.00  0.00    -0.395 OA
HETATM   22  H   UNK N   1      34.951  17.562   5.548  0.00  0.00     0.210 HD
ENDBRANCH  18  21
ENDBRANCH  11  12
BRANCH   2  23
HETATM   23  C   UNK N   1      22.815  15.849   5.289  0.00  0.00     0.008 C 
HETATM   24  C   UNK N   1      22.155  15.680   6.646  0.00  0.00     0.014 C 
BRANCH  23  25
HETATM   25  C   UNK N   1      21.764  16.409   4.362  0.00  0.00    -0.026 C 
HETATM   26  C   UNK N   1      21.111  15.656   3.472  0.00  0.00    -0.023 C 
BRANCH  26  27
HETATM   27  C   UNK N   1      20.138  16.262   2.499  0.00  0.00     0.037 C 
HETATM   28  C   UNK N   1      20.298  17.775   2.551  0.00  0.00     0.017 C 
BRANCH  27  29
HETATM   29  C   UNK N   1      20.269  15.725   1.058  0.00  0.00     0.057 C 
HETATM   30  C   UNK N   1      19.326  14.559   0.817  0.00  0.00     0.046 C 
HETATM   31  C   UNK N   1      19.900  16.813   0.063  0.00  0.00     0.046 C 
BRANCH  29  32
HETATM   32  O   UNK N   1      21.579  15.310   0.813  0.00  0.00    -0.390 OA
HETATM   33  H   UNK N   1      22.511  15.269   0.546  0.00  0.00     0.210 HD
ENDBRANCH  29  32
ENDBRANCH  27  29
ENDBRANCH  26  27
ENDBRANCH  23  25
ENDBRANCH   2  23
TORSDOF 8
ENDMDL
MODEL 9
REMARK VINA RESULT:      -7.1      2.024      9.472
REMARK  8 active torsions:
REMARK  status: ('A' for Active; 'I' for Inactive)
REMARK    1  A    between atoms: O_1  and  C_22 
REMARK    2  A    between atoms: C_26  and  O_2 
REMARK    3  A    between atoms: C_27  and  O_3 
REMARK    4  A    between atoms: C_5  and  C_10 
REMARK    5  A    between atoms: C_10  and  C_16 
REMARK    6  A    between atoms: C_17  and  C_19 
REMARK    7  A    between atoms: C_18  and  C_20 
REMARK    8  A    between atoms: C_20  and  C_22 
ROOT
HETATM    1  C   UNK N   1      35.943  10.498  16.792  0.00  0.00    -0.032 C 
HETATM    2  C   UNK N   1      36.232  10.372  18.303  0.00  0.00     0.002 C 
HETATM    3  C   UNK N   1      35.984  12.023  16.646  0.00  0.00     0.023 C 
HETATM    4  C   UNK N   1      35.362  11.475  18.916  0.00  0.00     0.007 C 
HETATM    5  C   UNK N   1      35.155  12.517  17.821  0.00  0.00     0.010 C 
HETATM    6  C   UNK N   1      34.541   9.964  16.403  0.00  0.00     0.010 C 
HETATM    7  C   UNK N   1      35.430  12.497  15.332  0.00  0.00    -0.075 C 
HETATM    8  C   UNK N   1      37.006   9.816  15.931  0.00  0.00     0.016 C 
HETATM    9  C   UNK N   1      34.146  10.407  14.983  0.00  0.00     0.005 C 
HETATM   10  C   UNK N   1      34.096  11.934  14.896  0.00  0.00     0.034 C 
HETATM   11  C   UNK N   1      36.126  13.405  14.636  0.00  0.00     0.003 C 
ENDROOT
BRANCH  11  12
HETATM   12  C   UNK N   1      35.697  14.036  13.375  0.00  0.00     0.003 C 
HETATM   13  C   UNK N   1      35.825  13.376  12.215  0.00  0.00    -0.075 C 
HETATM   14  C   UNK N   1      36.436  12.003  12.146  0.00  0.00     0.066 C 
HETATM   15  C   UNK N   1      35.458  14.028  10.918  0.00  0.00     0.066 C 
HETATM   16  C   UNK N   1      37.661  12.063  11.239  0.00  0.00     0.124 C 
HETATM   17  C   UNK N   1      37.272  12.612   9.864  0.00  0.00     0.064 C 
HETATM   18  C   UNK N   1      36.686  14.021  10.000  0.00  0.00     0.124 C 
BRANCH  16  19
HETATM   19  O   UNK N   1      38.206  10.788  11.102  0.00  0.00    -0.395 OA
HETATM   20  H   UNK N   1      39.120  10.586  10.844  0.00  0.00     0.210 HD
ENDBRANCH  16  19
BRANCH  18  21
HETATM   21  O   UNK N   1      36.332  14.500   8.741  0.00  0.00    -0.395 OA
HETATM   22  H   UNK N   1      35.401  14.649   8.510  0.00  0.00     0.210 HD
ENDBRANCH  18  21
ENDBRANCH  11  12
BRANCH   2  23
HETATM   23  C   UNK N   1      35.978   9.015  19.002  0.00  0.00     0.008 C 
HETATM   24  C   UNK N   1      37.131   8.614  19.904  0.00  0.00     0.014 C 
BRANCH  23  25
HETATM   25  C   UNK N   1      34.749   9.087  19.874  0.00  0.00    -0.026 C 
HETATM   26  C   UNK N   1      34.243   8.021  20.499  0.00  0.00    -0.023 C 
BRANCH  26  27
HETATM   27  C   UNK N   1      32.964   8.108  21.284  0.00  0.00     0.037 C 
HETATM   28  C   UNK N   1      32.568   9.574  21.382  0.00  0.00     0.017 C 
BRANCH  27  29
HETATM   29  C   UNK N   1      31.815   7.246  20.719  0.00  0.00     0.057 C 
HETATM   30  C   UNK N   1      30.743   8.109  20.077  0.00  0.00     0.046 C 
HETATM   31  C   UNK N   1      32.345   6.314  19.642  0.00  0.00     0.046 C 
BRANCH  29  32
HETATM   32  O   UNK N   1      31.237   6.482  21.735  0.00  0.00    -0.390 OA
HETATM   33  H   UNK N   1      30.696   5.853  22.238  0.00  0.00     0.210 HD
ENDBRANCH  29  32
ENDBRANCH  27  29
ENDBRANCH  26  27
ENDBRANCH  23  25
ENDBRANCH   2  23
TORSDOF 8
ENDMDL
