MODEL 1
REMARK VINA RESULT:      -5.0      0.000      0.000
REMARK  5 active torsions:
REMARK  status: ('A' for Active; 'I' for Inactive)
REMARK    1  A    between atoms: S_1  and  C_10 
REMARK    2  A    between atoms: S_1  and  C_12 
REMARK    3  A    between atoms: N_6  and  C_11 
REMARK    4  A    between atoms: N_9  and  C_14 
REMARK    5  A    between atoms: C_10  and  C_11 
ROOT
HETATM    1  N   UNK N   1      26.219  25.915  -4.311  0.00  0.00    -0.316 N 
HETATM    2  N   UNK N   1      25.259  24.787  -5.987  0.00  0.00    -0.352 N 
ATOM      3  HN  UNK N   1      24.683  24.574  -6.800  1.00  0.00     0.166 HD
HETATM    4  C   UNK N   1      25.364  25.974  -5.350  0.00  0.00     0.081 A 
HETATM    5  C   UNK N   1      26.662  24.645  -4.285  0.00  0.00     0.192 A 
HETATM    6  C   UNK N   1      26.076  23.942  -5.318  0.00  0.00     0.144 A 
HETATM    7  C   UNK N   1      24.607  27.191  -5.757  0.00  0.00     0.089 C 
ENDROOT
BRANCH   1   8
HETATM    8  C   UNK N   1      26.564  26.988  -3.391  0.00  0.00     0.147 C 
BRANCH   8   9
HETATM    9  C   UNK N   1      27.903  27.662  -3.762  0.00  0.00     0.160 C 
BRANCH   9  10
HETATM   10  S   UNK N   1      28.048  29.456  -3.307  0.00  0.00     0.145 S 
HETATM   11  O   UNK N   1      29.450  29.172  -2.751  0.00  0.00    -0.228 OA
HETATM   12  O   UNK N   1      27.241  28.803  -2.173  0.00  0.00    -0.228 OA
BRANCH  10  13
HETATM   13  C   UNK N   1      27.945  30.613  -1.909  0.00  0.00     0.136 C 
HETATM   14  C   UNK N   1      28.279  29.931  -0.601  0.00  0.00     0.021 C 
ENDBRANCH  10  13
ENDBRANCH   9  10
ENDBRANCH   8   9
ENDBRANCH   1   8
BRANCH   5  15
HETATM   15  N   UNK N   1      27.575  24.109  -3.335  0.00  0.00    -0.096 N 
HETATM   16  O   UNK N   1      27.131  23.654  -2.183  0.00  0.00    -0.530 OA
HETATM   17  O   UNK N   1      28.746  24.077  -3.566  0.00  0.00    -0.530 OA
ENDBRANCH   5  15
TORSDOF 5
ENDMDL
MODEL 2
REMARK VINA RESULT:      -5.0      2.991      5.011
REMARK  5 active torsions:
REMARK  status: ('A' for Active; 'I' for Inactive)
REMARK    1  A    between atoms: S_1  and  C_10 
REMARK    2  A    between atoms: S_1  and  C_12 
REMARK    3  A    between atoms: N_6  and  C_11 
REMARK    4  A    between atoms: N_9  and  C_14 
REMARK    5  A    between atoms: C_10  and  C_11 
ROOT
HETATM    1  N   UNK N   1      26.309  25.148  -4.561  0.00  0.00    -0.316 N 
HETATM    2  N   UNK N   1      25.239  25.587  -6.476  0.00  0.00    -0.352 N 
ATOM      3  HN  UNK N   1      24.802  25.459  -7.387  1.00  0.00     0.166 HD
HETATM    4  C   UNK N   1      25.836  24.643  -5.716  0.00  0.00     0.081 A 
HETATM    5  C   UNK N   1      26.008  26.459  -4.595  0.00  0.00     0.192 A 
HETATM    6  C   UNK N   1      25.345  26.738  -5.773  0.00  0.00     0.144 A 
HETATM    7  C   UNK N   1      25.959  23.216  -6.131  0.00  0.00     0.089 C 
ENDROOT
BRANCH   1   8
HETATM    8  C   UNK N   1      27.023  24.435  -3.513  0.00  0.00     0.147 C 
BRANCH   8   9
HETATM    9  C   UNK N   1      28.552  24.476  -3.722  0.00  0.00     0.160 C 
BRANCH   9  10
HETATM   10  S   UNK N   1      29.520  23.193  -2.791  0.00  0.00     0.145 S 
HETATM   11  O   UNK N   1      30.608  24.244  -2.533  0.00  0.00    -0.228 OA
HETATM   12  O   UNK N   1      29.823  22.945  -4.279  0.00  0.00    -0.228 OA
BRANCH  10  13
HETATM   13  C   UNK N   1      30.932  22.056  -2.929  0.00  0.00     0.136 C 
HETATM   14  C   UNK N   1      30.605  20.871  -3.811  0.00  0.00     0.021 C 
ENDBRANCH  10  13
ENDBRANCH   9  10
ENDBRANCH   8   9
ENDBRANCH   1   8
BRANCH   5  15
HETATM   15  N   UNK N   1      26.335  27.407  -3.587  0.00  0.00    -0.096 N 
HETATM   16  O   UNK N   1      27.559  27.881  -3.506  0.00  0.00    -0.530 OA
HETATM   17  O   UNK N   1      25.512  27.771  -2.803  0.00  0.00    -0.530 OA
ENDBRANCH   5  15
TORSDOF 5
ENDMDL
MODEL 3
REMARK VINA RESULT:      -4.9      3.379      5.371
REMARK  5 active torsions:
REMARK  status: ('A' for Active; 'I' for Inactive)
REMARK    1  A    between atoms: S_1  and  C_10 
REMARK    2  A    between atoms: S_1  and  C_12 
REMARK    3  A    between atoms: N_6  and  C_11 
REMARK    4  A    between atoms: N_9  and  C_14 
REMARK    5  A    between atoms: C_10  and  C_11 
ROOT
HETATM    1  N   UNK N   1      28.315  26.224  -4.069  0.00  0.00    -0.316 N 
HETATM    2  N   UNK N   1      27.191  28.056  -3.447  0.00  0.00    -0.352 N 
ATOM      3  HN  UNK N   1      26.971  29.031  -3.248  1.00  0.00     0.166 HD
HETATM    4  C   UNK N   1      28.360  27.561  -3.910  0.00  0.00     0.081 A 
HETATM    5  C   UNK N   1      27.078  25.861  -3.685  0.00  0.00     0.192 A 
HETATM    6  C   UNK N   1      26.376  26.986  -3.301  0.00  0.00     0.144 A 
HETATM    7  C   UNK N   1      29.552  28.409  -4.195  0.00  0.00     0.089 C 
ENDROOT
BRANCH   1   8
HETATM    8  C   UNK N   1      29.387  25.354  -4.527  0.00  0.00     0.147 C 
BRANCH   8   9
HETATM    9  C   UNK N   1      30.239  24.818  -3.357  0.00  0.00     0.160 C 
BRANCH   9  10
HETATM   10  S   UNK N   1      30.320  22.968  -3.209  0.00  0.00     0.145 S 
HETATM   11  O   UNK N   1      30.626  23.131  -1.714  0.00  0.00    -0.228 OA
HETATM   12  O   UNK N   1      31.693  23.404  -3.748  0.00  0.00    -0.228 OA
BRANCH  10  13
HETATM   13  C   UNK N   1      31.475  21.570  -3.090  0.00  0.00     0.136 C 
HETATM   14  C   UNK N   1      31.189  20.523  -4.143  0.00  0.00     0.021 C 
ENDBRANCH  10  13
ENDBRANCH   9  10
ENDBRANCH   8   9
ENDBRANCH   1   8
BRANCH   5  15
HETATM   15  N   UNK N   1      26.579  24.529  -3.662  0.00  0.00    -0.096 N 
HETATM   16  O   UNK N   1      26.790  23.768  -2.609  0.00  0.00    -0.530 OA
HETATM   17  O   UNK N   1      25.978  24.088  -4.594  0.00  0.00    -0.530 OA
ENDBRANCH   5  15
TORSDOF 5
ENDMDL
MODEL 4
REMARK VINA RESULT:      -4.8     14.060     15.489
REMARK  5 active torsions:
REMARK  status: ('A' for Active; 'I' for Inactive)
REMARK    1  A    between atoms: S_1  and  C_10 
REMARK    2  A    between atoms: S_1  and  C_12 
REMARK    3  A    between atoms: N_6  and  C_11 
REMARK    4  A    between atoms: N_9  and  C_14 
REMARK    5  A    between atoms: C_10  and  C_11 
ROOT
HETATM    1  N   UNK N   1      30.005  17.405   7.261  0.00  0.00    -0.316 N 
HETATM    2  N   UNK N   1      28.609  18.339   5.784  0.00  0.00    -0.352 N 
ATOM      3  HN  UNK N   1      28.206  18.648   4.900  1.00  0.00     0.166 HD
HETATM    4  C   UNK N   1      29.765  17.664   5.961  0.00  0.00     0.081 A 
HETATM    5  C   UNK N   1      28.969  17.943   7.929  0.00  0.00     0.192 A 
HETATM    6  C   UNK N   1      28.100  18.520   7.024  0.00  0.00     0.144 A 
HETATM    7  C   UNK N   1      30.664  17.270   4.839  0.00  0.00     0.089 C 
ENDROOT
BRANCH   1   8
HETATM    8  C   UNK N   1      31.156  16.718   7.826  0.00  0.00     0.147 C 
BRANCH   8   9
HETATM    9  C   UNK N   1      32.357  17.668   8.028  0.00  0.00     0.160 C 
BRANCH   9  10
HETATM   10  S   UNK N   1      34.030  16.913   7.745  0.00  0.00     0.145 S 
HETATM   11  O   UNK N   1      34.220  17.855   6.549  0.00  0.00    -0.228 OA
HETATM   12  O   UNK N   1      33.023  15.952   7.090  0.00  0.00    -0.228 OA
BRANCH  10  13
HETATM   13  C   UNK N   1      34.931  15.728   6.701  0.00  0.00     0.136 C 
HETATM   14  C   UNK N   1      34.329  15.641   5.317  0.00  0.00     0.021 C 
ENDBRANCH  10  13
ENDBRANCH   9  10
ENDBRANCH   8   9
ENDBRANCH   1   8
BRANCH   5  15
HETATM   15  N   UNK N   1      28.803  17.933   9.341  0.00  0.00    -0.096 N 
HETATM   16  O   UNK N   1      29.508  18.752  10.090  0.00  0.00    -0.530 OA
HETATM   17  O   UNK N   1      28.035  17.179   9.859  0.00  0.00    -0.530 OA
ENDBRANCH   5  15
TORSDOF 5
ENDMDL
MODEL 5
REMARK VINA RESULT:      -4.8     13.953     15.000
REMARK  5 active torsions:
REMARK  status: ('A' for Active; 'I' for Inactive)
REMARK    1  A    between atoms: S_1  and  C_10 
REMARK    2  A    between atoms: S_1  and  C_12 
REMARK    3  A    between atoms: N_6  and  C_11 
REMARK    4  A    between atoms: N_9  and  C_14 
REMARK    5  A    between atoms: C_10  and  C_11 
ROOT
HETATM    1  N   UNK N   1      31.745  17.071   6.035  0.00  0.00    -0.316 N 
HETATM    2  N   UNK N   1      31.460  17.653   3.894  0.00  0.00    -0.352 N 
ATOM      3  HN  UNK N   1      31.011  17.865   3.003  1.00  0.00     0.166 HD
HETATM    4  C   UNK N   1      30.859  17.264   5.039  0.00  0.00     0.081 A 
HETATM    5  C   UNK N   1      32.949  17.339   5.497  0.00  0.00     0.192 A 
HETATM    6  C   UNK N   1      32.782  17.702   4.176  0.00  0.00     0.144 A 
HETATM    7  C   UNK N   1      29.387  17.065   5.164  0.00  0.00     0.089 C 
ENDROOT
BRANCH   1   8
HETATM    8  C   UNK N   1      31.464  16.633   7.393  0.00  0.00     0.147 C 
BRANCH   8   9
HETATM    9  C   UNK N   1      31.356  17.821   8.374  0.00  0.00     0.160 C 
BRANCH   9  10
HETATM   10  S   UNK N   1      29.661  18.561   8.547  0.00  0.00     0.145 S 
HETATM   11  O   UNK N   1      29.955  18.811  10.033  0.00  0.00    -0.228 OA
HETATM   12  O   UNK N   1      29.461  17.039   8.632  0.00  0.00    -0.228 OA
BRANCH  10  13
HETATM   13  C   UNK N   1      27.979  18.215   9.144  0.00  0.00     0.136 C 
HETATM   14  C   UNK N   1      27.515  16.839   8.724  0.00  0.00     0.021 C 
ENDBRANCH  10  13
ENDBRANCH   9  10
ENDBRANCH   8   9
ENDBRANCH   1   8
BRANCH   5  15
HETATM   15  N   UNK N   1      34.195  17.247   6.177  0.00  0.00    -0.096 N 
HETATM   16  O   UNK N   1      34.946  16.178   6.028  0.00  0.00    -0.530 OA
HETATM   17  O   UNK N   1      34.564  18.129   6.893  0.00  0.00    -0.530 OA
ENDBRANCH   5  15
TORSDOF 5
ENDMDL
MODEL 6
REMARK VINA RESULT:      -4.8     12.331     13.978
REMARK  5 active torsions:
REMARK  status: ('A' for Active; 'I' for Inactive)
REMARK    1  A    between atoms: S_1  and  C_10 
REMARK    2  A    between atoms: S_1  and  C_12 
REMARK    3  A    between atoms: N_6  and  C_11 
REMARK    4  A    between atoms: N_9  and  C_14 
REMARK    5  A    between atoms: C_10  and  C_11 
ROOT
HETATM    1  N   UNK N   1      22.702  18.700   3.943  0.00  0.00    -0.316 N 
HETATM    2  N   UNK N   1      24.541  19.835   3.364  0.00  0.00    -0.352 N 
ATOM      3  HN  UNK N   1      25.521  20.096   3.262  1.00  0.00     0.166 HD
HETATM    4  C   UNK N   1      24.047  18.749   3.997  0.00  0.00     0.081 A 
HETATM    5  C   UNK N   1      22.333  19.798   3.260  0.00  0.00     0.192 A 
HETATM    6  C   UNK N   1      23.462  20.504   2.896  0.00  0.00     0.144 A 
HETATM    7  C   UNK N   1      24.905  17.739   4.681  0.00  0.00     0.089 C 
ENDROOT
BRANCH   1   8
HETATM    8  C   UNK N   1      21.832  17.692   4.528  0.00  0.00     0.147 C 
BRANCH   8   9
HETATM    9  C   UNK N   1      21.347  18.092   5.938  0.00  0.00     0.160 C 
BRANCH   9  10
HETATM   10  S   UNK N   1      21.063  16.683   7.115  0.00  0.00     0.145 S 
HETATM   11  O   UNK N   1      19.734  16.395   6.403  0.00  0.00    -0.228 OA
HETATM   12  O   UNK N   1      20.621  17.950   7.867  0.00  0.00    -0.228 OA
BRANCH  10  13
HETATM   13  C   UNK N   1      20.140  16.198   8.604  0.00  0.00     0.136 C 
HETATM   14  C   UNK N   1      18.852  16.979   8.736  0.00  0.00     0.021 C 
ENDBRANCH  10  13
ENDBRANCH   9  10
ENDBRANCH   8   9
ENDBRANCH   1   8
BRANCH   5  15
HETATM   15  N   UNK N   1      20.993  20.179   2.972  0.00  0.00    -0.096 N 
HETATM   16  O   UNK N   1      20.468  19.895   1.800  0.00  0.00    -0.530 OA
HETATM   17  O   UNK N   1      20.339  20.766   3.781  0.00  0.00    -0.530 OA
ENDBRANCH   5  15
TORSDOF 5
ENDMDL
MODEL 7
REMARK VINA RESULT:      -4.8     19.635     20.955
REMARK  5 active torsions:
REMARK  status: ('A' for Active; 'I' for Inactive)
REMARK    1  A    between atoms: S_1  and  C_10 
REMARK    2  A    between atoms: S_1  and  C_12 
REMARK    3  A    between atoms: N_6  and  C_11 
REMARK    4  A    between atoms: N_9  and  C_14 
REMARK    5  A    between atoms: C_10  and  C_11 
ROOT
HETATM    1  N   UNK N   1      36.807  14.243  11.172  0.00  0.00    -0.316 N 
HETATM    2  N   UNK N   1      37.818  12.270  10.880  0.00  0.00    -0.352 N 
ATOM      3  HN  UNK N   1      38.331  11.504  10.444  1.00  0.00     0.166 HD
HETATM    4  C   UNK N   1      37.482  13.451  10.317  0.00  0.00     0.081 A 
HETATM    5  C   UNK N   1      36.706  13.535  12.311  0.00  0.00     0.192 A 
HETATM    6  C   UNK N   1      37.330  12.316  12.141  0.00  0.00     0.144 A 
HETATM    7  C   UNK N   1      37.816  13.812   8.910  0.00  0.00     0.089 C 
ENDROOT
BRANCH   1   8
HETATM    8  C   UNK N   1      36.272  15.570  10.909  0.00  0.00     0.147 C 
BRANCH   8   9
HETATM    9  C   UNK N   1      34.742  15.548  10.703  0.00  0.00     0.160 C 
BRANCH   9  10
HETATM   10  S   UNK N   1      34.112  16.572   9.288  0.00  0.00     0.145 S 
HETATM   11  O   UNK N   1      34.986  15.742   8.338  0.00  0.00    -0.228 OA
HETATM   12  O   UNK N   1      35.237  17.400   9.932  0.00  0.00    -0.228 OA
BRANCH  10  13
HETATM   13  C   UNK N   1      34.552  17.942   8.177  0.00  0.00     0.136 C 
HETATM   14  C   UNK N   1      33.822  17.840   6.856  0.00  0.00     0.021 C 
ENDBRANCH  10  13
ENDBRANCH   9  10
ENDBRANCH   8   9
ENDBRANCH   1   8
BRANCH   5  15
HETATM   15  N   UNK N   1      36.049  13.967  13.496  0.00  0.00    -0.096 N 
HETATM   16  O   UNK N   1      36.684  14.734  14.356  0.00  0.00    -0.530 OA
HETATM   17  O   UNK N   1      34.926  13.633  13.726  0.00  0.00    -0.530 OA
ENDBRANCH   5  15
TORSDOF 5
ENDMDL
MODEL 8
REMARK VINA RESULT:      -4.7     13.084     14.507
REMARK  5 active torsions:
REMARK  status: ('A' for Active; 'I' for Inactive)
REMARK    1  A    between atoms: S_1  and  C_10 
REMARK    2  A    between atoms: S_1  and  C_12 
REMARK    3  A    between atoms: N_6  and  C_11 
REMARK    4  A    between atoms: N_9  and  C_14 
REMARK    5  A    between atoms: C_10  and  C_11 
ROOT
HETATM    1  N   UNK N   1      30.160  16.990   7.627  0.00  0.00    -0.316 N 
HETATM    2  N   UNK N   1      31.858  17.340   9.039  0.00  0.00    -0.352 N 
ATOM      3  HN  UNK N   1      32.402  17.699   9.823  1.00  0.00     0.166 HD
HETATM    4  C   UNK N   1      30.580  17.645   8.726  0.00  0.00     0.081 A 
HETATM    5  C   UNK N   1      31.211  16.253   7.226  0.00  0.00     0.192 A 
HETATM    6  C   UNK N   1      32.264  16.461   8.095  0.00  0.00     0.144 A 
HETATM    7  C   UNK N   1      29.751  18.605   9.509  0.00  0.00     0.089 C 
ENDROOT
BRANCH   1   8
HETATM    8  C   UNK N   1      28.856  17.085   6.987  0.00  0.00     0.147 C 
BRANCH   8   9
HETATM    9  C   UNK N   1      28.866  18.062   5.791  0.00  0.00     0.160 C 
BRANCH   9  10
HETATM   10  S   UNK N   1      27.259  18.929   5.454  0.00  0.00     0.145 S 
HETATM   11  O   UNK N   1      27.991  19.832   4.452  0.00  0.00    -0.228 OA
HETATM   12  O   UNK N   1      27.812  19.562   6.742  0.00  0.00    -0.228 OA
BRANCH  10  13
HETATM   13  C   UNK N   1      26.318  20.439   5.824  0.00  0.00     0.136 C 
HETATM   14  C   UNK N   1      27.225  21.556   6.292  0.00  0.00     0.021 C 
ENDBRANCH  10  13
ENDBRANCH   9  10
ENDBRANCH   8   9
ENDBRANCH   1   8
BRANCH   5  15
HETATM   15  N   UNK N   1      31.239  15.408   6.083  0.00  0.00    -0.096 N 
HETATM   16  O   UNK N   1      31.573  15.902   4.910  0.00  0.00    -0.530 OA
HETATM   17  O   UNK N   1      30.952  14.252   6.172  0.00  0.00    -0.530 OA
ENDBRANCH   5  15
TORSDOF 5
ENDMDL
MODEL 9
REMARK VINA RESULT:      -4.7     10.745     11.825
REMARK  5 active torsions:
REMARK  status: ('A' for Active; 'I' for Inactive)
REMARK    1  A    between atoms: S_1  and  C_10 
REMARK    2  A    between atoms: S_1  and  C_12 
REMARK    3  A    between atoms: N_6  and  C_11 
REMARK    4  A    between atoms: N_9  and  C_14 
REMARK    5  A    between atoms: C_10  and  C_11 
ROOT
HETATM    1  N   UNK N   1      21.977  17.963   3.619  0.00  0.00    -0.316 N 
HETATM    2  N   UNK N   1      20.653  16.778   2.261  0.00  0.00    -0.352 N 
ATOM      3  HN  UNK N   1      20.227  15.988   1.777  1.00  0.00     0.166 HD
HETATM    4  C   UNK N   1      21.651  16.736   3.170  0.00  0.00     0.081 A 
HETATM    5  C   UNK N   1      21.162  18.811   2.965  0.00  0.00     0.192 A 
HETATM    6  C   UNK N   1      20.339  18.087   2.126  0.00  0.00     0.144 A 
HETATM    7  C   UNK N   1      22.312  15.472   3.603  0.00  0.00     0.089 C 
ENDROOT
BRANCH   1   8
HETATM    8  C   UNK N   1      23.013  18.304   4.583  0.00  0.00     0.147 C 
BRANCH   8   9
HETATM    9  C   UNK N   1      24.390  18.495   3.911  0.00  0.00     0.160 C 
BRANCH   9  10
HETATM   10  S   UNK N   1      25.378  19.946   4.514  0.00  0.00     0.145 S 
HETATM   11  O   UNK N   1      25.807  20.218   3.066  0.00  0.00    -0.228 OA
HETATM   12  O   UNK N   1      26.261  18.710   4.760  0.00  0.00    -0.228 OA
BRANCH  10  13
HETATM   13  C   UNK N   1      27.068  20.490   4.906  0.00  0.00     0.136 C 
HETATM   14  C   UNK N   1      27.080  21.483   6.047  0.00  0.00     0.021 C 
ENDBRANCH  10  13
ENDBRANCH   9  10
ENDBRANCH   8   9
ENDBRANCH   1   8
BRANCH   5  15
HETATM   15  N   UNK N   1      21.160  20.226   3.105  0.00  0.00    -0.096 N 
HETATM   16  O   UNK N   1      22.018  20.953   2.422  0.00  0.00    -0.530 OA
HETATM   17  O   UNK N   1      20.393  20.764   3.845  0.00  0.00    -0.530 OA
ENDBRANCH   5  15
TORSDOF 5
ENDMDL
