MODEL 1
REMARK VINA RESULT:      -7.4      0.000      0.000
REMARK  11 active torsions:
REMARK  status: ('A' for Active; 'I' for Inactive)
REMARK    1  A    between atoms: O_2  and  C_28 
REMARK    2  A    between atoms: O_2  and  C_32 
REMARK    3  A    between atoms: O_3  and  C_31 
REMARK    4  A    between atoms: N_5  and  C_13 
REMARK    5  A    between atoms: C_12  and  N_6 
REMARK       I    between atoms: N_6  and  C_23 
REMARK    6  A    between atoms: C_12  and  C_14 
REMARK    7  A    between atoms: C_12  and  C_15 
REMARK    8  A    between atoms: C_15  and  C_16 
REMARK    9  A    between atoms: C_23  and  C_24 
REMARK   10  A    between atoms: C_24  and  C_25 
REMARK   11  A    between atoms: C_30  and  C_31 
ROOT
HETATM    1  O   UNK N   1      26.044  16.037   4.219  0.00  0.00    -0.273 OA
HETATM    2  N   UNK N   1      26.353  17.438   5.940  0.00  0.00    -0.352 N 
HETATM    3  C   UNK N   1      25.598  16.569   5.224  0.00  0.00     0.222 C 
HETATM    4  H   UNK N   1      25.970  17.822   6.762  0.00  0.00     0.163 HD
ENDROOT
BRANCH   2   5
HETATM    5  C   UNK N   1      27.697  17.830   5.555  0.00  0.00     0.120 C 
BRANCH   5   6
HETATM    6  C   UNK N   1      28.683  17.798   6.739  0.00  0.00    -0.009 A 
HETATM    7  C   UNK N   1      30.064  17.358   6.751  0.00  0.00     0.038 A 
HETATM    8  C   UNK N   1      30.722  17.274   7.998  0.00  0.00     0.030 A 
HETATM    9  C   UNK N   1      30.105  17.626   9.190  0.00  0.00     0.002 A 
HETATM   10  C   UNK N   1      28.790  18.053   9.181  0.00  0.00     0.001 A 
HETATM   11  C   UNK N   1      28.094  18.115   7.980  0.00  0.00     0.011 A 
BRANCH   7  12
HETATM   12  N   UNK N   1      30.832  16.968   5.602  0.00  0.00    -0.380 N 
HETATM   13  C   UNK N   1      32.231  17.292   5.453  0.00  0.00     0.123 C 
HETATM   14  C   UNK N   1      32.514  17.694   4.001  0.00  0.00     0.020 C 
HETATM   15  C   UNK N   1      31.983  16.641   3.028  0.00  0.00     0.003 C 
HETATM   16  C   UNK N   1      30.505  16.361   3.288  0.00  0.00     0.020 C 
HETATM   17  C   UNK N   1      30.328  15.922   4.736  0.00  0.00     0.123 C 
ENDBRANCH   7  12
ENDBRANCH   5   6
BRANCH   5  18
HETATM   18  C   UNK N   1      27.704  18.934   4.506  0.00  0.00     0.034 C 
BRANCH  18  19
HETATM   19  C   UNK N   1      26.600  19.967   4.670  0.00  0.00    -0.021 C 
HETATM   20  C   UNK N   1      26.221  20.500   3.306  0.00  0.00     0.009 C 
HETATM   21  C   UNK N   1      27.107  21.128   5.505  0.00  0.00     0.009 C 
ENDBRANCH  18  19
ENDBRANCH   5  18
ENDBRANCH   2   5
BRANCH   3  22
HETATM   22  C   UNK N   1      24.201  16.263   5.663  0.00  0.00     0.141 C 
BRANCH  22  23
HETATM   23  C   UNK N   1      23.161  16.973   4.846  0.00  0.00    -0.047 A 
HETATM   24  C   UNK N   1      22.062  16.248   4.392  0.00  0.00     0.045 A 
HETATM   25  C   UNK N   1      21.090  16.848   3.571  0.00  0.00     0.086 A 
HETATM   26  C   UNK N   1      21.236  18.207   3.200  0.00  0.00     0.071 A 
HETATM   27  C   UNK N   1      22.338  18.930   3.676  0.00  0.00     0.022 A 
HETATM   28  C   UNK N   1      23.291  18.320   4.489  0.00  0.00     0.009 A 
BRANCH  25  29
HETATM   29  O   UNK N   1      20.025  16.130   3.127  0.00  0.00    -0.350 OA
BRANCH  29  30
HETATM   30  C   UNK N   1      20.130  14.985   2.362  0.00  0.00     0.171 C 
HETATM   31  C   UNK N   1      20.725  15.308   1.003  0.00  0.00     0.034 C 
ENDBRANCH  29  30
ENDBRANCH  25  29
BRANCH  26  32
HETATM   32  C   UNK N   1      20.269  18.901   2.315  0.00  0.00     0.178 C 
HETATM   33  O   UNK N   1      20.629  19.819   1.591  0.00  0.00    -0.646 OA
BRANCH  32  34
HETATM   34  O   UNK N   1      18.973  18.536   2.314  0.00  0.00    -0.773 OA
HETATM   35  H   UNK N   1      18.588  17.989   2.970  0.00  0.00     0.167 HD
ENDBRANCH  32  34
ENDBRANCH  26  32
ENDBRANCH  22  23
ENDBRANCH   3  22
TORSDOF 11
ENDMDL
MODEL 2
REMARK VINA RESULT:      -7.1      4.585     10.218
REMARK  11 active torsions:
REMARK  status: ('A' for Active; 'I' for Inactive)
REMARK    1  A    between atoms: O_2  and  C_28 
REMARK    2  A    between atoms: O_2  and  C_32 
REMARK    3  A    between atoms: O_3  and  C_31 
REMARK    4  A    between atoms: N_5  and  C_13 
REMARK    5  A    between atoms: C_12  and  N_6 
REMARK       I    between atoms: N_6  and  C_23 
REMARK    6  A    between atoms: C_12  and  C_14 
REMARK    7  A    between atoms: C_12  and  C_15 
REMARK    8  A    between atoms: C_15  and  C_16 
REMARK    9  A    between atoms: C_23  and  C_24 
REMARK   10  A    between atoms: C_24  and  C_25 
REMARK   11  A    between atoms: C_30  and  C_31 
ROOT
HETATM    1  O   UNK N   1      31.925  17.524   3.442  0.00  0.00    -0.273 OA
HETATM    2  N   UNK N   1      31.150  16.283   5.140  0.00  0.00    -0.352 N 
HETATM    3  C   UNK N   1      32.152  16.734   4.345  0.00  0.00     0.222 C 
HETATM    4  H   UNK N   1      31.377  15.672   5.878  0.00  0.00     0.163 HD
ENDROOT
BRANCH   2   5
HETATM    5  C   UNK N   1      29.759  16.657   4.955  0.00  0.00     0.120 C 
BRANCH   5   6
HETATM    6  C   UNK N   1      29.194  17.439   6.157  0.00  0.00    -0.009 A 
HETATM    7  C   UNK N   1      28.089  18.376   6.184  0.00  0.00     0.038 A 
HETATM    8  C   UNK N   1      27.854  19.091   7.379  0.00  0.00     0.030 A 
HETATM    9  C   UNK N   1      28.620  18.901   8.522  0.00  0.00     0.002 A 
HETATM   10  C   UNK N   1      29.670  18.003   8.501  0.00  0.00     0.001 A 
HETATM   11  C   UNK N   1      29.957  17.305   7.334  0.00  0.00     0.011 A 
BRANCH   7  12
HETATM   12  N   UNK N   1      27.211  18.672   5.087  0.00  0.00    -0.380 N 
HETATM   13  C   UNK N   1      27.603  19.513   3.980  0.00  0.00     0.123 C 
HETATM   14  C   UNK N   1      26.434  20.422   3.585  0.00  0.00     0.020 C 
HETATM   15  C   UNK N   1      25.159  19.609   3.364  0.00  0.00     0.003 C 
HETATM   16  C   UNK N   1      24.851  18.743   4.584  0.00  0.00     0.020 C 
HETATM   17  C   UNK N   1      26.045  17.842   4.869  0.00  0.00     0.123 C 
ENDBRANCH   7  12
ENDBRANCH   5   6
BRANCH   5  18
HETATM   18  C   UNK N   1      28.961  15.590   4.218  0.00  0.00     0.034 C 
BRANCH  18  19
HETATM   19  C   UNK N   1      28.600  14.376   5.062  0.00  0.00    -0.021 C 
HETATM   20  C   UNK N   1      29.201  13.141   4.428  0.00  0.00     0.009 C 
HETATM   21  C   UNK N   1      27.092  14.205   5.092  0.00  0.00     0.009 C 
ENDBRANCH  18  19
ENDBRANCH   5  18
ENDBRANCH   2   5
BRANCH   3  22
HETATM   22  C   UNK N   1      33.551  16.255   4.572  0.00  0.00     0.141 C 
BRANCH  22  23
HETATM   23  C   UNK N   1      33.994  16.396   6.000  0.00  0.00    -0.047 A 
HETATM   24  C   UNK N   1      34.491  15.274   6.658  0.00  0.00     0.045 A 
HETATM   25  C   UNK N   1      34.862  15.336   8.013  0.00  0.00     0.086 A 
HETATM   26  C   UNK N   1      34.724  16.556   8.717  0.00  0.00     0.071 A 
HETATM   27  C   UNK N   1      34.237  17.683   8.040  0.00  0.00     0.022 A 
HETATM   28  C   UNK N   1      33.876  17.604   6.697  0.00  0.00     0.009 A 
BRANCH  25  29
HETATM   29  O   UNK N   1      35.338  14.232   8.648  0.00  0.00    -0.350 OA
BRANCH  29  30
HETATM   30  C   UNK N   1      36.674  13.883   8.694  0.00  0.00     0.171 C 
HETATM   31  C   UNK N   1      37.071  13.490  10.105  0.00  0.00     0.034 C 
ENDBRANCH  29  30
ENDBRANCH  25  29
BRANCH  26  32
HETATM   32  C   UNK N   1      35.066  16.693  10.153  0.00  0.00     0.178 C 
HETATM   33  O   UNK N   1      35.899  17.509  10.525  0.00  0.00    -0.646 OA
BRANCH  32  34
HETATM   34  O   UNK N   1      34.471  15.902  11.067  0.00  0.00    -0.773 OA
HETATM   35  H   UNK N   1      34.533  16.040  11.992  0.00  0.00     0.167 HD
ENDBRANCH  32  34
ENDBRANCH  26  32
ENDBRANCH  22  23
ENDBRANCH   3  22
TORSDOF 11
ENDMDL
MODEL 3
REMARK VINA RESULT:      -7.0      3.216      5.014
REMARK  11 active torsions:
REMARK  status: ('A' for Active; 'I' for Inactive)
REMARK    1  A    between atoms: O_2  and  C_28 
REMARK    2  A    between atoms: O_2  and  C_32 
REMARK    3  A    between atoms: O_3  and  C_31 
REMARK    4  A    between atoms: N_5  and  C_13 
REMARK    5  A    between atoms: C_12  and  N_6 
REMARK       I    between atoms: N_6  and  C_23 
REMARK    6  A    between atoms: C_12  and  C_14 
REMARK    7  A    between atoms: C_12  and  C_15 
REMARK    8  A    between atoms: C_15  and  C_16 
REMARK    9  A    between atoms: C_23  and  C_24 
REMARK   10  A    between atoms: C_24  and  C_25 
REMARK   11  A    between atoms: C_30  and  C_31 
ROOT
HETATM    1  O   UNK N   1      24.947  15.366   6.760  0.00  0.00    -0.273 OA
HETATM    2  N   UNK N   1      25.408  16.217   4.739  0.00  0.00    -0.352 N 
HETATM    3  C   UNK N   1      24.570  15.628   5.628  0.00  0.00     0.222 C 
HETATM    4  H   UNK N   1      25.059  16.442   3.846  0.00  0.00     0.163 HD
ENDROOT
BRANCH   2   5
HETATM    5  C   UNK N   1      26.794  16.531   5.038  0.00  0.00     0.120 C 
BRANCH   5   6
HETATM    6  C   UNK N   1      27.043  18.048   5.151  0.00  0.00    -0.009 A 
HETATM    7  C   UNK N   1      27.792  18.765   6.163  0.00  0.00     0.038 A 
HETATM    8  C   UNK N   1      27.750  20.177   6.142  0.00  0.00     0.030 A 
HETATM    9  C   UNK N   1      27.050  20.886   5.175  0.00  0.00     0.002 A 
HETATM   10  C   UNK N   1      26.341  20.204   4.204  0.00  0.00     0.001 A 
HETATM   11  C   UNK N   1      26.327  18.815   4.210  0.00  0.00     0.011 A 
BRANCH   7  12
HETATM   12  N   UNK N   1      28.563  18.170   7.218  0.00  0.00    -0.380 N 
HETATM   13  C   UNK N   1      28.109  18.132   8.589  0.00  0.00     0.123 C 
HETATM   14  C   UNK N   1      29.286  18.418   9.528  0.00  0.00     0.020 C 
HETATM   15  C   UNK N   1      30.474  17.509   9.210  0.00  0.00     0.003 C 
HETATM   16  C   UNK N   1      30.854  17.612   7.735  0.00  0.00     0.020 C 
HETATM   17  C   UNK N   1      29.641  17.264   6.882  0.00  0.00     0.123 C 
ENDBRANCH   7  12
ENDBRANCH   5   6
BRANCH   5  18
HETATM   18  C   UNK N   1      27.768  15.584   4.351  0.00  0.00     0.034 C 
BRANCH  18  19
HETATM   19  C   UNK N   1      28.165  16.000   2.942  0.00  0.00    -0.021 C 
HETATM   20  C   UNK N   1      27.984  14.821   2.013  0.00  0.00     0.009 C 
HETATM   21  C   UNK N   1      29.629  16.397   2.920  0.00  0.00     0.009 C 
ENDBRANCH  18  19
ENDBRANCH   5  18
ENDBRANCH   2   5
BRANCH   3  22
HETATM   22  C   UNK N   1      23.173  15.289   5.218  0.00  0.00     0.141 C 
BRANCH  22  23
HETATM   23  C   UNK N   1      22.143  15.756   6.205  0.00  0.00    -0.047 A 
HETATM   24  C   UNK N   1      21.556  14.817   7.051  0.00  0.00     0.045 A 
HETATM   25  C   UNK N   1      20.542  15.190   7.952  0.00  0.00     0.086 A 
HETATM   26  C   UNK N   1      20.110  16.537   7.994  0.00  0.00     0.071 A 
HETATM   27  C   UNK N   1      20.718  17.476   7.149  0.00  0.00     0.022 A 
HETATM   28  C   UNK N   1      21.722  17.090   6.265  0.00  0.00     0.009 A 
BRANCH  25  29
HETATM   29  O   UNK N   1      19.972  14.263   8.767  0.00  0.00    -0.350 OA
BRANCH  29  30
HETATM   30  C   UNK N   1      20.502  13.871   9.980  0.00  0.00     0.171 C 
HETATM   31  C   UNK N   1      21.375  12.642   9.805  0.00  0.00     0.034 C 
ENDBRANCH  29  30
ENDBRANCH  25  29
BRANCH  26  32
HETATM   32  C   UNK N   1      19.027  17.001   8.895  0.00  0.00     0.178 C 
HETATM   33  O   UNK N   1      19.074  18.107   9.414  0.00  0.00    -0.646 OA
BRANCH  32  34
HETATM   34  O   UNK N   1      17.984  16.193   9.166  0.00  0.00    -0.773 OA
HETATM   35  H   UNK N   1      17.896  15.710   9.964  0.00  0.00     0.167 HD
ENDBRANCH  32  34
ENDBRANCH  26  32
ENDBRANCH  22  23
ENDBRANCH   3  22
TORSDOF 11
ENDMDL
MODEL 4
REMARK VINA RESULT:      -7.0      1.219      2.318
REMARK  11 active torsions:
REMARK  status: ('A' for Active; 'I' for Inactive)
REMARK    1  A    between atoms: O_2  and  C_28 
REMARK    2  A    between atoms: O_2  and  C_32 
REMARK    3  A    between atoms: O_3  and  C_31 
REMARK    4  A    between atoms: N_5  and  C_13 
REMARK    5  A    between atoms: C_12  and  N_6 
REMARK       I    between atoms: N_6  and  C_23 
REMARK    6  A    between atoms: C_12  and  C_14 
REMARK    7  A    between atoms: C_12  and  C_15 
REMARK    8  A    between atoms: C_15  and  C_16 
REMARK    9  A    between atoms: C_23  and  C_24 
REMARK   10  A    between atoms: C_24  and  C_25 
REMARK   11  A    between atoms: C_30  and  C_31 
ROOT
HETATM    1  O   UNK N   1      26.835  15.288   5.313  0.00  0.00    -0.273 OA
HETATM    2  N   UNK N   1      26.486  17.422   5.903  0.00  0.00    -0.352 N 
HETATM    3  C   UNK N   1      26.076  16.138   5.754  0.00  0.00     0.222 C 
HETATM    4  H   UNK N   1      25.856  18.072   6.291  0.00  0.00     0.163 HD
ENDROOT
BRANCH   2   5
HETATM    5  C   UNK N   1      27.807  17.885   5.517  0.00  0.00     0.120 C 
BRANCH   5   6
HETATM    6  C   UNK N   1      28.778  17.960   6.713  0.00  0.00    -0.009 A 
HETATM    7  C   UNK N   1      30.120  17.425   6.819  0.00  0.00     0.038 A 
HETATM    8  C   UNK N   1      30.760  17.482   8.077  0.00  0.00     0.030 A 
HETATM    9  C   UNK N   1      30.161  18.057   9.189  0.00  0.00     0.002 A 
HETATM   10  C   UNK N   1      28.883  18.575   9.089  0.00  0.00     0.001 A 
HETATM   11  C   UNK N   1      28.205  18.506   7.879  0.00  0.00     0.011 A 
BRANCH   7  12
HETATM   12  N   UNK N   1      30.865  16.808   5.758  0.00  0.00    -0.380 N 
HETATM   13  C   UNK N   1      30.877  15.380   5.541  0.00  0.00     0.123 C 
HETATM   14  C   UNK N   1      32.294  14.927   5.170  0.00  0.00     0.020 C 
HETATM   15  C   UNK N   1      32.852  15.764   4.018  0.00  0.00     0.003 C 
HETATM   16  C   UNK N   1      32.771  17.254   4.344  0.00  0.00     0.020 C 
HETATM   17  C   UNK N   1      31.324  17.620   4.650  0.00  0.00     0.123 C 
ENDBRANCH   7  12
ENDBRANCH   5   6
BRANCH   5  18
HETATM   18  C   UNK N   1      27.758  18.948   4.428  0.00  0.00     0.034 C 
BRANCH  18  19
HETATM   19  C   UNK N   1      26.620  19.948   4.573  0.00  0.00    -0.021 C 
HETATM   20  C   UNK N   1      26.283  20.508   3.209  0.00  0.00     0.009 C 
HETATM   21  C   UNK N   1      27.060  21.098   5.459  0.00  0.00     0.009 C 
ENDBRANCH  18  19
ENDBRANCH   5  18
ENDBRANCH   2   5
BRANCH   3  22
HETATM   22  C   UNK N   1      24.678  15.758   6.126  0.00  0.00     0.141 C 
BRANCH  22  23
HETATM   23  C   UNK N   1      23.746  15.731   4.949  0.00  0.00    -0.047 A 
HETATM   24  C   UNK N   1      23.075  16.902   4.604  0.00  0.00     0.045 A 
HETATM   25  C   UNK N   1      22.144  16.918   3.550  0.00  0.00     0.086 A 
HETATM   26  C   UNK N   1      21.883  15.724   2.835  0.00  0.00     0.071 A 
HETATM   27  C   UNK N   1      22.575  14.555   3.182  0.00  0.00     0.022 A 
HETATM   28  C   UNK N   1      23.494  14.559   4.228  0.00  0.00     0.009 A 
BRANCH  25  29
HETATM   29  O   UNK N   1      21.490  18.065   3.226  0.00  0.00    -0.350 OA
BRANCH  29  30
HETATM   30  C   UNK N   1      21.713  19.281   3.840  0.00  0.00     0.171 C 
HETATM   31  C   UNK N   1      22.429  20.230   2.896  0.00  0.00     0.034 C 
ENDBRANCH  29  30
ENDBRANCH  25  29
BRANCH  26  32
HETATM   32  C   UNK N   1      20.894  15.654   1.731  0.00  0.00     0.178 C 
HETATM   33  O   UNK N   1      21.234  15.316   0.606  0.00  0.00    -0.646 OA
BRANCH  32  34
HETATM   34  O   UNK N   1      19.608  15.981   1.957  0.00  0.00    -0.773 OA
HETATM   35  H   UNK N   1      19.244  16.823   1.761  0.00  0.00     0.167 HD
ENDBRANCH  32  34
ENDBRANCH  26  32
ENDBRANCH  22  23
ENDBRANCH   3  22
TORSDOF 11
ENDMDL
MODEL 5
REMARK VINA RESULT:      -6.9      2.448      3.366
REMARK  11 active torsions:
REMARK  status: ('A' for Active; 'I' for Inactive)
REMARK    1  A    between atoms: O_2  and  C_28 
REMARK    2  A    between atoms: O_2  and  C_32 
REMARK    3  A    between atoms: O_3  and  C_31 
REMARK    4  A    between atoms: N_5  and  C_13 
REMARK    5  A    between atoms: C_12  and  N_6 
REMARK       I    between atoms: N_6  and  C_23 
REMARK    6  A    between atoms: C_12  and  C_14 
REMARK    7  A    between atoms: C_12  and  C_15 
REMARK    8  A    between atoms: C_15  and  C_16 
REMARK    9  A    between atoms: C_23  and  C_24 
REMARK   10  A    between atoms: C_24  and  C_25 
REMARK   11  A    between atoms: C_30  and  C_31 
ROOT
HETATM    1  O   UNK N   1      26.527  15.048   5.116  0.00  0.00    -0.273 OA
HETATM    2  N   UNK N   1      26.490  16.417   6.890  0.00  0.00    -0.352 N 
HETATM    3  C   UNK N   1      26.096  15.299   6.231  0.00  0.00     0.222 C 
HETATM    4  H   UNK N   1      26.146  16.569   7.800  0.00  0.00     0.163 HD
ENDROOT
BRANCH   2   5
HETATM    5  C   UNK N   1      27.394  17.399   6.319  0.00  0.00     0.120 C 
BRANCH   5   6
HETATM    6  C   UNK N   1      28.579  17.722   7.251  0.00  0.00    -0.009 A 
HETATM    7  C   UNK N   1      29.993  17.504   7.021  0.00  0.00     0.038 A 
HETATM    8  C   UNK N   1      30.883  17.738   8.092  0.00  0.00     0.030 A 
HETATM    9  C   UNK N   1      30.453  18.195   9.330  0.00  0.00     0.002 A 
HETATM   10  C   UNK N   1      29.105  18.411   9.551  0.00  0.00     0.001 A 
HETATM   11  C   UNK N   1      28.192  18.158   8.534  0.00  0.00     0.011 A 
BRANCH   7  12
HETATM   12  N   UNK N   1      30.583  17.040   5.797  0.00  0.00    -0.380 N 
HETATM   13  C   UNK N   1      31.977  17.242   5.478  0.00  0.00     0.123 C 
HETATM   14  C   UNK N   1      32.119  17.606   3.996  0.00  0.00     0.020 C 
HETATM   15  C   UNK N   1      31.389  16.594   3.112  0.00  0.00     0.003 C 
HETATM   16  C   UNK N   1      29.934  16.444   3.549  0.00  0.00     0.020 C 
HETATM   17  C   UNK N   1      29.895  16.034   5.016  0.00  0.00     0.123 C 
ENDBRANCH   7  12
ENDBRANCH   5   6
BRANCH   5  18
HETATM   18  C   UNK N   1      26.664  18.467   5.515  0.00  0.00     0.034 C 
BRANCH  18  19
HETATM   19  C   UNK N   1      27.530  19.645   5.098  0.00  0.00    -0.021 C 
HETATM   20  C   UNK N   1      27.204  20.830   5.980  0.00  0.00     0.009 C 
HETATM   21  C   UNK N   1      27.218  20.026   3.662  0.00  0.00     0.009 C 
ENDBRANCH  18  19
ENDBRANCH   5  18
ENDBRANCH   2   5
BRANCH   3  22
HETATM   22  C   UNK N   1      25.118  14.367   6.872  0.00  0.00     0.141 C 
BRANCH  22  23
HETATM   23  C   UNK N   1      23.696  14.830   6.743  0.00  0.00    -0.047 A 
HETATM   24  C   UNK N   1      22.727  14.242   7.553  0.00  0.00     0.045 A 
HETATM   25  C   UNK N   1      21.371  14.595   7.430  0.00  0.00     0.086 A 
HETATM   26  C   UNK N   1      20.987  15.557   6.466  0.00  0.00     0.071 A 
HETATM   27  C   UNK N   1      21.973  16.153   5.667  0.00  0.00     0.022 A 
HETATM   28  C   UNK N   1      23.311  15.794   5.803  0.00  0.00     0.009 A 
BRANCH  25  29
HETATM   29  O   UNK N   1      20.433  14.009   8.221  0.00  0.00    -0.350 OA
BRANCH  29  30
HETATM   30  C   UNK N   1      20.313  14.239   9.577  0.00  0.00     0.171 C 
HETATM   31  C   UNK N   1      20.779  13.027  10.365  0.00  0.00     0.034 C 
ENDBRANCH  29  30
ENDBRANCH  25  29
BRANCH  26  32
HETATM   32  C   UNK N   1      19.575  15.960   6.256  0.00  0.00     0.178 C 
HETATM   33  O   UNK N   1      19.106  16.040   5.130  0.00  0.00    -0.646 OA
BRANCH  32  34
HETATM   34  O   UNK N   1      18.796  16.259   7.313  0.00  0.00    -0.773 OA
HETATM   35  H   UNK N   1      19.093  16.228   8.202  0.00  0.00     0.167 HD
ENDBRANCH  32  34
ENDBRANCH  26  32
ENDBRANCH  22  23
ENDBRANCH   3  22
TORSDOF 11
ENDMDL
MODEL 6
REMARK VINA RESULT:      -6.9      2.765      5.226
REMARK  11 active torsions:
REMARK  status: ('A' for Active; 'I' for Inactive)
REMARK    1  A    between atoms: O_2  and  C_28 
REMARK    2  A    between atoms: O_2  and  C_32 
REMARK    3  A    between atoms: O_3  and  C_31 
REMARK    4  A    between atoms: N_5  and  C_13 
REMARK    5  A    between atoms: C_12  and  N_6 
REMARK       I    between atoms: N_6  and  C_23 
REMARK    6  A    between atoms: C_12  and  C_14 
REMARK    7  A    between atoms: C_12  and  C_15 
REMARK    8  A    between atoms: C_15  and  C_16 
REMARK    9  A    between atoms: C_23  and  C_24 
REMARK   10  A    between atoms: C_24  and  C_25 
REMARK   11  A    between atoms: C_30  and  C_31 
ROOT
HETATM    1  O   UNK N   1      31.229  14.161   5.930  0.00  0.00    -0.273 OA
HETATM    2  N   UNK N   1      29.783  15.669   5.118  0.00  0.00    -0.352 N 
HETATM    3  C   UNK N   1      30.221  14.396   5.282  0.00  0.00     0.222 C 
HETATM    4  H   UNK N   1      28.949  15.816   4.616  0.00  0.00     0.163 HD
ENDROOT
BRANCH   2   5
HETATM    5  C   UNK N   1      30.484  16.825   5.647  0.00  0.00     0.120 C 
BRANCH   5   6
HETATM    6  C   UNK N   1      29.845  17.361   6.943  0.00  0.00    -0.009 A 
HETATM    7  C   UNK N   1      28.638  18.150   7.094  0.00  0.00     0.038 A 
HETATM    8  C   UNK N   1      28.335  18.659   8.376  0.00  0.00     0.030 A 
HETATM    9  C   UNK N   1      29.130  18.403   9.485  0.00  0.00     0.002 A 
HETATM   10  C   UNK N   1      30.278  17.646   9.345  0.00  0.00     0.001 A 
HETATM   11  C   UNK N   1      30.631  17.156   8.094  0.00  0.00     0.011 A 
BRANCH   7  12
HETATM   12  N   UNK N   1      27.720  18.491   6.044  0.00  0.00    -0.380 N 
HETATM   13  C   UNK N   1      26.783  17.542   5.489  0.00  0.00     0.123 C 
HETATM   14  C   UNK N   1      26.707  17.724   3.968  0.00  0.00     0.020 C 
HETATM   15  C   UNK N   1      26.444  19.186   3.605  0.00  0.00     0.003 C 
HETATM   16  C   UNK N   1      27.477  20.100   4.261  0.00  0.00     0.020 C 
HETATM   17  C   UNK N   1      27.446  19.885   5.769  0.00  0.00     0.123 C 
ENDBRANCH   7  12
ENDBRANCH   5   6
BRANCH   5  18
HETATM   18  C   UNK N   1      31.011  17.739   4.549  0.00  0.00     0.034 C 
BRANCH  18  19
HETATM   19  C   UNK N   1      32.502  17.606   4.279  0.00  0.00    -0.021 C 
HETATM   20  C   UNK N   1      32.717  16.536   3.231  0.00  0.00     0.009 C 
HETATM   21  C   UNK N   1      33.215  17.172   5.547  0.00  0.00     0.009 C 
ENDBRANCH  18  19
ENDBRANCH   5  18
ENDBRANCH   2   5
BRANCH   3  22
HETATM   22  C   UNK N   1      29.466  13.266   4.656  0.00  0.00     0.141 C 
BRANCH  22  23
HETATM   23  C   UNK N   1      28.190  13.708   3.998  0.00  0.00    -0.047 A 
HETATM   24  C   UNK N   1      27.001  13.607   4.716  0.00  0.00     0.045 A 
HETATM   25  C   UNK N   1      25.770  13.947   4.127  0.00  0.00     0.086 A 
HETATM   26  C   UNK N   1      25.742  14.395   2.784  0.00  0.00     0.071 A 
HETATM   27  C   UNK N   1      26.947  14.507   2.076  0.00  0.00     0.022 A 
HETATM   28  C   UNK N   1      28.157  14.166   2.676  0.00  0.00     0.009 A 
BRANCH  25  29
HETATM   29  O   UNK N   1      24.614  13.838   4.834  0.00  0.00    -0.350 OA
BRANCH  29  30
HETATM   30  C   UNK N   1      24.479  14.212   6.156  0.00  0.00     0.171 C 
HETATM   31  C   UNK N   1      23.770  15.551   6.259  0.00  0.00     0.034 C 
ENDBRANCH  29  30
ENDBRANCH  25  29
BRANCH  26  32
HETATM   32  C   UNK N   1      24.482  14.745   2.084  0.00  0.00     0.178 C 
HETATM   33  O   UNK N   1      24.305  14.429   0.916  0.00  0.00    -0.646 OA
BRANCH  32  34
HETATM   34  O   UNK N   1      23.522  15.433   2.730  0.00  0.00    -0.773 OA
HETATM   35  H   UNK N   1      22.616  15.413   2.487  0.00  0.00     0.167 HD
ENDBRANCH  32  34
ENDBRANCH  26  32
ENDBRANCH  22  23
ENDBRANCH   3  22
TORSDOF 11
ENDMDL
MODEL 7
REMARK VINA RESULT:      -6.9      1.594      2.241
REMARK  11 active torsions:
REMARK  status: ('A' for Active; 'I' for Inactive)
REMARK    1  A    between atoms: O_2  and  C_28 
REMARK    2  A    between atoms: O_2  and  C_32 
REMARK    3  A    between atoms: O_3  and  C_31 
REMARK    4  A    between atoms: N_5  and  C_13 
REMARK    5  A    between atoms: C_12  and  N_6 
REMARK       I    between atoms: N_6  and  C_23 
REMARK    6  A    between atoms: C_12  and  C_14 
REMARK    7  A    between atoms: C_12  and  C_15 
REMARK    8  A    between atoms: C_15  and  C_16 
REMARK    9  A    between atoms: C_23  and  C_24 
REMARK   10  A    between atoms: C_24  and  C_25 
REMARK   11  A    between atoms: C_30  and  C_31 
ROOT
HETATM    1  O   UNK N   1      27.027  15.583   4.750  0.00  0.00    -0.273 OA
HETATM    2  N   UNK N   1      26.617  17.286   6.148  0.00  0.00    -0.352 N 
HETATM    3  C   UNK N   1      26.298  16.094   5.586  0.00  0.00     0.222 C 
HETATM    4  H   UNK N   1      26.021  17.652   6.841  0.00  0.00     0.163 HD
ENDROOT
BRANCH   2   5
HETATM    5  C   UNK N   1      27.796  18.050   5.777  0.00  0.00     0.120 C 
BRANCH   5   6
HETATM    6  C   UNK N   1      28.882  18.026   6.870  0.00  0.00    -0.009 A 
HETATM    7  C   UNK N   1      30.150  17.324   6.865  0.00  0.00     0.038 A 
HETATM    8  C   UNK N   1      30.914  17.327   8.053  0.00  0.00     0.030 A 
HETATM    9  C   UNK N   1      30.508  18.000   9.197  0.00  0.00     0.002 A 
HETATM   10  C   UNK N   1      29.302  18.676   9.202  0.00  0.00     0.001 A 
HETATM   11  C   UNK N   1      28.503  18.668   8.065  0.00  0.00     0.011 A 
BRANCH   7  12
HETATM   12  N   UNK N   1      30.701  16.591   5.760  0.00  0.00    -0.380 N 
HETATM   13  C   UNK N   1      31.290  17.238   4.612  0.00  0.00     0.123 C 
HETATM   14  C   UNK N   1      30.879  16.495   3.335  0.00  0.00     0.020 C 
HETATM   15  C   UNK N   1      31.168  14.998   3.457  0.00  0.00     0.003 C 
HETATM   16  C   UNK N   1      30.518  14.423   4.713  0.00  0.00     0.020 C 
HETATM   17  C   UNK N   1      31.021  15.189   5.930  0.00  0.00     0.123 C 
ENDBRANCH   7  12
ENDBRANCH   5   6
BRANCH   5  18
HETATM   18  C   UNK N   1      27.452  19.304   4.984  0.00  0.00     0.034 C 
BRANCH  18  19
HETATM   19  C   UNK N   1      26.174  19.999   5.427  0.00  0.00    -0.021 C 
HETATM   20  C   UNK N   1      25.318  20.273   4.210  0.00  0.00     0.009 C 
HETATM   21  C   UNK N   1      26.513  21.330   6.073  0.00  0.00     0.009 C 
ENDBRANCH  18  19
ENDBRANCH   5  18
ENDBRANCH   2   5
BRANCH   3  22
HETATM   22  C   UNK N   1      25.035  15.401   5.988  0.00  0.00     0.141 C 
BRANCH  22  23
HETATM   23  C   UNK N   1      23.804  16.054   5.429  0.00  0.00    -0.047 A 
HETATM   24  C   UNK N   1      22.646  16.068   6.204  0.00  0.00     0.045 A 
HETATM   25  C   UNK N   1      21.449  16.612   5.704  0.00  0.00     0.086 A 
HETATM   26  C   UNK N   1      21.422  17.147   4.394  0.00  0.00     0.071 A 
HETATM   27  C   UNK N   1      22.597  17.141   3.630  0.00  0.00     0.022 A 
HETATM   28  C   UNK N   1      23.774  16.600   4.140  0.00  0.00     0.009 A 
BRANCH  25  29
HETATM   29  O   UNK N   1      20.324  16.613   6.467  0.00  0.00    -0.350 OA
BRANCH  29  30
HETATM   30  C   UNK N   1      20.223  17.237   7.694  0.00  0.00     0.171 C 
HETATM   31  C   UNK N   1      19.977  16.215   8.790  0.00  0.00     0.034 C 
ENDBRANCH  29  30
ENDBRANCH  25  29
BRANCH  26  32
HETATM   32  C   UNK N   1      20.191  17.711   3.787  0.00  0.00     0.178 C 
HETATM   33  O   UNK N   1      20.202  18.813   3.258  0.00  0.00    -0.646 OA
BRANCH  32  34
HETATM   34  O   UNK N   1      19.039  17.015   3.830  0.00  0.00    -0.773 OA
HETATM   35  H   UNK N   1      18.217  17.387   4.083  0.00  0.00     0.167 HD
ENDBRANCH  32  34
ENDBRANCH  26  32
ENDBRANCH  22  23
ENDBRANCH   3  22
TORSDOF 11
ENDMDL
MODEL 8
REMARK VINA RESULT:      -6.9      3.205      4.804
REMARK  11 active torsions:
REMARK  status: ('A' for Active; 'I' for Inactive)
REMARK    1  A    between atoms: O_2  and  C_28 
REMARK    2  A    between atoms: O_2  and  C_32 
REMARK    3  A    between atoms: O_3  and  C_31 
REMARK    4  A    between atoms: N_5  and  C_13 
REMARK    5  A    between atoms: C_12  and  N_6 
REMARK       I    between atoms: N_6  and  C_23 
REMARK    6  A    between atoms: C_12  and  C_14 
REMARK    7  A    between atoms: C_12  and  C_15 
REMARK    8  A    between atoms: C_15  and  C_16 
REMARK    9  A    between atoms: C_23  and  C_24 
REMARK   10  A    between atoms: C_24  and  C_25 
REMARK   11  A    between atoms: C_30  and  C_31 
ROOT
HETATM    1  O   UNK N   1      26.553  16.012   4.195  0.00  0.00    -0.273 OA
HETATM    2  N   UNK N   1      26.538  17.519   5.854  0.00  0.00    -0.352 N 
HETATM    3  C   UNK N   1      25.941  16.566   5.095  0.00  0.00     0.222 C 
HETATM    4  H   UNK N   1      26.024  17.921   6.591  0.00  0.00     0.163 HD
ENDROOT
BRANCH   2   5
HETATM    5  C   UNK N   1      27.899  17.975   5.632  0.00  0.00     0.120 C 
BRANCH   5   6
HETATM    6  C   UNK N   1      28.777  17.848   6.893  0.00  0.00    -0.009 A 
HETATM    7  C   UNK N   1      30.058  17.187   7.037  0.00  0.00     0.038 A 
HETATM    8  C   UNK N   1      30.601  17.067   8.335  0.00  0.00     0.030 A 
HETATM    9  C   UNK N   1      29.966  17.584   9.457  0.00  0.00     0.002 A 
HETATM   10  C   UNK N   1      28.747  18.221   9.321  0.00  0.00     0.001 A 
HETATM   11  C   UNK N   1      28.162  18.329   8.066  0.00  0.00     0.011 A 
BRANCH   7  12
HETATM   12  N   UNK N   1      30.830  16.610   5.973  0.00  0.00    -0.380 N 
HETATM   13  C   UNK N   1      30.813  15.197   5.674  0.00  0.00     0.123 C 
HETATM   14  C   UNK N   1      32.232  14.726   5.335  0.00  0.00     0.020 C 
HETATM   15  C   UNK N   1      32.859  15.610   4.257  0.00  0.00     0.003 C 
HETATM   16  C   UNK N   1      32.805  17.080   4.665  0.00  0.00     0.020 C 
HETATM   17  C   UNK N   1      31.357  17.470   4.933  0.00  0.00     0.123 C 
ENDBRANCH   7  12
ENDBRANCH   5   6
BRANCH   5  18
HETATM   18  C   UNK N   1      27.967  19.176   4.699  0.00  0.00     0.034 C 
BRANCH  18  19
HETATM   19  C   UNK N   1      26.744  20.080   4.744  0.00  0.00    -0.021 C 
HETATM   20  C   UNK N   1      26.399  20.509   3.335  0.00  0.00     0.009 C 
HETATM   21  C   UNK N   1      27.058  21.326   5.551  0.00  0.00     0.009 C 
ENDBRANCH  18  19
ENDBRANCH   5  18
ENDBRANCH   2   5
BRANCH   3  22
HETATM   22  C   UNK N   1      24.517  16.195   5.358  0.00  0.00     0.141 C 
BRANCH  22  23
HETATM   23  C   UNK N   1      24.372  15.142   6.419  0.00  0.00    -0.047 A 
HETATM   24  C   UNK N   1      23.104  14.892   6.941  0.00  0.00     0.045 A 
HETATM   25  C   UNK N   1      22.922  13.961   7.979  0.00  0.00     0.086 A 
HETATM   26  C   UNK N   1      24.043  13.274   8.503  0.00  0.00     0.071 A 
HETATM   27  C   UNK N   1      25.311  13.523   7.959  0.00  0.00     0.022 A 
HETATM   28  C   UNK N   1      25.474  14.447   6.930  0.00  0.00     0.009 A 
BRANCH  25  29
HETATM   29  O   UNK N   1      21.681  13.731   8.486  0.00  0.00    -0.350 OA
BRANCH  29  30
HETATM   30  C   UNK N   1      21.112  14.472   9.502  0.00  0.00     0.171 C 
HETATM   31  C   UNK N   1      19.912  15.246   8.986  0.00  0.00     0.034 C 
ENDBRANCH  29  30
ENDBRANCH  25  29
BRANCH  26  32
HETATM   32  C   UNK N   1      23.935  12.300   9.616  0.00  0.00     0.178 C 
HETATM   33  O   UNK N   1      24.741  12.307  10.536  0.00  0.00    -0.646 OA
BRANCH  32  34
HETATM   34  O   UNK N   1      22.950  11.381   9.614  0.00  0.00    -0.773 OA
HETATM   35  H   UNK N   1      22.071  11.564   9.346  0.00  0.00     0.167 HD
ENDBRANCH  32  34
ENDBRANCH  26  32
ENDBRANCH  22  23
ENDBRANCH   3  22
TORSDOF 11
ENDMDL
MODEL 9
REMARK VINA RESULT:      -6.8      6.662     11.413
REMARK  11 active torsions:
REMARK  status: ('A' for Active; 'I' for Inactive)
REMARK    1  A    between atoms: O_2  and  C_28 
REMARK    2  A    between atoms: O_2  and  C_32 
REMARK    3  A    between atoms: O_3  and  C_31 
REMARK    4  A    between atoms: N_5  and  C_13 
REMARK    5  A    between atoms: C_12  and  N_6 
REMARK       I    between atoms: N_6  and  C_23 
REMARK    6  A    between atoms: C_12  and  C_14 
REMARK    7  A    between atoms: C_12  and  C_15 
REMARK    8  A    between atoms: C_15  and  C_16 
REMARK    9  A    between atoms: C_23  and  C_24 
REMARK   10  A    between atoms: C_24  and  C_25 
REMARK   11  A    between atoms: C_30  and  C_31 
ROOT
HETATM    1  O   UNK N   1      34.370  18.328   7.654  0.00  0.00    -0.273 OA
HETATM    2  N   UNK N   1      32.942  16.717   8.280  0.00  0.00    -0.352 N 
HETATM    3  C   UNK N   1      34.077  17.441   8.442  0.00  0.00     0.222 C 
HETATM    4  H   UNK N   1      32.724  16.032   8.953  0.00  0.00     0.163 HD
ENDROOT
BRANCH   2   5
HETATM    5  C   UNK N   1      32.033  16.902   7.163  0.00  0.00     0.120 C 
BRANCH   5   6
HETATM    6  C   UNK N   1      30.626  17.342   7.614  0.00  0.00    -0.009 A 
HETATM    7  C   UNK N   1      29.371  17.217   6.901  0.00  0.00     0.038 A 
HETATM    8  C   UNK N   1      28.229  17.838   7.454  0.00  0.00     0.030 A 
HETATM    9  C   UNK N   1      28.267  18.526   8.659  0.00  0.00     0.002 A 
HETATM   10  C   UNK N   1      29.463  18.641   9.345  0.00  0.00     0.001 A 
HETATM   11  C   UNK N   1      30.616  18.075   8.817  0.00  0.00     0.011 A 
BRANCH   7  12
HETATM   12  N   UNK N   1      29.177  16.534   5.652  0.00  0.00    -0.380 N 
HETATM   13  C   UNK N   1      28.747  15.158   5.575  0.00  0.00     0.123 C 
HETATM   14  C   UNK N   1      29.520  14.439   4.464  0.00  0.00     0.020 C 
HETATM   15  C   UNK N   1      29.444  15.219   3.151  0.00  0.00     0.003 C 
HETATM   16  C   UNK N   1      29.900  16.662   3.352  0.00  0.00     0.020 C 
HETATM   17  C   UNK N   1      29.046  17.308   4.436  0.00  0.00     0.123 C 
ENDBRANCH   7  12
ENDBRANCH   5   6
BRANCH   5  18
HETATM   18  C   UNK N   1      32.262  15.889   6.050  0.00  0.00     0.034 C 
BRANCH  18  19
HETATM   19  C   UNK N   1      33.334  16.286   5.046  0.00  0.00    -0.021 C 
HETATM   20  C   UNK N   1      33.021  17.668   4.515  0.00  0.00     0.009 C 
HETATM   21  C   UNK N   1      33.323  15.319   3.876  0.00  0.00     0.009 C 
ENDBRANCH  18  19
ENDBRANCH   5  18
ENDBRANCH   2   5
BRANCH   3  22
HETATM   22  C   UNK N   1      34.986  17.147   9.593  0.00  0.00     0.141 C 
BRANCH  22  23
HETATM   23  C   UNK N   1      35.070  15.682   9.913  0.00  0.00    -0.047 A 
HETATM   24  C   UNK N   1      34.836  15.272  11.224  0.00  0.00     0.045 A 
HETATM   25  C   UNK N   1      34.962  13.921  11.592  0.00  0.00     0.086 A 
HETATM   26  C   UNK N   1      35.336  12.966  10.616  0.00  0.00     0.071 A 
HETATM   27  C   UNK N   1      35.554  13.388   9.297  0.00  0.00     0.022 A 
HETATM   28  C   UNK N   1      35.424  14.730   8.950  0.00  0.00     0.009 A 
BRANCH  25  29
HETATM   29  O   UNK N   1      34.738  13.533  12.876  0.00  0.00    -0.350 OA
BRANCH  29  30
HETATM   30  C   UNK N   1      35.621  13.755  13.915  0.00  0.00     0.171 C 
HETATM   31  C   UNK N   1      35.211  12.957  15.139  0.00  0.00     0.034 C 
ENDBRANCH  29  30
ENDBRANCH  25  29
BRANCH  26  32
HETATM   32  C   UNK N   1      35.518  11.529  10.933  0.00  0.00     0.178 C 
HETATM   33  O   UNK N   1      34.835  10.675  10.386  0.00  0.00    -0.646 OA
BRANCH  32  34
HETATM   34  O   UNK N   1      36.432  11.150  11.847  0.00  0.00    -0.773 OA
HETATM   35  H   UNK N   1      36.222  10.948  12.738  0.00  0.00     0.167 HD
ENDBRANCH  32  34
ENDBRANCH  26  32
ENDBRANCH  22  23
ENDBRANCH   3  22
TORSDOF 11
ENDMDL
