MODEL 1
REMARK VINA RESULT:      -6.8      0.000      0.000
REMARK  6 active torsions:
REMARK  status: ('A' for Active; 'I' for Inactive)
REMARK    1  A    between atoms: S_1  and  N_4 
REMARK    2  A    between atoms: S_1  and  C_11 
REMARK    3  A    between atoms: N_6  and  C_21 
REMARK    4  A    between atoms: C_11  and  C_12 
REMARK    5  A    between atoms: C_15  and  C_18 
REMARK    6  A    between atoms: C_18  and  C_21 
ROOT
HETATM    1  N   UNK N   1      31.700  20.549  -3.518  0.00  0.00    -0.365 N 
HETATM    2  C   UNK N   1      28.981  23.543  -4.237  0.00  0.00    -0.042 A 
HETATM    3  C   UNK N   1      30.310  21.651  -4.878  0.00  0.00    -0.001 A 
HETATM    4  C   UNK N   1      29.386  22.632  -5.232  0.00  0.00     0.022 A 
HETATM    5  C   UNK N   1      30.906  20.658  -5.615  0.00  0.00    -0.029 A 
HETATM    6  C   UNK N   1      30.818  21.559  -3.615  0.00  0.00     0.043 A 
HETATM    7  C   UNK N   1      29.522  23.453  -2.931  0.00  0.00     0.010 A 
HETATM    8  C   UNK N   1      30.449  22.447  -2.608  0.00  0.00     0.031 A 
HETATM    9  C   UNK N   1      31.767  19.986  -4.753  0.00  0.00     0.096 A 
HETATM   10  H   UNK N   1      32.197  20.273  -2.714  0.00  0.00     0.165 HD
ENDROOT
BRANCH   2  11
HETATM   11  C   UNK N   1      27.980  24.631  -4.586  0.00  0.00     0.196 C 
BRANCH  11  12
HETATM   12  S   UNK N   1      26.122  24.483  -4.294  0.00  0.00     0.215 S 
HETATM   13  O   UNK N   1      26.634  23.825  -3.005  0.00  0.00    -0.211 OA
HETATM   14  O   UNK N   1      26.663  23.593  -5.425  0.00  0.00    -0.211 OA
BRANCH  12  15
HETATM   15  N   UNK N   1      26.704  26.156  -4.386  0.00  0.00    -0.210 NA
HETATM   16  C   UNK N   1      26.341  26.824  -3.142  0.00  0.00     0.107 C 
HETATM   17  C   UNK N   1      25.975  28.240  -3.497  0.00  0.00     0.017 C 
HETATM   18  C   UNK N   1      25.368  28.116  -4.866  0.00  0.00     0.017 C 
HETATM   19  C   UNK N   1      25.934  26.827  -5.433  0.00  0.00     0.107 C 
ENDBRANCH  12  15
ENDBRANCH  11  12
ENDBRANCH   2  11
BRANCH   5  20
HETATM   20  C   UNK N   1      30.730  20.402  -7.077  0.00  0.00     0.071 C 
BRANCH  20  21
HETATM   21  C   UNK N   1      29.504  19.548  -7.394  0.00  0.00     0.276 C 
BRANCH  21  22
HETATM   22  N   UNK N   1      28.790  20.029  -8.572  0.00  0.00     0.080 N 
HETATM   23  C   UNK N   1      27.788  21.001  -8.156  0.00  0.00     0.309 C 
HETATM   24  C   UNK N   1      29.758  20.763  -9.369  0.00  0.00     0.309 C 
ENDBRANCH  21  22
ENDBRANCH  20  21
ENDBRANCH   5  20
TORSDOF 6
ENDMDL
MODEL 2
REMARK VINA RESULT:      -6.7     22.932     25.673
REMARK  6 active torsions:
REMARK  status: ('A' for Active; 'I' for Inactive)
REMARK    1  A    between atoms: S_1  and  N_4 
REMARK    2  A    between atoms: S_1  and  C_11 
REMARK    3  A    between atoms: N_6  and  C_21 
REMARK    4  A    between atoms: C_11  and  C_12 
REMARK    5  A    between atoms: C_15  and  C_18 
REMARK    6  A    between atoms: C_18  and  C_21 
ROOT
HETATM    1  N   UNK N   1      34.976  13.023  19.910  0.00  0.00    -0.365 N 
HETATM    2  C   UNK N   1      35.984  12.488  15.963  0.00  0.00    -0.042 A 
HETATM    3  C   UNK N   1      35.427  11.704  18.162  0.00  0.00    -0.001 A 
HETATM    4  C   UNK N   1      35.770  11.410  16.844  0.00  0.00     0.022 A 
HETATM    5  C   UNK N   1      35.186  10.890  19.241  0.00  0.00    -0.029 A 
HETATM    6  C   UNK N   1      35.296  12.989  18.605  0.00  0.00     0.043 A 
HETATM    7  C   UNK N   1      35.862  13.820  16.431  0.00  0.00     0.010 A 
HETATM    8  C   UNK N   1      35.508  14.080  17.767  0.00  0.00     0.031 A 
HETATM    9  C   UNK N   1      34.910  11.728  20.316  0.00  0.00     0.096 A 
HETATM   10  H   UNK N   1      34.821  13.824  20.460  0.00  0.00     0.165 HD
ENDROOT
BRANCH   2  11
HETATM   11  C   UNK N   1      36.366  12.207  14.520  0.00  0.00     0.196 C 
BRANCH  11  12
HETATM   12  S   UNK N   1      35.116  11.938  13.135  0.00  0.00     0.215 S 
HETATM   13  O   UNK N   1      34.156  12.310  14.273  0.00  0.00    -0.211 OA
HETATM   14  O   UNK N   1      35.815  10.658  13.619  0.00  0.00    -0.211 OA
BRANCH  12  15
HETATM   15  N   UNK N   1      36.241  13.277  12.837  0.00  0.00    -0.210 NA
HETATM   16  C   UNK N   1      35.452  14.460  12.515  0.00  0.00     0.107 C 
HETATM   17  C   UNK N   1      36.214  15.221  11.464  0.00  0.00     0.017 C 
HETATM   18  C   UNK N   1      36.902  14.142  10.676  0.00  0.00     0.017 C 
HETATM   19  C   UNK N   1      36.985  12.956  11.620  0.00  0.00     0.107 C 
ENDBRANCH  12  15
ENDBRANCH  11  12
ENDBRANCH   2  11
BRANCH   5  20
HETATM   20  C   UNK N   1      35.285   9.399  19.274  0.00  0.00     0.071 C 
BRANCH  20  21
HETATM   21  C   UNK N   1      33.985   8.702  18.877  0.00  0.00     0.276 C 
BRANCH  21  22
HETATM   22  N   UNK N   1      33.278   8.162  20.033  0.00  0.00     0.080 N 
HETATM   23  C   UNK N   1      31.898   8.627  20.006  0.00  0.00     0.309 C 
HETATM   24  C   UNK N   1      33.221   6.722  19.845  0.00  0.00     0.309 C 
ENDBRANCH  21  22
ENDBRANCH  20  21
ENDBRANCH   5  20
TORSDOF 6
ENDMDL
MODEL 3
REMARK VINA RESULT:      -6.6     23.630     26.440
REMARK  6 active torsions:
REMARK  status: ('A' for Active; 'I' for Inactive)
REMARK    1  A    between atoms: S_1  and  N_4 
REMARK    2  A    between atoms: S_1  and  C_11 
REMARK    3  A    between atoms: N_6  and  C_21 
REMARK    4  A    between atoms: C_11  and  C_12 
REMARK    5  A    between atoms: C_15  and  C_18 
REMARK    6  A    between atoms: C_18  and  C_21 
ROOT
HETATM    1  N   UNK N   1      35.831  12.465  20.197  0.00  0.00    -0.365 N 
HETATM    2  C   UNK N   1      34.751  12.102  16.250  0.00  0.00    -0.042 A 
HETATM    3  C   UNK N   1      35.479  11.233  18.365  0.00  0.00    -0.001 A 
HETATM    4  C   UNK N   1      35.137  10.998  17.035  0.00  0.00     0.022 A 
HETATM    5  C   UNK N   1      35.912  10.385  19.354  0.00  0.00    -0.029 A 
HETATM    6  C   UNK N   1      35.446  12.484  18.909  0.00  0.00     0.043 A 
HETATM    7  C   UNK N   1      34.734  13.401  16.815  0.00  0.00     0.010 A 
HETATM    8  C   UNK N   1      35.079  13.601  18.162  0.00  0.00     0.031 A 
HETATM    9  C   UNK N   1      36.127  11.170  20.483  0.00  0.00     0.096 A 
HETATM   10  H   UNK N   1      35.887  13.234  20.809  0.00  0.00     0.165 HD
ENDROOT
BRANCH   2  11
HETATM   11  C   UNK N   1      34.378  11.886  14.793  0.00  0.00     0.196 C 
BRANCH  11  12
HETATM   12  S   UNK N   1      35.610  11.975  13.369  0.00  0.00     0.215 S 
HETATM   13  O   UNK N   1      36.571  12.182  14.547  0.00  0.00    -0.211 OA
HETATM   14  O   UNK N   1      34.639  13.163  13.446  0.00  0.00    -0.211 OA
BRANCH  12  15
HETATM   15  N   UNK N   1      34.802  10.403  13.522  0.00  0.00    -0.210 NA
HETATM   16  C   UNK N   1      35.833   9.375  13.578  0.00  0.00     0.107 C 
HETATM   17  C   UNK N   1      35.301   8.181  12.830  0.00  0.00     0.017 C 
HETATM   18  C   UNK N   1      34.450   8.791  11.752  0.00  0.00     0.017 C 
HETATM   19  C   UNK N   1      34.075  10.165  12.276  0.00  0.00     0.107 C 
ENDBRANCH  12  15
ENDBRANCH  11  12
ENDBRANCH   2  11
BRANCH   5  20
HETATM   20  C   UNK N   1      36.182   8.921  19.222  0.00  0.00     0.071 C 
BRANCH  20  21
HETATM   21  C   UNK N   1      35.135   8.052  19.915  0.00  0.00     0.276 C 
BRANCH  21  22
HETATM   22  N   UNK N   1      34.000   7.762  19.046  0.00  0.00     0.080 N 
HETATM   23  C   UNK N   1      33.724   6.333  19.085  0.00  0.00     0.309 C 
HETATM   24  C   UNK N   1      32.846   8.411  19.643  0.00  0.00     0.309 C 
ENDBRANCH  21  22
ENDBRANCH  20  21
ENDBRANCH   5  20
TORSDOF 6
ENDMDL
MODEL 4
REMARK VINA RESULT:      -6.5      3.543      5.992
REMARK  6 active torsions:
REMARK  status: ('A' for Active; 'I' for Inactive)
REMARK    1  A    between atoms: S_1  and  N_4 
REMARK    2  A    between atoms: S_1  and  C_11 
REMARK    3  A    between atoms: N_6  and  C_21 
REMARK    4  A    between atoms: C_11  and  C_12 
REMARK    5  A    between atoms: C_15  and  C_18 
REMARK    6  A    between atoms: C_18  and  C_21 
ROOT
HETATM    1  N   UNK N   1      25.225  24.281  -5.788  0.00  0.00    -0.365 N 
HETATM    2  C   UNK N   1      26.792  27.961  -4.852  0.00  0.00    -0.042 A 
HETATM    3  C   UNK N   1      26.927  25.584  -5.156  0.00  0.00    -0.001 A 
HETATM    4  C   UNK N   1      27.557  26.779  -4.814  0.00  0.00     0.022 A 
HETATM    5  C   UNK N   1      27.389  24.291  -5.189  0.00  0.00    -0.029 A 
HETATM    6  C   UNK N   1      25.613  25.539  -5.520  0.00  0.00     0.043 A 
HETATM    7  C   UNK N   1      25.424  27.907  -5.216  0.00  0.00     0.010 A 
HETATM    8  C   UNK N   1      24.822  26.685  -5.560  0.00  0.00     0.031 A 
HETATM    9  C   UNK N   1      26.316  23.497  -5.582  0.00  0.00     0.096 A 
HETATM   10  H   UNK N   1      24.331  23.986  -6.076  0.00  0.00     0.165 HD
ENDROOT
BRANCH   2  11
HETATM   11  C   UNK N   1      27.443  29.282  -4.479  0.00  0.00     0.196 C 
BRANCH  11  12
HETATM   12  S   UNK N   1      27.490  29.972  -2.725  0.00  0.00     0.215 S 
HETATM   13  O   UNK N   1      26.867  28.598  -2.440  0.00  0.00    -0.211 OA
HETATM   14  O   UNK N   1      26.485  30.668  -3.657  0.00  0.00    -0.211 OA
BRANCH  12  15
HETATM   15  N   UNK N   1      29.091  29.764  -3.458  0.00  0.00    -0.210 NA
HETATM   16  C   UNK N   1      29.847  28.837  -2.625  0.00  0.00     0.107 C 
HETATM   17  C   UNK N   1      31.276  29.313  -2.626  0.00  0.00     0.017 C 
HETATM   18  C   UNK N   1      31.150  30.807  -2.730  0.00  0.00     0.017 C 
HETATM   19  C   UNK N   1      29.787  31.046  -3.354  0.00  0.00     0.107 C 
ENDBRANCH  12  15
ENDBRANCH  11  12
ENDBRANCH   2  11
BRANCH   5  20
HETATM   20  C   UNK N   1      28.752  23.819  -4.797  0.00  0.00     0.071 C 
BRANCH  20  21
HETATM   21  C   UNK N   1      28.878  23.520  -3.304  0.00  0.00     0.276 C 
BRANCH  21  22
HETATM   22  N   UNK N   1      30.188  23.890  -2.780  0.00  0.00     0.080 N 
HETATM   23  C   UNK N   1      31.073  22.736  -2.852  0.00  0.00     0.309 C 
HETATM   24  C   UNK N   1      30.735  24.875  -3.698  0.00  0.00     0.309 C 
ENDBRANCH  21  22
ENDBRANCH  20  21
ENDBRANCH   5  20
TORSDOF 6
ENDMDL
MODEL 5
REMARK VINA RESULT:      -6.5      2.682      7.708
REMARK  6 active torsions:
REMARK  status: ('A' for Active; 'I' for Inactive)
REMARK    1  A    between atoms: S_1  and  N_4 
REMARK    2  A    between atoms: S_1  and  C_11 
REMARK    3  A    between atoms: N_6  and  C_21 
REMARK    4  A    between atoms: C_11  and  C_12 
REMARK    5  A    between atoms: C_15  and  C_18 
REMARK    6  A    between atoms: C_18  and  C_21 
ROOT
HETATM    1  N   UNK N   1      24.809  25.898  -5.828  0.00  0.00    -0.365 N 
HETATM    2  C   UNK N   1      28.584  24.626  -4.823  0.00  0.00    -0.042 A 
HETATM    3  C   UNK N   1      26.865  26.287  -5.042  0.00  0.00    -0.001 A 
HETATM    4  C   UNK N   1      28.170  25.965  -4.675  0.00  0.00     0.022 A 
HETATM    5  C   UNK N   1      26.191  27.483  -5.040  0.00  0.00    -0.029 A 
HETATM    6  C   UNK N   1      26.000  25.351  -5.530  0.00  0.00     0.043 A 
HETATM    7  C   UNK N   1      27.687  23.662  -5.345  0.00  0.00     0.010 A 
HETATM    8  C   UNK N   1      26.376  24.021  -5.700  0.00  0.00     0.031 A 
HETATM    9  C   UNK N   1      24.916  27.220  -5.533  0.00  0.00     0.096 A 
HETATM   10  H   UNK N   1      24.019  25.435  -6.188  0.00  0.00     0.165 HD
ENDROOT
BRANCH   2  11
HETATM   11  C   UNK N   1      30.002  24.238  -4.440  0.00  0.00     0.196 C 
BRANCH  11  12
HETATM   12  S   UNK N   1      30.471  23.477  -2.780  0.00  0.00     0.215 S 
HETATM   13  O   UNK N   1      28.942  23.455  -2.645  0.00  0.00    -0.211 OA
HETATM   14  O   UNK N   1      30.828  24.965  -2.922  0.00  0.00    -0.211 OA
BRANCH  12  15
HETATM   15  N   UNK N   1      30.963  22.506  -4.181  0.00  0.00    -0.210 NA
HETATM   16  C   UNK N   1      30.438  21.158  -3.997  0.00  0.00     0.107 C 
HETATM   17  C   UNK N   1      31.472  20.208  -4.538  0.00  0.00     0.017 C 
HETATM   18  C   UNK N   1      32.774  20.902  -4.250  0.00  0.00     0.017 C 
HETATM   19  C   UNK N   1      32.418  22.372  -4.127  0.00  0.00     0.107 C 
ENDBRANCH  12  15
ENDBRANCH  11  12
ENDBRANCH   2  11
BRANCH   5  20
HETATM   20  C   UNK N   1      26.743  28.819  -4.661  0.00  0.00     0.071 C 
BRANCH  20  21
HETATM   21  C   UNK N   1      26.784  29.047  -3.152  0.00  0.00     0.276 C 
BRANCH  21  22
HETATM   22  N   UNK N   1      27.767  30.058  -2.777  0.00  0.00     0.080 N 
HETATM   23  C   UNK N   1      28.155  29.853  -1.388  0.00  0.00     0.309 C 
HETATM   24  C   UNK N   1      28.954  29.792  -3.570  0.00  0.00     0.309 C 
ENDBRANCH  21  22
ENDBRANCH  20  21
ENDBRANCH   5  20
TORSDOF 6
ENDMDL
MODEL 6
REMARK VINA RESULT:      -6.5     11.970     14.751
REMARK  6 active torsions:
REMARK  status: ('A' for Active; 'I' for Inactive)
REMARK    1  A    between atoms: S_1  and  N_4 
REMARK    2  A    between atoms: S_1  and  C_11 
REMARK    3  A    between atoms: N_6  and  C_21 
REMARK    4  A    between atoms: C_11  and  C_12 
REMARK    5  A    between atoms: C_15  and  C_18 
REMARK    6  A    between atoms: C_18  and  C_21 
ROOT
HETATM    1  N   UNK N   1      27.789  19.129   7.451  0.00  0.00    -0.365 N 
HETATM    2  C   UNK N   1      31.180  16.809   7.448  0.00  0.00    -0.042 A 
HETATM    3  C   UNK N   1      29.267  17.818   6.406  0.00  0.00    -0.001 A 
HETATM    4  C   UNK N   1      30.395  17.007   6.295  0.00  0.00     0.022 A 
HETATM    5  C   UNK N   1      28.309  18.171   5.488  0.00  0.00    -0.029 A 
HETATM    6  C   UNK N   1      28.917  18.411   7.584  0.00  0.00     0.043 A 
HETATM    7  C   UNK N   1      30.804  17.415   8.672  0.00  0.00     0.010 A 
HETATM    8  C   UNK N   1      29.662  18.232   8.746  0.00  0.00     0.031 A 
HETATM    9  C   UNK N   1      27.399  18.984   6.157  0.00  0.00     0.096 A 
HETATM   10  H   UNK N   1      27.335  19.654   8.149  0.00  0.00     0.165 HD
ENDROOT
BRANCH   2  11
HETATM   11  C   UNK N   1      32.413  15.926   7.367  0.00  0.00     0.196 C 
BRANCH  11  12
HETATM   12  S   UNK N   1      34.116  16.545   6.847  0.00  0.00     0.215 S 
HETATM   13  O   UNK N   1      33.312  17.840   6.669  0.00  0.00    -0.211 OA
HETATM   14  O   UNK N   1      33.474  15.550   5.868  0.00  0.00    -0.211 OA
BRANCH  12  15
HETATM   15  N   UNK N   1      34.030  16.013   8.537  0.00  0.00    -0.210 NA
HETATM   16  C   UNK N   1      34.502  17.109   9.375  0.00  0.00     0.107 C 
HETATM   17  C   UNK N   1      35.266  16.491  10.515  0.00  0.00     0.017 C 
HETATM   18  C   UNK N   1      35.883  15.265   9.902  0.00  0.00     0.017 C 
HETATM   19  C   UNK N   1      35.009  14.940   8.705  0.00  0.00     0.107 C 
ENDBRANCH  12  15
ENDBRANCH  11  12
ENDBRANCH   2  11
BRANCH   5  20
HETATM   20  C   UNK N   1      28.215  17.706   4.070  0.00  0.00     0.071 C 
BRANCH  20  21
HETATM   21  C   UNK N   1      27.515  16.356   3.926  0.00  0.00     0.276 C 
BRANCH  21  22
HETATM   22  N   UNK N   1      28.371  15.360   3.291  0.00  0.00     0.080 N 
HETATM   23  C   UNK N   1      27.666  14.780   2.157  0.00  0.00     0.309 C 
HETATM   24  C   UNK N   1      29.502  16.083   2.735  0.00  0.00     0.309 C 
ENDBRANCH  21  22
ENDBRANCH  20  21
ENDBRANCH   5  20
TORSDOF 6
ENDMDL
MODEL 7
REMARK VINA RESULT:      -6.4     11.126     12.922
REMARK  6 active torsions:
REMARK  status: ('A' for Active; 'I' for Inactive)
REMARK    1  A    between atoms: S_1  and  N_4 
REMARK    2  A    between atoms: S_1  and  C_11 
REMARK    3  A    between atoms: N_6  and  C_21 
REMARK    4  A    between atoms: C_11  and  C_12 
REMARK    5  A    between atoms: C_15  and  C_18 
REMARK    6  A    between atoms: C_18  and  C_21 
ROOT
HETATM    1  N   UNK N   1      31.890  17.562   9.080  0.00  0.00    -0.365 N 
HETATM    2  C   UNK N   1      28.488  17.634   6.778  0.00  0.00    -0.042 A 
HETATM    3  C   UNK N   1      30.705  16.884   7.311  0.00  0.00    -0.001 A 
HETATM    4  C   UNK N   1      29.604  16.837   6.457  0.00  0.00     0.022 A 
HETATM    5  C   UNK N   1      31.925  16.257   7.253  0.00  0.00    -0.029 A 
HETATM    6  C   UNK N   1      30.721  17.670   8.426  0.00  0.00     0.043 A 
HETATM    7  C   UNK N   1      28.515  18.459   7.929  0.00  0.00     0.010 A 
HETATM    8  C   UNK N   1      29.641  18.478   8.771  0.00  0.00     0.031 A 
HETATM    9  C   UNK N   1      32.647  16.694   8.361  0.00  0.00     0.096 A 
HETATM   10  H   UNK N   1      32.146  18.020   9.913  0.00  0.00     0.165 HD
ENDROOT
BRANCH   2  11
HETATM   11  C   UNK N   1      27.272  17.614   5.868  0.00  0.00     0.196 C 
BRANCH  11  12
HETATM   12  S   UNK N   1      27.156  18.573   4.249  0.00  0.00     0.215 S 
HETATM   13  O   UNK N   1      28.560  19.002   4.696  0.00  0.00    -0.211 OA
HETATM   14  O   UNK N   1      26.221  19.081   5.359  0.00  0.00    -0.211 OA
BRANCH  12  15
HETATM   15  N   UNK N   1      27.103  16.812   4.046  0.00  0.00    -0.210 NA
HETATM   16  C   UNK N   1      28.200  16.431   3.165  0.00  0.00     0.107 C 
HETATM   17  C   UNK N   1      27.697  15.302   2.305  0.00  0.00     0.017 C 
HETATM   18  C   UNK N   1      26.237  15.613   2.130  0.00  0.00     0.017 C 
HETATM   19  C   UNK N   1      25.879  16.495   3.311  0.00  0.00     0.107 C 
ENDBRANCH  12  15
ENDBRANCH  11  12
ENDBRANCH   2  11
BRANCH   5  20
HETATM   20  C   UNK N   1      32.415  15.351   6.170  0.00  0.00     0.071 C 
BRANCH  20  21
HETATM   21  C   UNK N   1      33.436  16.014   5.248  0.00  0.00     0.276 C 
BRANCH  21  22
HETATM   22  N   UNK N   1      32.930  16.163   3.888  0.00  0.00     0.080 N 
HETATM   23  C   UNK N   1      31.882  15.177   3.659  0.00  0.00     0.309 C 
HETATM   24  C   UNK N   1      32.280  17.461   3.830  0.00  0.00     0.309 C 
ENDBRANCH  21  22
ENDBRANCH  20  21
ENDBRANCH   5  20
TORSDOF 6
ENDMDL
MODEL 8
REMARK VINA RESULT:      -6.1     16.263     18.961
REMARK  6 active torsions:
REMARK  status: ('A' for Active; 'I' for Inactive)
REMARK    1  A    between atoms: S_1  and  N_4 
REMARK    2  A    between atoms: S_1  and  C_11 
REMARK    3  A    between atoms: N_6  and  C_21 
REMARK    4  A    between atoms: C_11  and  C_12 
REMARK    5  A    between atoms: C_15  and  C_18 
REMARK    6  A    between atoms: C_18  and  C_21 
ROOT
HETATM    1  N   UNK N   1      36.358  15.232  13.136  0.00  0.00    -0.365 N 
HETATM    2  C   UNK N   1      34.623  14.696   9.451  0.00  0.00    -0.042 A 
HETATM    3  C   UNK N   1      35.196  14.001  11.676  0.00  0.00    -0.001 A 
HETATM    4  C   UNK N   1      34.579  13.713  10.460  0.00  0.00     0.022 A 
HETATM    5  C   UNK N   1      35.344  13.254  12.818  0.00  0.00    -0.029 A 
HETATM    6  C   UNK N   1      35.827  15.191  11.902  0.00  0.00     0.043 A 
HETATM    7  C   UNK N   1      35.292  15.922   9.686  0.00  0.00     0.010 A 
HETATM    8  C   UNK N   1      35.899  16.181  10.927  0.00  0.00     0.031 A 
HETATM    9  C   UNK N   1      36.070  14.036  13.712  0.00  0.00     0.096 A 
HETATM   10  H   UNK N   1      36.855  15.979  13.541  0.00  0.00     0.165 HD
ENDROOT
BRANCH   2  11
HETATM   11  C   UNK N   1      33.967  14.415   8.110  0.00  0.00     0.196 C 
BRANCH  11  12
HETATM   12  S   UNK N   1      32.180  14.854   7.702  0.00  0.00     0.215 S 
HETATM   13  O   UNK N   1      32.277  15.472   9.103  0.00  0.00    -0.211 OA
HETATM   14  O   UNK N   1      32.433  13.354   7.919  0.00  0.00    -0.211 OA
BRANCH  12  15
HETATM   15  N   UNK N   1      33.369  15.614   6.627  0.00  0.00    -0.210 NA
HETATM   16  C   UNK N   1      33.154  17.055   6.671  0.00  0.00     0.107 C 
HETATM   17  C   UNK N   1      33.407  17.577   5.281  0.00  0.00     0.017 C 
HETATM   18  C   UNK N   1      32.958  16.450   4.394  0.00  0.00     0.017 C 
HETATM   19  C   UNK N   1      33.042  15.208   5.261  0.00  0.00     0.107 C 
ENDBRANCH  12  15
ENDBRANCH  11  12
ENDBRANCH   2  11
BRANCH   5  20
HETATM   20  C   UNK N   1      34.888  11.846  13.030  0.00  0.00     0.071 C 
BRANCH  20  21
HETATM   21  C   UNK N   1      35.690  10.828  12.223  0.00  0.00     0.276 C 
BRANCH  21  22
HETATM   22  N   UNK N   1      37.128  10.981  12.420  0.00  0.00     0.080 N 
HETATM   23  C   UNK N   1      37.643   9.803  13.103  0.00  0.00     0.309 C 
HETATM   24  C   UNK N   1      37.728  10.974  11.097  0.00  0.00     0.309 C 
ENDBRANCH  21  22
ENDBRANCH  20  21
ENDBRANCH   5  20
TORSDOF 6
ENDMDL
MODEL 9
REMARK VINA RESULT:      -6.1     23.446     26.226
REMARK  6 active torsions:
REMARK  status: ('A' for Active; 'I' for Inactive)
REMARK    1  A    between atoms: S_1  and  N_4 
REMARK    2  A    between atoms: S_1  and  C_11 
REMARK    3  A    between atoms: N_6  and  C_21 
REMARK    4  A    between atoms: C_11  and  C_12 
REMARK    5  A    between atoms: C_15  and  C_18 
REMARK    6  A    between atoms: C_18  and  C_21 
ROOT
HETATM    1  N   UNK N   1      35.248  11.693  20.361  0.00  0.00    -0.365 N 
HETATM    2  C   UNK N   1      35.083  12.524  16.341  0.00  0.00    -0.042 A 
HETATM    3  C   UNK N   1      35.052  11.044  18.231  0.00  0.00    -0.001 A 
HETATM    4  C   UNK N   1      34.990  11.213  16.849  0.00  0.00     0.022 A 
HETATM    5  C   UNK N   1      35.018   9.914  19.010  0.00  0.00    -0.029 A 
HETATM    6  C   UNK N   1      35.198  12.101  19.082  0.00  0.00     0.043 A 
HETATM    7  C   UNK N   1      35.249  13.616  17.228  0.00  0.00     0.010 A 
HETATM    8  C   UNK N   1      35.302  13.410  18.617  0.00  0.00     0.031 A 
HETATM    9  C   UNK N   1      35.143  10.338  20.330  0.00  0.00     0.096 A 
HETATM   10  H   UNK N   1      35.343  12.260  21.160  0.00  0.00     0.165 HD
ENDROOT
BRANCH   2  11
HETATM   11  C   UNK N   1      35.026  12.746  14.840  0.00  0.00     0.196 C 
BRANCH  11  12
HETATM   12  S   UNK N   1      36.542  12.744  13.719  0.00  0.00     0.215 S 
HETATM   13  O   UNK N   1      37.227  12.503  15.071  0.00  0.00    -0.211 OA
HETATM   14  O   UNK N   1      35.861  14.114  13.867  0.00  0.00    -0.211 OA
BRANCH  12  15
HETATM   15  N   UNK N   1      35.398  11.431  13.383  0.00  0.00    -0.210 NA
HETATM   16  C   UNK N   1      36.118  10.169  13.504  0.00  0.00     0.107 C 
HETATM   17  C   UNK N   1      35.571   9.250  12.445  0.00  0.00     0.017 C 
HETATM   18  C   UNK N   1      35.215  10.180  11.319  0.00  0.00     0.017 C 
HETATM   19  C   UNK N   1      35.019  11.534  11.974  0.00  0.00     0.107 C 
ENDBRANCH  12  15
ENDBRANCH  11  12
ENDBRANCH   2  11
BRANCH   5  20
HETATM   20  C   UNK N   1      34.946   8.500  18.531  0.00  0.00     0.071 C 
BRANCH  20  21
HETATM   21  C   UNK N   1      36.196   7.688  18.866  0.00  0.00     0.276 C 
BRANCH  21  22
HETATM   22  N   UNK N   1      37.396   8.256  18.262  0.00  0.00     0.080 N 
HETATM   23  C   UNK N   1      38.562   7.531  18.748  0.00  0.00     0.309 C 
HETATM   24  C   UNK N   1      37.314   7.975  16.838  0.00  0.00     0.309 C 
ENDBRANCH  21  22
ENDBRANCH  20  21
ENDBRANCH   5  20
TORSDOF 6
ENDMDL
