MODEL 1
REMARK VINA RESULT:      -7.4      0.000      0.000
REMARK  3 active torsions:
REMARK  status: ('A' for Active; 'I' for Inactive)
REMARK    1  A    between atoms: N_5  and  N_6 
REMARK    2  A    between atoms: N_5  and  C_20 
REMARK    3  A    between atoms: C_12  and  C_14 
ROOT
HETATM    1  N   UNK N   1      32.781  16.523   9.110  0.00  0.00    -0.282 N 
ATOM      2  HN  UNK N   1      32.375  15.622   9.361  1.00  0.00     0.188 HD
HETATM    3  N   UNK N   1      35.478  14.526   9.147  0.00  0.00    -0.189 NA
HETATM    4  N   UNK N   1      34.875  19.052   8.313  0.00  0.00    -0.189 NA
HETATM    5  C   UNK N   1      34.033  16.650   8.906  0.00  0.00     0.209 C 
HETATM    6  C   UNK N   1      34.859  15.494   9.033  0.00  0.00     0.130 C 
HETATM    7  C   UNK N   1      34.563  17.967   8.572  0.00  0.00     0.130 C 
ENDROOT
BRANCH   1   8
HETATM    8  N   UNK N   1      32.007  17.630   8.979  0.00  0.00    -0.299 N 
HETATM    9  H   UNK N   1      32.273  18.447   9.460  0.00  0.00     0.187 HD
BRANCH   8  10
HETATM   10  C   UNK N   1      30.868  17.669   8.208  0.00  0.00     0.048 A 
HETATM   11  C   UNK N   1      29.762  18.210   8.812  0.00  0.00     0.032 A 
HETATM   12  C   UNK N   1      28.602  18.325   8.114  0.00  0.00     0.016 A 
HETATM   13  C   UNK N   1      28.525  17.912   6.786  0.00  0.00    -0.012 A 
HETATM   14  C   UNK N   1      29.641  17.322   6.167  0.00  0.00     0.016 A 
HETATM   15  C   UNK N   1      30.827  17.187   6.891  0.00  0.00     0.032 A 
BRANCH  13  16
HETATM   16  C   UNK N   1      27.276  18.233   6.099  0.00  0.00     0.040 C 
HETATM   17  N   UNK N   1      26.453  17.253   5.923  0.00  0.00    -0.301 N 
HETATM   18  N   UNK N   1      25.212  17.388   5.361  0.00  0.00    -0.270 N 
ATOM     19  HN  UNK N   1      26.746  16.322   6.221  1.00  0.00     0.186 HD
HETATM   20  C   UNK N   1      24.745  18.565   4.899  0.00  0.00     0.236 C 
HETATM   21  H   UNK N   1      24.636  16.593   5.292  0.00  0.00     0.190 HD
HETATM   22  O   UNK N   1      23.635  18.606   4.403  0.00  0.00    -0.272 OA
HETATM   23  C   UNK N   1      25.568  19.822   4.965  0.00  0.00     0.115 C 
HETATM   24  C   UNK N   1      26.881  19.630   5.699  0.00  0.00     0.042 C 
HETATM   25  C   UNK N   1      27.816  20.825   5.805  0.00  0.00     0.017 C 
ENDBRANCH  13  16
ENDBRANCH   8  10
ENDBRANCH   1   8
TORSDOF 3
ENDMDL
MODEL 2
REMARK VINA RESULT:      -6.9      3.431      8.097
REMARK  3 active torsions:
REMARK  status: ('A' for Active; 'I' for Inactive)
REMARK    1  A    between atoms: N_5  and  N_6 
REMARK    2  A    between atoms: N_5  and  C_20 
REMARK    3  A    between atoms: C_12  and  C_14 
ROOT
HETATM    1  N   UNK N   1      27.216  19.423   5.801  0.00  0.00    -0.282 N 
ATOM      2  HN  UNK N   1      27.689  20.326   5.792  1.00  0.00     0.188 HD
HETATM    3  N   UNK N   1      26.204  20.716   2.873  0.00  0.00    -0.189 NA
HETATM    4  N   UNK N   1      25.310  16.729   5.076  0.00  0.00    -0.189 NA
HETATM    5  C   UNK N   1      26.462  19.063   4.838  0.00  0.00     0.209 C 
HETATM    6  C   UNK N   1      26.298  19.955   3.738  0.00  0.00     0.130 C 
HETATM    7  C   UNK N   1      25.791  17.771   4.913  0.00  0.00     0.130 C 
ENDROOT
BRANCH   1   8
HETATM    8  N   UNK N   1      27.367  18.561   6.838  0.00  0.00    -0.299 N 
HETATM    9  H   UNK N   1      26.563  18.269   7.325  0.00  0.00     0.187 HD
BRANCH   8  10
HETATM   10  C   UNK N   1      28.589  18.075   7.243  0.00  0.00     0.048 A 
HETATM   11  C   UNK N   1      29.041  18.540   8.452  0.00  0.00     0.032 A 
HETATM   12  C   UNK N   1      30.219  18.085   8.951  0.00  0.00     0.016 A 
HETATM   13  C   UNK N   1      30.970  17.139   8.257  0.00  0.00    -0.012 A 
HETATM   14  C   UNK N   1      30.536  16.681   7.000  0.00  0.00     0.016 A 
HETATM   15  C   UNK N   1      29.334  17.164   6.480  0.00  0.00     0.032 A 
BRANCH  13  16
HETATM   16  C   UNK N   1      32.132  16.612   8.968  0.00  0.00     0.040 C 
HETATM   17  N   UNK N   1      31.911  15.626   9.772  0.00  0.00    -0.301 N 
HETATM   18  N   UNK N   1      32.893  14.968  10.464  0.00  0.00    -0.270 N 
ATOM     19  HN  UNK N   1      30.947  15.318   9.898  1.00  0.00     0.186 HD
HETATM   20  C   UNK N   1      34.192  15.321  10.399  0.00  0.00     0.236 C 
HETATM   21  H   UNK N   1      32.639  14.206  11.033  0.00  0.00     0.190 HD
HETATM   22  O   UNK N   1      35.006  14.695  11.051  0.00  0.00    -0.272 OA
HETATM   23  C   UNK N   1      34.655  16.477   9.556  0.00  0.00     0.115 C 
HETATM   24  C   UNK N   1      33.541  17.088   8.729  0.00  0.00     0.042 C 
HETATM   25  C   UNK N   1      33.880  18.286   7.856  0.00  0.00     0.017 C 
ENDBRANCH  13  16
ENDBRANCH   8  10
ENDBRANCH   1   8
TORSDOF 3
ENDMDL
MODEL 3
REMARK VINA RESULT:      -6.9      3.839      6.737
REMARK  3 active torsions:
REMARK  status: ('A' for Active; 'I' for Inactive)
REMARK    1  A    between atoms: N_5  and  N_6 
REMARK    2  A    between atoms: N_5  and  C_20 
REMARK    3  A    between atoms: C_12  and  C_14 
ROOT
HETATM    1  N   UNK N   1      36.850  14.528  13.122  0.00  0.00    -0.282 N 
ATOM      2  HN  UNK N   1      37.612  15.186  12.963  1.00  0.00     0.188 HD
HETATM    3  N   UNK N   1      37.627  15.473  16.248  0.00  0.00    -0.189 NA
HETATM    4  N   UNK N   1      34.506  12.518  14.494  0.00  0.00    -0.189 NA
HETATM    5  C   UNK N   1      36.443  14.263  14.301  0.00  0.00     0.209 C 
HETATM    6  C   UNK N   1      37.078  14.915  15.399  0.00  0.00     0.130 C 
HETATM    7  C   UNK N   1      35.364  13.296  14.474  0.00  0.00     0.130 C 
ENDROOT
BRANCH   1   8
HETATM    8  N   UNK N   1      36.231  13.905  12.088  0.00  0.00    -0.299 N 
HETATM    9  H   UNK N   1      36.348  12.933  11.990  0.00  0.00     0.187 HD
BRANCH   8  10
HETATM   10  C   UNK N   1      35.449  14.565  11.168  0.00  0.00     0.048 A 
HETATM   11  C   UNK N   1      34.566  13.780  10.471  0.00  0.00     0.032 A 
HETATM   12  C   UNK N   1      33.725  14.351   9.569  0.00  0.00     0.016 A 
HETATM   13  C   UNK N   1      33.738  15.727   9.353  0.00  0.00    -0.012 A 
HETATM   14  C   UNK N   1      34.664  16.537  10.034  0.00  0.00     0.016 A 
HETATM   15  C   UNK N   1      35.540  15.946  10.946  0.00  0.00     0.032 A 
BRANCH  13  16
HETATM   16  C   UNK N   1      32.683  16.238   8.480  0.00  0.00     0.040 C 
HETATM   17  N   UNK N   1      31.535  16.444   9.034  0.00  0.00    -0.301 N 
HETATM   18  N   UNK N   1      30.458  16.983   8.383  0.00  0.00    -0.270 N 
ATOM     19  HN  UNK N   1      31.424  16.190  10.016  1.00  0.00     0.186 HD
HETATM   20  C   UNK N   1      30.487  17.316   7.077  0.00  0.00     0.236 C 
HETATM   21  H   UNK N   1      29.627  17.135   8.889  0.00  0.00     0.190 HD
HETATM   22  O   UNK N   1      29.487  17.781   6.564  0.00  0.00    -0.272 OA
HETATM   23  C   UNK N   1      31.717  17.110   6.237  0.00  0.00     0.115 C 
HETATM   24  C   UNK N   1      32.905  16.619   7.041  0.00  0.00     0.042 C 
HETATM   25  C   UNK N   1      34.202  16.344   6.294  0.00  0.00     0.017 C 
ENDBRANCH  13  16
ENDBRANCH   8  10
ENDBRANCH   1   8
TORSDOF 3
ENDMDL
MODEL 4
REMARK VINA RESULT:      -6.7      3.423      8.063
REMARK  3 active torsions:
REMARK  status: ('A' for Active; 'I' for Inactive)
REMARK    1  A    between atoms: N_5  and  N_6 
REMARK    2  A    between atoms: N_5  and  C_20 
REMARK    3  A    between atoms: C_12  and  C_14 
ROOT
HETATM    1  N   UNK N   1      26.581  17.542   5.930  0.00  0.00    -0.282 N 
ATOM      2  HN  UNK N   1      26.505  16.551   6.159  1.00  0.00     0.188 HD
HETATM    3  N   UNK N   1      24.229  16.504   3.772  0.00  0.00    -0.189 NA
HETATM    4  N   UNK N   1      26.247  20.610   4.556  0.00  0.00    -0.189 NA
HETATM    5  C   UNK N   1      25.869  18.064   5.011  0.00  0.00     0.209 C 
HETATM    6  C   UNK N   1      24.954  17.228   4.307  0.00  0.00     0.130 C 
HETATM    7  C   UNK N   1      26.035  19.481   4.710  0.00  0.00     0.130 C 
ENDROOT
BRANCH   1   8
HETATM    8  N   UNK N   1      27.442  18.352   6.596  0.00  0.00    -0.299 N 
HETATM    9  H   UNK N   1      27.176  19.286   6.758  0.00  0.00     0.187 HD
BRANCH   8  10
HETATM   10  C   UNK N   1      28.670  17.934   7.057  0.00  0.00     0.048 A 
HETATM   11  C   UNK N   1      28.959  18.264   8.356  0.00  0.00     0.032 A 
HETATM   12  C   UNK N   1      30.132  17.859   8.909  0.00  0.00     0.016 A 
HETATM   13  C   UNK N   1      31.041  17.099   8.176  0.00  0.00    -0.012 A 
HETATM   14  C   UNK N   1      30.773  16.786   6.831  0.00  0.00     0.016 A 
HETATM   15  C   UNK N   1      29.575  17.219   6.259  0.00  0.00     0.032 A 
BRANCH  13  16
HETATM   16  C   UNK N   1      32.188  16.593   8.927  0.00  0.00     0.040 C 
HETATM   17  N   UNK N   1      31.966  15.572   9.687  0.00  0.00    -0.301 N 
HETATM   18  N   UNK N   1      32.938  14.929  10.405  0.00  0.00    -0.270 N 
ATOM     19  HN  UNK N   1      31.009  15.225   9.756  1.00  0.00     0.186 HD
HETATM   20  C   UNK N   1      34.224  15.331  10.415  0.00  0.00     0.236 C 
HETATM   21  H   UNK N   1      32.687  14.139  10.937  0.00  0.00     0.190 HD
HETATM   22  O   UNK N   1      35.030  14.714  11.086  0.00  0.00    -0.272 OA
HETATM   23  C   UNK N   1      34.683  16.530   9.632  0.00  0.00     0.115 C 
HETATM   24  C   UNK N   1      33.586  17.127   8.771  0.00  0.00     0.042 C 
HETATM   25  C   UNK N   1      33.922  18.366   7.954  0.00  0.00     0.017 C 
ENDBRANCH  13  16
ENDBRANCH   8  10
ENDBRANCH   1   8
TORSDOF 3
ENDMDL
MODEL 5
REMARK VINA RESULT:      -6.7      3.701      8.275
REMARK  3 active torsions:
REMARK  status: ('A' for Active; 'I' for Inactive)
REMARK    1  A    between atoms: N_5  and  N_6 
REMARK    2  A    between atoms: N_5  and  C_20 
REMARK    3  A    between atoms: C_12  and  C_14 
ROOT
HETATM    1  N   UNK N   1      27.499  18.901   7.201  0.00  0.00    -0.282 N 
ATOM      2  HN  UNK N   1      27.328  19.221   8.154  1.00  0.00     0.188 HD
HETATM    3  N   UNK N   1      26.114  21.916   6.690  0.00  0.00    -0.189 NA
HETATM    4  N   UNK N   1      27.670  18.598   3.840  0.00  0.00    -0.189 NA
HETATM    5  C   UNK N   1      27.185  19.621   6.196  0.00  0.00     0.209 C 
HETATM    6  C   UNK N   1      26.590  20.894   6.436  0.00  0.00     0.130 C 
HETATM    7  C   UNK N   1      27.431  19.104   4.855  0.00  0.00     0.130 C 
ENDROOT
BRANCH   1   8
HETATM    8  N   UNK N   1      28.071  17.695   6.957  0.00  0.00    -0.299 N 
HETATM    9  H   UNK N   1      27.535  17.007   6.499  0.00  0.00     0.187 HD
BRANCH   8  10
HETATM   10  C   UNK N   1      29.362  17.385   7.318  0.00  0.00     0.048 A 
HETATM   11  C   UNK N   1      29.831  18.017   8.441  0.00  0.00     0.032 A 
HETATM   12  C   UNK N   1      31.082  17.741   8.895  0.00  0.00     0.016 A 
HETATM   13  C   UNK N   1      31.890  16.814   8.242  0.00  0.00    -0.012 A 
HETATM   14  C   UNK N   1      31.434  16.187   7.068  0.00  0.00     0.016 A 
HETATM   15  C   UNK N   1      30.156  16.485   6.592  0.00  0.00     0.032 A 
BRANCH  13  16
HETATM   16  C   UNK N   1      33.146  16.489   8.914  0.00  0.00     0.040 C 
HETATM   17  N   UNK N   1      33.844  17.490   9.336  0.00  0.00    -0.301 N 
HETATM   18  N   UNK N   1      35.008  17.367  10.045  0.00  0.00    -0.270 N 
ATOM     19  HN  UNK N   1      33.507  18.430   9.126  1.00  0.00     0.186 HD
HETATM   20  C   UNK N   1      35.559  16.172  10.339  0.00  0.00     0.236 C 
HETATM   21  H   UNK N   1      35.462  18.184  10.354  0.00  0.00     0.190 HD
HETATM   22  O   UNK N   1      36.601  16.141  10.966  0.00  0.00    -0.272 OA
HETATM   23  C   UNK N   1      34.928  14.881   9.898  0.00  0.00     0.115 C 
HETATM   24  C   UNK N   1      33.587  15.082   9.219  0.00  0.00     0.042 C 
HETATM   25  C   UNK N   1      32.863  13.849   8.700  0.00  0.00     0.017 C 
ENDBRANCH  13  16
ENDBRANCH   8  10
ENDBRANCH   1   8
TORSDOF 3
ENDMDL
MODEL 6
REMARK VINA RESULT:      -6.7      3.595      8.408
REMARK  3 active torsions:
REMARK  status: ('A' for Active; 'I' for Inactive)
REMARK    1  A    between atoms: N_5  and  N_6 
REMARK    2  A    between atoms: N_5  and  C_20 
REMARK    3  A    between atoms: C_12  and  C_14 
ROOT
HETATM    1  N   UNK N   1      28.126  18.798   3.904  0.00  0.00    -0.282 N 
ATOM      2  HN  UNK N   1      28.407  19.769   4.041  1.00  0.00     0.188 HD
HETATM    3  N   UNK N   1      25.175  20.397   3.845  0.00  0.00    -0.189 NA
HETATM    4  N   UNK N   1      26.390  15.932   3.469  0.00  0.00    -0.189 NA
HETATM    5  C   UNK N   1      26.900  18.479   3.768  0.00  0.00     0.209 C 
HETATM    6  C   UNK N   1      25.922  19.516   3.807  0.00  0.00     0.130 C 
HETATM    7  C   UNK N   1      26.552  17.073   3.598  0.00  0.00     0.130 C 
ENDROOT
BRANCH   1   8
HETATM    8  N   UNK N   1      29.045  17.801   3.857  0.00  0.00    -0.299 N 
HETATM    9  H   UNK N   1      29.094  17.247   3.045  0.00  0.00     0.187 HD
BRANCH   8  10
HETATM   10  C   UNK N   1      29.912  17.523   4.889  0.00  0.00     0.048 A 
HETATM   11  C   UNK N   1      31.241  17.483   4.552  0.00  0.00     0.032 A 
HETATM   12  C   UNK N   1      32.174  17.255   5.514  0.00  0.00     0.016 A 
HETATM   13  C   UNK N   1      31.798  17.075   6.843  0.00  0.00    -0.012 A 
HETATM   14  C   UNK N   1      30.436  17.078   7.196  0.00  0.00     0.016 A 
HETATM   15  C   UNK N   1      29.479  17.294   6.203  0.00  0.00     0.032 A 
BRANCH  13  16
HETATM   16  C   UNK N   1      32.897  16.997   7.802  0.00  0.00     0.040 C 
HETATM   17  N   UNK N   1      33.591  18.074   7.964  0.00  0.00    -0.301 N 
HETATM   18  N   UNK N   1      34.610  18.199   8.870  0.00  0.00    -0.270 N 
ATOM     19  HN  UNK N   1      33.367  18.881   7.380  1.00  0.00     0.186 HD
HETATM   20  C   UNK N   1      35.012  17.183   9.659  0.00  0.00     0.236 C 
HETATM   21  H   UNK N   1      35.068  19.067   8.949  0.00  0.00     0.190 HD
HETATM   22  O   UNK N   1      35.931  17.367  10.434  0.00  0.00    -0.272 OA
HETATM   23  C   UNK N   1      34.364  15.828   9.594  0.00  0.00     0.115 C 
HETATM   24  C   UNK N   1      33.173  15.788   8.656  0.00  0.00     0.042 C 
HETATM   25  C   UNK N   1      32.451  14.461   8.482  0.00  0.00     0.017 C 
ENDBRANCH  13  16
ENDBRANCH   8  10
ENDBRANCH   1   8
TORSDOF 3
ENDMDL
MODEL 7
REMARK VINA RESULT:      -6.7      2.403      4.227
REMARK  3 active torsions:
REMARK  status: ('A' for Active; 'I' for Inactive)
REMARK    1  A    between atoms: N_5  and  N_6 
REMARK    2  A    between atoms: N_5  and  C_20 
REMARK    3  A    between atoms: C_12  and  C_14 
ROOT
HETATM    1  N   UNK N   1      35.481  15.899  11.303  0.00  0.00    -0.282 N 
ATOM      2  HN  UNK N   1      34.945  16.411  12.003  1.00  0.00     0.188 HD
HETATM    3  N   UNK N   1      36.067  14.110  14.082  0.00  0.00    -0.189 NA
HETATM    4  N   UNK N   1      37.487  13.717   9.680  0.00  0.00    -0.189 NA
HETATM    5  C   UNK N   1      36.149  14.858  11.614  0.00  0.00     0.209 C 
HETATM    6  C   UNK N   1      36.125  14.420  12.971  0.00  0.00     0.130 C 
HETATM    7  C   UNK N   1      36.917  14.177  10.578  0.00  0.00     0.130 C 
ENDROOT
BRANCH   1   8
HETATM    8  N   UNK N   1      35.508  16.300  10.007  0.00  0.00    -0.299 N 
HETATM    9  H   UNK N   1      36.379  16.349   9.550  0.00  0.00     0.187 HD
BRANCH   8  10
HETATM   10  C   UNK N   1      34.380  16.641   9.298  0.00  0.00     0.048 A 
HETATM   11  C   UNK N   1      33.351  15.734   9.348  0.00  0.00     0.032 A 
HETATM   12  C   UNK N   1      32.182  16.006   8.711  0.00  0.00     0.016 A 
HETATM   13  C   UNK N   1      32.009  17.201   8.017  0.00  0.00    -0.012 A 
HETATM   14  C   UNK N   1      33.068  18.123   7.928  0.00  0.00     0.016 A 
HETATM   15  C   UNK N   1      34.275  17.834   8.568  0.00  0.00     0.032 A 
BRANCH  13  16
HETATM   16  C   UNK N   1      30.660  17.445   7.511  0.00  0.00     0.040 C 
HETATM   17  N   UNK N   1      30.408  17.004   6.324  0.00  0.00    -0.301 N 
HETATM   18  N   UNK N   1      29.180  17.084   5.723  0.00  0.00    -0.270 N 
ATOM     19  HN  UNK N   1      31.169  16.569   5.802  1.00  0.00     0.186 HD
HETATM   20  C   UNK N   1      28.119  17.674   6.309  0.00  0.00     0.236 C 
HETATM   21  H   UNK N   1      29.067  16.695   4.826  0.00  0.00     0.190 HD
HETATM   22  O   UNK N   1      27.062  17.717   5.709  0.00  0.00    -0.272 OA
HETATM   23  C   UNK N   1      28.215  18.296   7.675  0.00  0.00     0.115 C 
HETATM   24  C   UNK N   1      29.565  18.073   8.331  0.00  0.00     0.042 C 
HETATM   25  C   UNK N   1      29.794  18.681   9.706  0.00  0.00     0.017 C 
ENDBRANCH  13  16
ENDBRANCH   8  10
ENDBRANCH   1   8
TORSDOF 3
ENDMDL
MODEL 8
REMARK VINA RESULT:      -6.6      1.887      2.599
REMARK  3 active torsions:
REMARK  status: ('A' for Active; 'I' for Inactive)
REMARK    1  A    between atoms: N_5  and  N_6 
REMARK    2  A    between atoms: N_5  and  C_20 
REMARK    3  A    between atoms: C_12  and  C_14 
ROOT
HETATM    1  N   UNK N   1      32.655  16.451   9.243  0.00  0.00    -0.282 N 
ATOM      2  HN  UNK N   1      32.401  17.029  10.043  1.00  0.00     0.188 HD
HETATM    3  N   UNK N   1      35.658  17.268  10.500  0.00  0.00    -0.189 NA
HETATM    4  N   UNK N   1      34.312  14.746   6.843  0.00  0.00    -0.189 NA
HETATM    5  C   UNK N   1      33.875  16.219   8.957  0.00  0.00     0.209 C 
HETATM    6  C   UNK N   1      34.885  16.785   9.791  0.00  0.00     0.130 C 
HETATM    7  C   UNK N   1      34.183  15.403   7.788  0.00  0.00     0.130 C 
ENDROOT
BRANCH   1   8
HETATM    8  N   UNK N   1      31.706  15.899   8.445  0.00  0.00    -0.299 N 
HETATM    9  H   UNK N   1      31.669  14.918   8.373  0.00  0.00     0.187 HD
BRANCH   8  10
HETATM   10  C   UNK N   1      30.794  16.641   7.732  0.00  0.00     0.048 A 
HETATM   11  C   UNK N   1      30.751  16.391   6.384  0.00  0.00     0.032 A 
HETATM   12  C   UNK N   1      29.852  17.049   5.605  0.00  0.00     0.016 A 
HETATM   13  C   UNK N   1      28.963  17.966   6.161  0.00  0.00    -0.012 A 
HETATM   14  C   UNK N   1      29.022  18.258   7.535  0.00  0.00     0.016 A 
HETATM   15  C   UNK N   1      29.958  17.595   8.331  0.00  0.00     0.032 A 
BRANCH  13  16
HETATM   16  C   UNK N   1      27.945  18.487   5.251  0.00  0.00     0.040 C 
HETATM   17  N   UNK N   1      28.253  19.562   4.606  0.00  0.00    -0.301 N 
HETATM   18  N   UNK N   1      27.448  20.146   3.665  0.00  0.00    -0.270 N 
ATOM     19  HN  UNK N   1      29.150  20.004   4.811  1.00  0.00     0.186 HD
HETATM   20  C   UNK N   1      26.228  19.667   3.350  0.00  0.00     0.236 C 
HETATM   21  H   UNK N   1      27.773  20.950   3.198  0.00  0.00     0.190 HD
HETATM   22  O   UNK N   1      25.566  20.245   2.510  0.00  0.00    -0.272 OA
HETATM   23  C   UNK N   1      25.661  18.447   4.023  0.00  0.00     0.115 C 
HETATM   24  C   UNK N   1      26.644  17.784   4.968  0.00  0.00     0.042 C 
HETATM   25  C   UNK N   1      26.175  16.555   5.732  0.00  0.00     0.017 C 
ENDBRANCH  13  16
ENDBRANCH   8  10
ENDBRANCH   1   8
TORSDOF 3
ENDMDL
MODEL 9
REMARK VINA RESULT:      -6.6      6.243     10.954
REMARK  3 active torsions:
REMARK  status: ('A' for Active; 'I' for Inactive)
REMARK    1  A    between atoms: N_5  and  N_6 
REMARK    2  A    between atoms: N_5  and  C_20 
REMARK    3  A    between atoms: C_12  and  C_14 
ROOT
HETATM    1  N   UNK N   1      33.691  16.189   9.015  0.00  0.00    -0.282 N 
ATOM      2  HN  UNK N   1      33.038  15.406   9.032  1.00  0.00     0.188 HD
HETATM    3  N   UNK N   1      31.283  17.237   6.923  0.00  0.00    -0.189 NA
HETATM    4  N   UNK N   1      35.284  19.097   8.367  0.00  0.00    -0.189 NA
HETATM    5  C   UNK N   1      33.465  17.221   8.302  0.00  0.00     0.209 C 
HETATM    6  C   UNK N   1      32.268  17.259   7.527  0.00  0.00     0.130 C 
HETATM    7  C   UNK N   1      34.444  18.302   8.296  0.00  0.00     0.130 C 
ENDROOT
BRANCH   1   8
HETATM    8  N   UNK N   1      34.830  16.170   9.751  0.00  0.00    -0.299 N 
HETATM    9  H   UNK N   1      35.516  16.852   9.570  0.00  0.00     0.187 HD
BRANCH   8  10
HETATM   10  C   UNK N   1      35.076  15.244  10.739  0.00  0.00     0.048 A 
HETATM   11  C   UNK N   1      35.814  15.695  11.804  0.00  0.00     0.032 A 
HETATM   12  C   UNK N   1      36.072  14.862  12.845  0.00  0.00     0.016 A 
HETATM   13  C   UNK N   1      35.585  13.557  12.853  0.00  0.00    -0.012 A 
HETATM   14  C   UNK N   1      34.859  13.071  11.751  0.00  0.00     0.016 A 
HETATM   15  C   UNK N   1      34.610  13.923  10.673  0.00  0.00     0.032 A 
BRANCH  13  16
HETATM   16  C   UNK N   1      35.794  12.814  14.093  0.00  0.00     0.040 C 
HETATM   17  N   UNK N   1      35.047  13.149  15.092  0.00  0.00    -0.301 N 
HETATM   18  N   UNK N   1      35.061  12.514  16.305  0.00  0.00    -0.270 N 
ATOM     19  HN  UNK N   1      34.407  13.935  14.969  1.00  0.00     0.186 HD
HETATM   20  C   UNK N   1      35.895  11.493  16.583  0.00  0.00     0.236 C 
HETATM   21  H   UNK N   1      34.435  12.815  17.003  0.00  0.00     0.190 HD
HETATM   22  O   UNK N   1      35.857  10.984  17.687  0.00  0.00    -0.272 OA
HETATM   23  C   UNK N   1      36.881  10.980  15.570  0.00  0.00     0.115 C 
HETATM   24  C   UNK N   1      36.737  11.647  14.216  0.00  0.00     0.042 C 
HETATM   25  C   UNK N   1      37.701  11.232  13.115  0.00  0.00     0.017 C 
ENDBRANCH  13  16
ENDBRANCH   8  10
ENDBRANCH   1   8
TORSDOF 3
ENDMDL
