REMARK  3 active torsions:
REMARK  status: ('A' for Active; 'I' for Inactive)
REMARK    1  A    between atoms: N_5  and  N_6 
REMARK    2  A    between atoms: N_5  and  C_20 
REMARK    3  A    between atoms: C_12  and  C_14 
ROOT
HETATM    1  N   UNK N   1       2.573   1.954  -0.214  0.00  0.00    -0.282 N 
ATOM      2  HN  UNK N   1       3.209   2.750  -0.253  1.00  0.00     0.188 HD
HETATM    3  N   UNK N   1       0.485   4.542   0.244  0.00  0.00    -0.189 NA
HETATM    4  N   UNK N   1      -0.126  -0.057   0.083  0.00  0.00    -0.189 NA
HETATM    5  C   UNK N   1       1.323   2.116  -0.024  0.00  0.00     0.209 C 
HETATM    6  C   UNK N   1       0.829   3.445   0.129  0.00  0.00     0.130 C 
HETATM    7  C   UNK N   1       0.462   0.941   0.046  0.00  0.00     0.130 C 
ENDROOT
BRANCH   1   8
HETATM    8  N   UNK N   1       3.027   0.684  -0.365  0.00  0.00    -0.299 N 
HETATM    9  H   UNK N   1       2.383  -0.016  -0.619  0.00  0.00     0.187 HD
BRANCH   8  10
HETATM   10  C   UNK N   1       4.342   0.325  -0.180  0.00  0.00     0.048 A 
HETATM   11  C   UNK N   1       4.579  -1.022  -0.072  0.00  0.00     0.032 A 
HETATM   12  C   UNK N   1       5.853  -1.472   0.073  0.00  0.00     0.016 A 
HETATM   13  C   UNK N   1       6.925  -0.583   0.100  0.00  0.00    -0.012 A 
HETATM   14  C   UNK N   1       6.692   0.802   0.027  0.00  0.00     0.016 A 
HETATM   15  C   UNK N   1       5.381   1.264  -0.103  0.00  0.00     0.032 A 
BRANCH  13  16
HETATM   16  C   UNK N   1       8.251  -1.196   0.100  0.00  0.00     0.040 C 
HETATM   17  N   UNK N   1       8.283  -2.487   0.105  0.00  0.00    -0.301 N 
HETATM   18  N   UNK N   1       9.435  -3.224   0.037  0.00  0.00    -0.270 N 
ATOM     19  HN  UNK N   1       7.396  -2.988   0.164  1.00  0.00     0.186 HD
HETATM   20  C   UNK N   1      10.659  -2.661  -0.003  0.00  0.00     0.236 C 
HETATM   21  H   UNK N   1       9.367  -4.206   0.016  0.00  0.00     0.190 HD
HETATM   22  O   UNK N   1      11.638  -3.381  -0.053  0.00  0.00    -0.272 OA
HETATM   23  C   UNK N   1      10.844  -1.169   0.030  0.00  0.00     0.115 C 
HETATM   24  C   UNK N   1       9.531  -0.411  -0.010  0.00  0.00     0.042 C 
HETATM   25  C   UNK N   1       9.587   1.108   0.049  0.00  0.00     0.017 C 
ENDBRANCH  13  16
ENDBRANCH   8  10
ENDBRANCH   1   8
TORSDOF 3
