MODEL 1
REMARK VINA RESULT:      -5.8      0.000      0.000
REMARK  5 active torsions:
REMARK  status: ('A' for Active; 'I' for Inactive)
REMARK    1  A    between atoms: C_12  and  O_2 
REMARK    2  A    between atoms: C_13  and  O_3 
REMARK    3  A    between atoms: O_4  and  C_16 
REMARK    4  A    between atoms: C_15  and  N_6 
REMARK       I    between atoms: N_11  and  C_19 
REMARK    5  A    between atoms: C_14  and  C_16 
ROOT
HETATM    1  O   UNK N   1      24.024  20.994   2.306  0.00  0.00    -0.246 OA
HETATM    2  N   UNK N   1      23.525  19.332   3.757  0.00  0.00    -0.265 N 
HETATM    3  N   UNK N   1      25.560  20.562   3.869  0.00  0.00    -0.141 N 
ATOM      4  HN  UNK N   1      26.166  21.301   3.512  1.00  0.00     0.189 HD
HETATM    5  N   UNK N   1      25.149  18.840   5.407  0.00  0.00    -0.188 N 
ATOM      6  HN  UNK N   1      25.447  18.285   6.208  1.00  0.00     0.185 HD
HETATM    7  N   UNK N   1      27.213  20.044   5.520  0.00  0.00    -0.234 N 
HETATM    8  C   UNK N   1      24.350  20.329   3.275  0.00  0.00     0.343 A 
HETATM    9  C   UNK N   1      23.948  18.598   4.828  0.00  0.00     0.208 A 
HETATM   10  C   UNK N   1      25.956  19.816   4.928  0.00  0.00     0.680 A 
HETATM   11  H   UNK N   1      27.559  19.436   6.213  0.00  0.00     0.174 HD
HETATM   12  H   UNK N   1      27.752  20.818   5.237  0.00  0.00     0.174 HD
ENDROOT
BRANCH   2  13
HETATM   13  C   UNK N   1      22.240  18.995   3.109  0.00  0.00     0.265 C 
HETATM   14  O   UNK N   1      21.951  17.628   3.242  0.00  0.00    -0.353 OA
HETATM   15  C   UNK N   1      20.586  17.526   2.930  0.00  0.00     0.179 C 
HETATM   16  C   UNK N   1      19.896  18.819   3.333  0.00  0.00     0.182 C 
HETATM   17  C   UNK N   1      21.054  19.718   3.714  0.00  0.00     0.198 C 
BRANCH  15  18
HETATM   18  C   UNK N   1      19.967  16.352   3.665  0.00  0.00     0.198 C 
BRANCH  18  19
HETATM   19  O   UNK N   1      18.723  16.720   4.181  0.00  0.00    -0.398 OA
HETATM   20  H   UNK N   1      18.470  17.600   4.501  0.00  0.00     0.209 HD
ENDBRANCH  18  19
ENDBRANCH  15  18
BRANCH  16  21
HETATM   21  O   UNK N   1      19.193  19.306   2.227  0.00  0.00    -0.390 OA
HETATM   22  H   UNK N   1      19.003  18.917   1.360  0.00  0.00     0.210 HD
ENDBRANCH  16  21
BRANCH  17  23
HETATM   23  O   UNK N   1      20.904  21.008   3.198  0.00  0.00    -0.388 OA
HETATM   24  H   UNK N   1      21.377  21.298   2.403  0.00  0.00     0.210 HD
ENDBRANCH  17  23
ENDBRANCH   2  13
TORSDOF 5
ENDMDL
MODEL 2
REMARK VINA RESULT:      -5.7     13.166     15.558
REMARK  5 active torsions:
REMARK  status: ('A' for Active; 'I' for Inactive)
REMARK    1  A    between atoms: C_12  and  O_2 
REMARK    2  A    between atoms: C_13  and  O_3 
REMARK    3  A    between atoms: O_4  and  C_16 
REMARK    4  A    between atoms: C_15  and  N_6 
REMARK       I    between atoms: N_11  and  C_19 
REMARK    5  A    between atoms: C_14  and  C_16 
ROOT
HETATM    1  O   UNK N   1      36.059  17.192  10.573  0.00  0.00    -0.246 OA
HETATM    2  N   UNK N   1      34.586  15.476  10.598  0.00  0.00    -0.265 N 
HETATM    3  N   UNK N   1      34.232  17.449   9.314  0.00  0.00    -0.141 N 
ATOM      4  HN  UNK N   1      34.548  18.367   8.999  1.00  0.00     0.189 HD
HETATM    5  N   UNK N   1      32.630  15.737   9.290  0.00  0.00    -0.188 N 
ATOM      6  HN  UNK N   1      31.740  15.366   8.956  1.00  0.00     0.185 HD
HETATM    7  N   UNK N   1      32.241  17.722   8.015  0.00  0.00    -0.234 N 
HETATM    8  C   UNK N   1      35.008  16.720  10.172  0.00  0.00     0.343 A 
HETATM    9  C   UNK N   1      33.388  15.003  10.141  0.00  0.00     0.208 A 
HETATM   10  C   UNK N   1      33.047  16.957   8.879  0.00  0.00     0.680 A 
HETATM   11  H   UNK N   1      31.331  17.427   7.784  0.00  0.00     0.174 HD
HETATM   12  H   UNK N   1      32.591  18.562   7.637  0.00  0.00     0.174 HD
ENDROOT
BRANCH   2  13
HETATM   13  C   UNK N   1      35.353  14.680  11.578  0.00  0.00     0.265 C 
HETATM   14  O   UNK N   1      34.503  13.869  12.346  0.00  0.00    -0.353 OA
HETATM   15  C   UNK N   1      35.358  12.930  12.944  0.00  0.00     0.179 C 
HETATM   16  C   UNK N   1      36.535  12.682  12.014  0.00  0.00     0.182 C 
HETATM   17  C   UNK N   1      36.343  13.728  10.937  0.00  0.00     0.198 C 
BRANCH  15  18
HETATM   18  C   UNK N   1      34.614  11.633  13.202  0.00  0.00     0.198 C 
BRANCH  18  19
HETATM   19  O   UNK N   1      34.017  11.187  12.022  0.00  0.00    -0.398 OA
HETATM   20  H   UNK N   1      33.339  11.653  11.508  0.00  0.00     0.209 HD
ENDBRANCH  18  19
ENDBRANCH  15  18
BRANCH  16  21
HETATM   21  O   UNK N   1      37.715  12.881  12.736  0.00  0.00    -0.390 OA
HETATM   22  H   UNK N   1      37.876  13.179  13.645  0.00  0.00     0.210 HD
ENDBRANCH  16  21
BRANCH  17  23
HETATM   23  O   UNK N   1      37.544  14.362  10.605  0.00  0.00    -0.388 OA
HETATM   24  H   UNK N   1      37.982  14.211   9.752  0.00  0.00     0.210 HD
ENDBRANCH  17  23
ENDBRANCH   2  13
TORSDOF 5
ENDMDL
MODEL 3
REMARK VINA RESULT:      -5.6      2.245      3.787
REMARK  5 active torsions:
REMARK  status: ('A' for Active; 'I' for Inactive)
REMARK    1  A    between atoms: C_12  and  O_2 
REMARK    2  A    between atoms: C_13  and  O_3 
REMARK    3  A    between atoms: O_4  and  C_16 
REMARK    4  A    between atoms: C_15  and  N_6 
REMARK       I    between atoms: N_11  and  C_19 
REMARK    5  A    between atoms: C_14  and  C_16 
ROOT
HETATM    1  O   UNK N   1      20.952  16.536   6.193  0.00  0.00    -0.246 OA
HETATM    2  N   UNK N   1      22.229  17.536   4.618  0.00  0.00    -0.265 N 
HETATM    3  N   UNK N   1      23.147  16.146   6.318  0.00  0.00    -0.141 N 
ATOM      4  HN  UNK N   1      23.020  15.545   7.133  1.00  0.00     0.189 HD
HETATM    5  N   UNK N   1      24.562  17.158   4.745  0.00  0.00    -0.188 N 
ATOM      6  HN  UNK N   1      25.500  17.316   4.377  1.00  0.00     0.185 HD
HETATM    7  N   UNK N   1      25.509  15.788   6.462  0.00  0.00    -0.234 N 
HETATM    8  C   UNK N   1      22.061  16.725   5.723  0.00  0.00     0.343 A 
HETATM    9  C   UNK N   1      23.495  17.738   4.145  0.00  0.00     0.208 A 
HETATM   10  C   UNK N   1      24.392  16.366   5.831  0.00  0.00     0.680 A 
HETATM   11  H   UNK N   1      26.423  16.031   6.188  0.00  0.00     0.174 HD
HETATM   12  H   UNK N   1      25.376  15.133   7.186  0.00  0.00     0.174 HD
ENDROOT
BRANCH   2  13
HETATM   13  C   UNK N   1      21.097  18.240   3.981  0.00  0.00     0.265 C 
HETATM   14  O   UNK N   1      21.530  19.402   3.324  0.00  0.00    -0.353 OA
HETATM   15  C   UNK N   1      20.462  19.748   2.481  0.00  0.00     0.179 C 
HETATM   16  C   UNK N   1      19.741  18.478   2.063  0.00  0.00     0.182 C 
HETATM   17  C   UNK N   1      20.397  17.416   2.920  0.00  0.00     0.198 C 
BRANCH  15  18
HETATM   18  C   UNK N   1      20.976  20.484   1.258  0.00  0.00     0.198 C 
BRANCH  18  19
HETATM   19  O   UNK N   1      20.547  19.834   0.100  0.00  0.00    -0.398 OA
HETATM   20  H   UNK N   1      19.719  19.342  -0.010  0.00  0.00     0.209 HD
ENDBRANCH  18  19
ENDBRANCH  15  18
BRANCH  16  21
HETATM   21  O   UNK N   1      18.382  18.625   2.357  0.00  0.00    -0.390 OA
HETATM   22  H   UNK N   1      17.592  18.601   1.796  0.00  0.00     0.210 HD
ENDBRANCH  16  21
BRANCH  17  23
HETATM   23  O   UNK N   1      19.460  16.535   3.469  0.00  0.00    -0.388 OA
HETATM   24  H   UNK N   1      18.555  16.817   3.674  0.00  0.00     0.210 HD
ENDBRANCH  17  23
ENDBRANCH   2  13
TORSDOF 5
ENDMDL
MODEL 4
REMARK VINA RESULT:      -5.6     12.103     14.190
REMARK  5 active torsions:
REMARK  status: ('A' for Active; 'I' for Inactive)
REMARK    1  A    between atoms: C_12  and  O_2 
REMARK    2  A    between atoms: C_13  and  O_3 
REMARK    3  A    between atoms: O_4  and  C_16 
REMARK    4  A    between atoms: C_15  and  N_6 
REMARK       I    between atoms: N_11  and  C_19 
REMARK    5  A    between atoms: C_14  and  C_16 
ROOT
HETATM    1  O   UNK N   1      36.845  16.437  10.758  0.00  0.00    -0.246 OA
HETATM    2  N   UNK N   1      35.091  15.117  10.213  0.00  0.00    -0.265 N 
HETATM    3  N   UNK N   1      36.240  14.927  12.289  0.00  0.00    -0.141 N 
ATOM      4  HN  UNK N   1      36.973  15.242  12.926  1.00  0.00     0.189 HD
HETATM    5  N   UNK N   1      34.448  13.493  11.811  0.00  0.00    -0.188 N 
ATOM      6  HN  UNK N   1      33.832  12.729  12.088  1.00  0.00     0.185 HD
HETATM    7  N   UNK N   1      35.607  13.265  13.891  0.00  0.00    -0.234 N 
HETATM    8  C   UNK N   1      36.084  15.538  11.076  0.00  0.00     0.343 A 
HETATM    9  C   UNK N   1      34.282  14.088  10.605  0.00  0.00     0.208 A 
HETATM   10  C   UNK N   1      35.426  13.907  12.651  0.00  0.00     0.680 A 
HETATM   11  H   UNK N   1      35.098  12.453  14.115  0.00  0.00     0.174 HD
HETATM   12  H   UNK N   1      36.249  13.633  14.541  0.00  0.00     0.174 HD
ENDROOT
BRANCH   2  13
HETATM   13  C   UNK N   1      34.926  15.697   8.864  0.00  0.00     0.265 C 
HETATM   14  O   UNK N   1      34.150  14.860   8.047  0.00  0.00    -0.353 OA
HETATM   15  C   UNK N   1      33.771  15.675   6.969  0.00  0.00     0.179 C 
HETATM   16  C   UNK N   1      33.659  17.109   7.459  0.00  0.00     0.182 C 
HETATM   17  C   UNK N   1      34.209  17.032   8.867  0.00  0.00     0.198 C 
BRANCH  15  18
HETATM   18  C   UNK N   1      32.442  15.211   6.403  0.00  0.00     0.198 C 
BRANCH  18  19
HETATM   19  O   UNK N   1      31.954  14.143   7.156  0.00  0.00    -0.398 OA
HETATM   20  H   UNK N   1      31.187  13.590   6.941  0.00  0.00     0.209 HD
ENDBRANCH  18  19
ENDBRANCH  15  18
BRANCH  16  21
HETATM   21  O   UNK N   1      34.443  17.919   6.632  0.00  0.00    -0.390 OA
HETATM   22  H   UNK N   1      34.296  18.266   5.739  0.00  0.00     0.210 HD
ENDBRANCH  16  21
BRANCH  17  23
HETATM   23  O   UNK N   1      35.074  18.094   9.150  0.00  0.00    -0.388 OA
HETATM   24  H   UNK N   1      36.012  17.948   9.349  0.00  0.00     0.210 HD
ENDBRANCH  17  23
ENDBRANCH   2  13
TORSDOF 5
ENDMDL
MODEL 5
REMARK VINA RESULT:      -5.6     11.370     13.671
REMARK  5 active torsions:
REMARK  status: ('A' for Active; 'I' for Inactive)
REMARK    1  A    between atoms: C_12  and  O_2 
REMARK    2  A    between atoms: C_13  and  O_3 
REMARK    3  A    between atoms: O_4  and  C_16 
REMARK    4  A    between atoms: C_15  and  N_6 
REMARK       I    between atoms: N_11  and  C_19 
REMARK    5  A    between atoms: C_14  and  C_16 
ROOT
HETATM    1  O   UNK N   1      35.895  17.336  10.674  0.00  0.00    -0.246 OA
HETATM    2  N   UNK N   1      34.801  15.506   9.921  0.00  0.00    -0.265 N 
HETATM    3  N   UNK N   1      36.945  15.384  10.948  0.00  0.00    -0.141 N 
ATOM      4  HN  UNK N   1      37.737  15.844  11.398  1.00  0.00     0.189 HD
HETATM    5  N   UNK N   1      35.906  13.428  10.177  0.00  0.00    -0.188 N 
ATOM      6  HN  UNK N   1      35.915  12.416  10.049  1.00  0.00     0.185 HD
HETATM    7  N   UNK N   1      38.073  13.286  11.180  0.00  0.00    -0.234 N 
HETATM    8  C   UNK N   1      35.876  16.125  10.528  0.00  0.00     0.343 A 
HETATM    9  C   UNK N   1      34.839  14.150   9.756  0.00  0.00     0.208 A 
HETATM   10  C   UNK N   1      36.958  14.041  10.768  0.00  0.00     0.680 A 
HETATM   11  H   UNK N   1      38.143  12.330  10.953  0.00  0.00     0.174 HD
HETATM   12  H   UNK N   1      38.789  13.717  11.699  0.00  0.00     0.174 HD
ENDROOT
BRANCH   2  13
HETATM   13  C   UNK N   1      33.654  16.269   9.388  0.00  0.00     0.265 C 
HETATM   14  O   UNK N   1      33.976  16.876   8.164  0.00  0.00    -0.353 OA
HETATM   15  C   UNK N   1      32.736  17.233   7.611  0.00  0.00     0.179 C 
HETATM   16  C   UNK N   1      31.691  16.233   8.076  0.00  0.00     0.182 C 
HETATM   17  C   UNK N   1      32.440  15.408   9.101  0.00  0.00     0.198 C 
BRANCH  15  18
HETATM   18  C   UNK N   1      32.820  17.236   6.096  0.00  0.00     0.198 C 
BRANCH  18  19
HETATM   19  O   UNK N   1      34.035  17.788   5.690  0.00  0.00    -0.398 OA
HETATM   20  H   UNK N   1      34.338  18.694   5.853  0.00  0.00     0.209 HD
ENDBRANCH  18  19
ENDBRANCH  15  18
BRANCH  16  21
HETATM   21  O   UNK N   1      30.628  16.941   8.646  0.00  0.00    -0.390 OA
HETATM   22  H   UNK N   1      30.401  17.135   9.568  0.00  0.00     0.210 HD
ENDBRANCH  16  21
BRANCH  17  23
HETATM   23  O   UNK N   1      31.674  15.178  10.247  0.00  0.00    -0.388 OA
HETATM   24  H   UNK N   1      30.758  14.861  10.193  0.00  0.00     0.210 HD
ENDBRANCH  17  23
ENDBRANCH   2  13
TORSDOF 5
ENDMDL
MODEL 6
REMARK VINA RESULT:      -5.5      6.227      7.953
REMARK  5 active torsions:
REMARK  status: ('A' for Active; 'I' for Inactive)
REMARK    1  A    between atoms: C_12  and  O_2 
REMARK    2  A    between atoms: C_13  and  O_3 
REMARK    3  A    between atoms: O_4  and  C_16 
REMARK    4  A    between atoms: C_15  and  N_6 
REMARK       I    between atoms: N_11  and  C_19 
REMARK    5  A    between atoms: C_14  and  C_16 
ROOT
HETATM    1  O   UNK N   1      19.693  13.037  10.499  0.00  0.00    -0.246 OA
HETATM    2  N   UNK N   1      21.431  13.812   9.276  0.00  0.00    -0.265 N 
HETATM    3  N   UNK N   1      21.729  12.446  11.203  0.00  0.00    -0.141 N 
ATOM      4  HN  UNK N   1      21.334  11.912  11.977  1.00  0.00     0.189 HD
HETATM    5  N   UNK N   1      23.599  13.219  10.017  0.00  0.00    -0.188 N 
ATOM      6  HN  UNK N   1      24.611  13.264   9.900  1.00  0.00     0.185 HD
HETATM    7  N   UNK N   1      23.923  11.872  11.967  0.00  0.00    -0.234 N 
HETATM    8  C   UNK N   1      20.900  13.090  10.327  0.00  0.00     0.343 A 
HETATM    9  C   UNK N   1      22.789  13.862   9.142  0.00  0.00     0.208 A 
HETATM   10  C   UNK N   1      23.073  12.515  11.048  0.00  0.00     0.680 A 
HETATM   11  H   UNK N   1      24.897  12.009  11.931  0.00  0.00     0.174 HD
HETATM   12  H   UNK N   1      23.539  11.279  12.653  0.00  0.00     0.174 HD
ENDROOT
BRANCH   2  13
HETATM   13  C   UNK N   1      20.581  14.581   8.344  0.00  0.00     0.265 C 
HETATM   14  O   UNK N   1      20.905  15.946   8.375  0.00  0.00    -0.353 OA
HETATM   15  C   UNK N   1      20.312  16.475   7.217  0.00  0.00     0.179 C 
HETATM   16  C   UNK N   1      20.288  15.397   6.147  0.00  0.00     0.182 C 
HETATM   17  C   UNK N   1      20.744  14.163   6.897  0.00  0.00     0.198 C 
BRANCH  15  18
HETATM   18  C   UNK N   1      21.096  17.679   6.729  0.00  0.00     0.198 C 
BRANCH  18  19
HETATM   19  O   UNK N   1      20.799  18.789   7.521  0.00  0.00    -0.398 OA
HETATM   20  H   UNK N   1      20.361  19.603   7.229  0.00  0.00     0.209 HD
ENDBRANCH  18  19
ENDBRANCH  15  18
BRANCH  16  21
HETATM   21  O   UNK N   1      18.977  15.272   5.678  0.00  0.00    -0.390 OA
HETATM   22  H   UNK N   1      18.472  14.505   5.365  0.00  0.00     0.210 HD
ENDBRANCH  16  21
BRANCH  17  23
HETATM   23  O   UNK N   1      19.969  13.043   6.580  0.00  0.00    -0.388 OA
HETATM   24  H   UNK N   1      20.200  12.455   5.845  0.00  0.00     0.210 HD
ENDBRANCH  17  23
ENDBRANCH   2  13
TORSDOF 5
ENDMDL
MODEL 7
REMARK VINA RESULT:      -5.5     10.215     11.711
REMARK  5 active torsions:
REMARK  status: ('A' for Active; 'I' for Inactive)
REMARK    1  A    between atoms: C_12  and  O_2 
REMARK    2  A    between atoms: C_13  and  O_3 
REMARK    3  A    between atoms: O_4  and  C_16 
REMARK    4  A    between atoms: C_15  and  N_6 
REMARK       I    between atoms: N_11  and  C_19 
REMARK    5  A    between atoms: C_14  and  C_16 
ROOT
HETATM    1  O   UNK N   1      30.497  23.099  -1.540  0.00  0.00    -0.246 OA
HETATM    2  N   UNK N   1      29.691  23.083  -3.653  0.00  0.00    -0.265 N 
HETATM    3  N   UNK N   1      31.202  21.431  -2.846  0.00  0.00    -0.141 N 
ATOM      4  HN  UNK N   1      31.765  21.043  -2.089  1.00  0.00     0.189 HD
HETATM    5  N   UNK N   1      30.445  21.339  -5.064  0.00  0.00    -0.188 N 
ATOM      6  HN  UNK N   1      30.438  20.879  -5.974  1.00  0.00     0.185 HD
HETATM    7  N   UNK N   1      31.986  19.684  -4.283  0.00  0.00    -0.234 N 
HETATM    8  C   UNK N   1      30.457  22.557  -2.632  0.00  0.00     0.343 A 
HETATM    9  C   UNK N   1      29.701  22.454  -4.865  0.00  0.00     0.208 A 
HETATM   10  C   UNK N   1      31.197  20.829  -4.060  0.00  0.00     0.680 A 
HETATM   11  H   UNK N   1      32.078  19.306  -5.187  0.00  0.00     0.174 HD
HETATM   12  H   UNK N   1      32.450  19.257  -3.526  0.00  0.00     0.174 HD
ENDROOT
BRANCH   2  13
HETATM   13  C   UNK N   1      28.923  24.336  -3.492  0.00  0.00     0.265 C 
HETATM   14  O   UNK N   1      29.304  25.287  -4.452  0.00  0.00    -0.353 OA
HETATM   15  C   UNK N   1      28.275  26.242  -4.427  0.00  0.00     0.179 C 
HETATM   16  C   UNK N   1      26.976  25.549  -4.052  0.00  0.00     0.182 C 
HETATM   17  C   UNK N   1      27.430  24.154  -3.679  0.00  0.00     0.198 C 
BRANCH  15  18
HETATM   18  C   UNK N   1      28.142  26.905  -5.785  0.00  0.00     0.198 C 
BRANCH  18  19
HETATM   19  O   UNK N   1      26.847  27.402  -5.943  0.00  0.00    -0.398 OA
HETATM   20  H   UNK N   1      26.270  27.739  -5.240  0.00  0.00     0.209 HD
ENDBRANCH  18  19
ENDBRANCH  15  18
BRANCH  16  21
HETATM   21  O   UNK N   1      26.412  26.226  -2.967  0.00  0.00    -0.390 OA
HETATM   22  H   UNK N   1      26.797  26.821  -2.304  0.00  0.00     0.210 HD
ENDBRANCH  16  21
BRANCH  17  23
HETATM   23  O   UNK N   1      26.806  23.696  -2.515  0.00  0.00    -0.388 OA
HETATM   24  H   UNK N   1      25.972  24.077  -2.199  0.00  0.00     0.210 HD
ENDBRANCH  17  23
ENDBRANCH   2  13
TORSDOF 5
ENDMDL
MODEL 8
REMARK VINA RESULT:      -5.4     11.031     13.702
REMARK  5 active torsions:
REMARK  status: ('A' for Active; 'I' for Inactive)
REMARK    1  A    between atoms: C_12  and  O_2 
REMARK    2  A    between atoms: C_13  and  O_3 
REMARK    3  A    between atoms: O_4  and  C_16 
REMARK    4  A    between atoms: C_15  and  N_6 
REMARK       I    between atoms: N_11  and  C_19 
REMARK    5  A    between atoms: C_14  and  C_16 
ROOT
HETATM    1  O   UNK N   1      31.938  14.032   6.901  0.00  0.00    -0.246 OA
HETATM    2  N   UNK N   1      33.501  15.557   7.491  0.00  0.00    -0.265 N 
HETATM    3  N   UNK N   1      32.135  15.806   5.558  0.00  0.00    -0.141 N 
ATOM      4  HN  UNK N   1      31.390  15.462   4.952  1.00  0.00     0.189 HD
HETATM    5  N   UNK N   1      33.745  17.433   6.069  0.00  0.00    -0.188 N 
ATOM      6  HN  UNK N   1      34.210  18.313   5.847  1.00  0.00     0.185 HD
HETATM    7  N   UNK N   1      32.402  17.690   4.106  0.00  0.00    -0.234 N 
HETATM    8  C   UNK N   1      32.496  15.092   6.666  0.00  0.00     0.343 A 
HETATM    9  C   UNK N   1      34.113  16.735   7.170  0.00  0.00     0.208 A 
HETATM   10  C   UNK N   1      32.761  16.971   5.262  0.00  0.00     0.680 A 
HETATM   11  H   UNK N   1      32.925  18.474   3.820  0.00  0.00     0.174 HD
HETATM   12  H   UNK N   1      31.621  17.406   3.578  0.00  0.00     0.174 HD
ENDROOT
BRANCH   2  13
HETATM   13  C   UNK N   1      33.976  14.788   8.660  0.00  0.00     0.265 C 
HETATM   14  O   UNK N   1      35.374  14.671   8.654  0.00  0.00    -0.353 OA
HETATM   15  C   UNK N   1      35.700  14.268   9.959  0.00  0.00     0.179 C 
HETATM   16  C   UNK N   1      34.671  14.844  10.917  0.00  0.00     0.182 C 
HETATM   17  C   UNK N   1      33.634  15.437   9.986  0.00  0.00     0.198 C 
BRANCH  15  18
HETATM   18  C   UNK N   1      37.088  14.756  10.328  0.00  0.00     0.198 C 
BRANCH  18  19
HETATM   19  O   UNK N   1      37.010  16.043  10.861  0.00  0.00    -0.398 OA
HETATM   20  H   UNK N   1      37.297  16.318  11.745  0.00  0.00     0.209 HD
ENDBRANCH  18  19
ENDBRANCH  15  18
BRANCH  16  21
HETATM   21  O   UNK N   1      34.150  13.798  11.685  0.00  0.00    -0.390 OA
HETATM   22  H   UNK N   1      33.787  13.774  12.584  0.00  0.00     0.210 HD
ENDBRANCH  16  21
BRANCH  17  23
HETATM   23  O   UNK N   1      32.331  15.141  10.398  0.00  0.00    -0.388 OA
HETATM   24  H   UNK N   1      32.133  14.875  11.310  0.00  0.00     0.210 HD
ENDBRANCH  17  23
ENDBRANCH   2  13
TORSDOF 5
ENDMDL
MODEL 9
REMARK VINA RESULT:      -5.3      6.020      8.680
REMARK  5 active torsions:
REMARK  status: ('A' for Active; 'I' for Inactive)
REMARK    1  A    between atoms: C_12  and  O_2 
REMARK    2  A    between atoms: C_13  and  O_3 
REMARK    3  A    between atoms: O_4  and  C_16 
REMARK    4  A    between atoms: C_15  and  N_6 
REMARK       I    between atoms: N_11  and  C_19 
REMARK    5  A    between atoms: C_14  and  C_16 
ROOT
HETATM    1  O   UNK N   1      27.318  16.413   5.330  0.00  0.00    -0.246 OA
HETATM    2  N   UNK N   1      27.912  18.366   6.305  0.00  0.00    -0.265 N 
HETATM    3  N   UNK N   1      26.685  18.273   4.267  0.00  0.00    -0.141 N 
ATOM      4  HN  UNK N   1      26.231  17.729   3.533  1.00  0.00     0.189 HD
HETATM    5  N   UNK N   1      27.273  20.350   5.183  0.00  0.00    -0.188 N 
ATOM      6  HN  UNK N   1      27.260  21.369   5.138  1.00  0.00     0.185 HD
HETATM    7  N   UNK N   1      26.065  20.280   3.120  0.00  0.00    -0.234 N 
HETATM    8  C   UNK N   1      27.299  17.633   5.308  0.00  0.00     0.343 A 
HETATM    9  C   UNK N   1      27.885  19.729   6.220  0.00  0.00     0.208 A 
HETATM   10  C   UNK N   1      26.677  19.626   4.207  0.00  0.00     0.680 A 
HETATM   11  H   UNK N   1      26.152  21.254   3.007  0.00  0.00     0.174 HD
HETATM   12  H   UNK N   1      25.546  19.758   2.467  0.00  0.00     0.174 HD
ENDROOT
BRANCH   2  13
HETATM   13  C   UNK N   1      28.648  17.722   7.413  0.00  0.00     0.265 C 
HETATM   14  O   UNK N   1      30.016  17.619   7.117  0.00  0.00    -0.353 OA
HETATM   15  C   UNK N   1      30.624  17.352   8.354  0.00  0.00     0.179 C 
HETATM   16  C   UNK N   1      29.805  18.010   9.451  0.00  0.00     0.182 C 
HETATM   17  C   UNK N   1      28.576  18.497   8.713  0.00  0.00     0.198 C 
BRANCH  15  18
HETATM   18  C   UNK N   1      32.043  17.888   8.368  0.00  0.00     0.198 C 
BRANCH  18  19
HETATM   19  O   UNK N   1      32.825  17.134   9.243  0.00  0.00    -0.398 OA
HETATM   20  H   UNK N   1      32.501  16.557   9.952  0.00  0.00     0.209 HD
ENDBRANCH  18  19
ENDBRANCH  15  18
BRANCH  16  21
HETATM   21  O   UNK N   1      29.492  17.040  10.409  0.00  0.00    -0.390 OA
HETATM   22  H   UNK N   1      29.427  17.083  11.376  0.00  0.00     0.210 HD
ENDBRANCH  16  21
BRANCH  17  23
HETATM   23  O   UNK N   1      27.401  18.230   9.422  0.00  0.00    -0.388 OA
HETATM   24  H   UNK N   1      27.033  17.334   9.481  0.00  0.00     0.210 HD
ENDBRANCH  17  23
ENDBRANCH   2  13
TORSDOF 5
ENDMDL
