MODEL 1
REMARK VINA RESULT:      -6.7      0.000      0.000
REMARK  5 active torsions:
REMARK  status: ('A' for Active; 'I' for Inactive)
REMARK    1  A    between atoms: S_1  and  N_6 
REMARK    2  A    between atoms: S_1  and  C_22 
REMARK    3  A    between atoms: C_7  and  C_12 
REMARK    4  A    between atoms: C_18  and  C_20 
REMARK    5  A    between atoms: C_20  and  C_22 
ROOT
HETATM    1  N   UNK N   1      28.134  15.599   2.879  0.00  0.00    -0.365 N 
HETATM    2  C   UNK N   1      28.512  17.485   4.051  0.00  0.00    -0.026 A 
HETATM    3  C   UNK N   1      29.703  16.801   3.920  0.00  0.00    -0.001 A 
HETATM    4  C   UNK N   1      27.552  16.711   3.398  0.00  0.00     0.096 A 
HETATM    5  C   UNK N   1      29.439  15.672   3.203  0.00  0.00     0.043 A 
HETATM    6  C   UNK N   1      30.986  17.088   4.382  0.00  0.00     0.021 A 
HETATM    7  C   UNK N   1      32.021  16.184   4.082  0.00  0.00    -0.056 A 
HETATM    8  C   UNK N   1      30.435  14.753   2.881  0.00  0.00     0.031 A 
HETATM    9  C   UNK N   1      31.744  15.020   3.329  0.00  0.00     0.009 A 
HETATM   10  H   UNK N   1      27.691  14.883   2.369  0.00  0.00     0.165 HD
ENDROOT
BRANCH   7  11
HETATM   11  C   UNK N   1      33.402  16.433   4.596  0.00  0.00     0.055 C 
BRANCH  11  12
HETATM   12  C   UNK N   1      33.375  17.227   5.927  0.00  0.00     0.167 C 
BRANCH  12  13
HETATM   13  S   UNK N   1      34.392  16.742   7.422  0.00  0.00     0.226 S 
HETATM   14  O   UNK N   1      34.535  18.209   6.992  0.00  0.00    -0.206 OA
HETATM   15  O   UNK N   1      35.135  15.959   6.331  0.00  0.00    -0.206 OA
BRANCH  13  16
HETATM   16  N   UNK N   1      32.707  16.209   7.448  0.00  0.00    -0.324 N 
HETATM   17  C   UNK N   1      32.456  15.670   8.773  0.00  0.00     0.159 C 
HETATM   18  H   UNK N   1      32.039  16.269   6.681  0.00  0.00     0.171 HD
ENDBRANCH  13  16
ENDBRANCH  12  13
ENDBRANCH  11  12
ENDBRANCH   7  11
BRANCH   2  19
HETATM   19  C   UNK N   1      28.249  18.804   4.731  0.00  0.00     0.024 C 
HETATM   20  C   UNK N   1      27.026  19.490   4.115  0.00  0.00     0.039 C 
HETATM   21  C   UNK N   1      26.715  20.785   4.866  0.00  0.00     0.272 C 
HETATM   22  N   UNK N   1      26.474  20.495   6.278  0.00  0.00     0.084 N 
HETATM   23  C   UNK N   1      27.715  20.005   6.869  0.00  0.00     0.272 C 
HETATM   24  C   UNK N   1      26.150  21.746   6.937  0.00  0.00     0.309 C 
HETATM   25  C   UNK N   1      28.074  18.663   6.248  0.00  0.00     0.039 C 
ENDBRANCH   2  19
TORSDOF 5
ENDMDL
MODEL 2
REMARK VINA RESULT:      -6.7     11.152     15.904
REMARK  5 active torsions:
REMARK  status: ('A' for Active; 'I' for Inactive)
REMARK    1  A    between atoms: S_1  and  N_6 
REMARK    2  A    between atoms: S_1  and  C_22 
REMARK    3  A    between atoms: C_7  and  C_12 
REMARK    4  A    between atoms: C_18  and  C_20 
REMARK    5  A    between atoms: C_20  and  C_22 
ROOT
HETATM    1  N   UNK N   1      35.275  12.688  20.154  0.00  0.00    -0.365 N 
HETATM    2  C   UNK N   1      35.233  10.644  19.211  0.00  0.00    -0.026 A 
HETATM    3  C   UNK N   1      35.278  11.591  18.208  0.00  0.00    -0.001 A 
HETATM    4  C   UNK N   1      35.227  11.355  20.410  0.00  0.00     0.096 A 
HETATM    5  C   UNK N   1      35.308  12.813  18.814  0.00  0.00     0.043 A 
HETATM    6  C   UNK N   1      35.288  11.465  16.820  0.00  0.00     0.021 A 
HETATM    7  C   UNK N   1      35.341  12.637  16.045  0.00  0.00    -0.056 A 
HETATM    8  C   UNK N   1      35.365  13.997  18.084  0.00  0.00     0.031 A 
HETATM    9  C   UNK N   1      35.384  13.901  16.678  0.00  0.00     0.009 A 
HETATM   10  H   UNK N   1      35.283  13.417  20.816  0.00  0.00     0.165 HD
ENDROOT
BRANCH   7  11
HETATM   11  C   UNK N   1      35.310  12.548  14.553  0.00  0.00     0.055 C 
BRANCH  11  12
HETATM   12  C   UNK N   1      36.445  13.386  13.913  0.00  0.00     0.167 C 
BRANCH  12  13
HETATM   13  S   UNK N   1      36.195  14.439  12.386  0.00  0.00     0.226 S 
HETATM   14  O   UNK N   1      36.390  15.228  13.690  0.00  0.00    -0.206 OA
HETATM   15  O   UNK N   1      34.792  13.834  12.522  0.00  0.00    -0.206 OA
BRANCH  13  16
HETATM   16  N   UNK N   1      37.363  13.123  12.215  0.00  0.00    -0.324 N 
HETATM   17  C   UNK N   1      37.875  13.188  10.857  0.00  0.00     0.159 C 
HETATM   18  H   UNK N   1      37.627  12.448  12.931  0.00  0.00     0.171 HD
ENDBRANCH  13  16
ENDBRANCH  12  13
ENDBRANCH  11  12
ENDBRANCH   7  11
BRANCH   2  19
HETATM   19  C   UNK N   1      35.212   9.141  19.090  0.00  0.00     0.024 C 
HETATM   20  C   UNK N   1      36.131   8.507  20.138  0.00  0.00     0.039 C 
HETATM   21  C   UNK N   1      36.038   6.983  20.066  0.00  0.00     0.272 C 
HETATM   22  N   UNK N   1      34.655   6.558  20.282  0.00  0.00     0.084 N 
HETATM   23  C   UNK N   1      33.844   7.039  19.169  0.00  0.00     0.272 C 
HETATM   24  C   UNK N   1      34.627   5.109  20.240  0.00  0.00     0.309 C 
HETATM   25  C   UNK N   1      33.797   8.559  19.198  0.00  0.00     0.039 C 
ENDBRANCH   2  19
TORSDOF 5
ENDMDL
MODEL 3
REMARK VINA RESULT:      -6.7      6.141     10.909
REMARK  5 active torsions:
REMARK  status: ('A' for Active; 'I' for Inactive)
REMARK    1  A    between atoms: S_1  and  N_6 
REMARK    2  A    between atoms: S_1  and  C_22 
REMARK    3  A    between atoms: C_7  and  C_12 
REMARK    4  A    between atoms: C_18  and  C_20 
REMARK    5  A    between atoms: C_20  and  C_22 
ROOT
HETATM    1  N   UNK N   1      37.655  12.128  11.645  0.00  0.00    -0.365 N 
HETATM    2  C   UNK N   1      36.502  13.311  13.175  0.00  0.00    -0.026 A 
HETATM    3  C   UNK N   1      36.369  13.930  11.948  0.00  0.00    -0.001 A 
HETATM    4  C   UNK N   1      37.311  12.197  12.957  0.00  0.00     0.096 A 
HETATM    5  C   UNK N   1      37.073  13.185  11.048  0.00  0.00     0.043 A 
HETATM    6  C   UNK N   1      35.691  15.086  11.566  0.00  0.00     0.021 A 
HETATM    7  C   UNK N   1      35.738  15.470  10.215  0.00  0.00    -0.056 A 
HETATM    8  C   UNK N   1      37.141  13.528   9.700  0.00  0.00     0.031 A 
HETATM    9  C   UNK N   1      36.459  14.689   9.283  0.00  0.00     0.009 A 
HETATM   10  H   UNK N   1      38.218  11.443  11.216  0.00  0.00     0.165 HD
ENDROOT
BRANCH   7  11
HETATM   11  C   UNK N   1      35.060  16.727   9.772  0.00  0.00     0.055 C 
BRANCH  11  12
HETATM   12  C   UNK N   1      34.465  16.577   8.349  0.00  0.00     0.167 C 
BRANCH  12  13
HETATM   13  S   UNK N   1      33.717  18.008   7.403  0.00  0.00     0.226 S 
HETATM   14  O   UNK N   1      34.612  17.080   6.569  0.00  0.00    -0.206 OA
HETATM   15  O   UNK N   1      34.701  18.770   8.300  0.00  0.00    -0.206 OA
BRANCH  13  16
HETATM   16  N   UNK N   1      32.594  17.113   8.434  0.00  0.00    -0.324 N 
HETATM   17  C   UNK N   1      31.391  17.920   8.547  0.00  0.00     0.159 C 
HETATM   18  H   UNK N   1      32.758  16.204   8.865  0.00  0.00     0.171 HD
ENDBRANCH  13  16
ENDBRANCH  12  13
ENDBRANCH  11  12
ENDBRANCH   7  11
BRANCH   2  19
HETATM   19  C   UNK N   1      35.905  13.707  14.502  0.00  0.00     0.024 C 
HETATM   20  C   UNK N   1      35.034  12.575  15.055  0.00  0.00     0.039 C 
HETATM   21  C   UNK N   1      34.502  12.949  16.438  0.00  0.00     0.272 C 
HETATM   22  N   UNK N   1      35.617  13.219  17.344  0.00  0.00     0.084 N 
HETATM   23  C   UNK N   1      36.318  14.409  16.874  0.00  0.00     0.272 C 
HETATM   24  C   UNK N   1      35.062  13.532  18.647  0.00  0.00     0.309 C 
HETATM   25  C   UNK N   1      36.966  14.116  15.530  0.00  0.00     0.039 C 
ENDBRANCH   2  19
TORSDOF 5
ENDMDL
MODEL 4
REMARK VINA RESULT:      -6.7      2.288      5.038
REMARK  5 active torsions:
REMARK  status: ('A' for Active; 'I' for Inactive)
REMARK    1  A    between atoms: S_1  and  N_6 
REMARK    2  A    between atoms: S_1  and  C_22 
REMARK    3  A    between atoms: C_7  and  C_12 
REMARK    4  A    between atoms: C_18  and  C_20 
REMARK    5  A    between atoms: C_20  and  C_22 
ROOT
HETATM    1  N   UNK N   1      26.945  18.457   6.061  0.00  0.00    -0.365 N 
HETATM    2  C   UNK N   1      28.208  16.827   5.157  0.00  0.00    -0.026 A 
HETATM    3  C   UNK N   1      28.819  17.267   6.313  0.00  0.00    -0.001 A 
HETATM    4  C   UNK N   1      27.048  17.588   5.022  0.00  0.00     0.096 A 
HETATM    5  C   UNK N   1      28.027  18.247   6.835  0.00  0.00     0.043 A 
HETATM    6  C   UNK N   1      30.007  16.883   6.933  0.00  0.00     0.021 A 
HETATM    7  C   UNK N   1      30.373  17.526   8.129  0.00  0.00    -0.056 A 
HETATM    8  C   UNK N   1      28.350  18.904   8.019  0.00  0.00     0.031 A 
HETATM    9  C   UNK N   1      29.542  18.532   8.672  0.00  0.00     0.009 A 
HETATM   10  H   UNK N   1      26.225  19.110   6.216  0.00  0.00     0.165 HD
ENDROOT
BRANCH   7  11
HETATM   11  C   UNK N   1      31.660  17.174   8.802  0.00  0.00     0.055 C 
BRANCH  11  12
HETATM   12  C   UNK N   1      32.869  17.836   8.091  0.00  0.00     0.167 C 
BRANCH  12  13
HETATM   13  S   UNK N   1      34.479  16.938   7.774  0.00  0.00     0.226 S 
HETATM   14  O   UNK N   1      34.198  18.114   6.827  0.00  0.00    -0.206 OA
HETATM   15  O   UNK N   1      33.484  15.858   7.334  0.00  0.00    -0.206 OA
BRANCH  13  16
HETATM   16  N   UNK N   1      34.159  17.343   9.465  0.00  0.00    -0.324 N 
HETATM   17  C   UNK N   1      35.188  16.691  10.257  0.00  0.00     0.159 C 
HETATM   18  H   UNK N   1      33.399  17.924   9.817  0.00  0.00     0.171 HD
ENDBRANCH  13  16
ENDBRANCH  12  13
ENDBRANCH  11  12
ENDBRANCH   7  11
BRANCH   2  19
HETATM   19  C   UNK N   1      28.651  15.741   4.209  0.00  0.00     0.024 C 
HETATM   20  C   UNK N   1      28.379  14.361   4.812  0.00  0.00     0.039 C 
HETATM   21  C   UNK N   1      28.751  13.266   3.811  0.00  0.00     0.272 C 
HETATM   22  N   UNK N   1      27.985  13.440   2.578  0.00  0.00     0.084 N 
HETATM   23  C   UNK N   1      28.402  14.687   1.946  0.00  0.00     0.272 C 
HETATM   24  C   UNK N   1      28.347  12.361   1.678  0.00  0.00     0.309 C 
HETATM   25  C   UNK N   1      27.997  15.860   2.827  0.00  0.00     0.039 C 
ENDBRANCH   2  19
TORSDOF 5
ENDMDL
MODEL 5
REMARK VINA RESULT:      -6.6     11.904     14.110
REMARK  5 active torsions:
REMARK  status: ('A' for Active; 'I' for Inactive)
REMARK    1  A    between atoms: S_1  and  N_6 
REMARK    2  A    between atoms: S_1  and  C_22 
REMARK    3  A    between atoms: C_7  and  C_12 
REMARK    4  A    between atoms: C_18  and  C_20 
REMARK    5  A    between atoms: C_20  and  C_22 
ROOT
HETATM    1  N   UNK N   1      25.522  24.454  -6.067  0.00  0.00    -0.365 N 
HETATM    2  C   UNK N   1      27.493  24.572  -4.985  0.00  0.00    -0.026 A 
HETATM    3  C   UNK N   1      26.835  25.776  -4.834  0.00  0.00    -0.001 A 
HETATM    4  C   UNK N   1      26.656  23.772  -5.761  0.00  0.00     0.096 A 
HETATM    5  C   UNK N   1      25.647  25.667  -5.495  0.00  0.00     0.043 A 
HETATM    6  C   UNK N   1      27.196  26.948  -4.173  0.00  0.00     0.021 A 
HETATM    7  C   UNK N   1      26.296  28.028  -4.192  0.00  0.00    -0.056 A 
HETATM    8  C   UNK N   1      24.726  26.710  -5.534  0.00  0.00     0.031 A 
HETATM    9  C   UNK N   1      25.061  27.907  -4.869  0.00  0.00     0.009 A 
HETATM   10  H   UNK N   1      24.762  24.128  -6.602  0.00  0.00     0.165 HD
ENDROOT
BRANCH   7  11
HETATM   11  C   UNK N   1      26.665  29.318  -3.533  0.00  0.00     0.055 C 
BRANCH  11  12
HETATM   12  C   UNK N   1      27.927  29.160  -2.647  0.00  0.00     0.167 C 
BRANCH  12  13
HETATM   13  S   UNK N   1      29.186  30.525  -2.417  0.00  0.00     0.226 S 
HETATM   14  O   UNK N   1      27.972  30.602  -1.480  0.00  0.00    -0.206 OA
HETATM   15  O   UNK N   1      28.624  30.913  -3.791  0.00  0.00    -0.206 OA
BRANCH  13  16
HETATM   16  N   UNK N   1      29.852  28.891  -2.523  0.00  0.00    -0.324 N 
HETATM   17  C   UNK N   1      31.245  28.976  -2.120  0.00  0.00     0.159 C 
HETATM   18  H   UNK N   1      29.355  28.049  -2.810  0.00  0.00     0.171 HD
ENDBRANCH  13  16
ENDBRANCH  12  13
ENDBRANCH  11  12
ENDBRANCH   7  11
BRANCH   2  19
HETATM   19  C   UNK N   1      28.832  24.152  -4.433  0.00  0.00     0.024 C 
HETATM   20  C   UNK N   1      28.674  23.586  -3.019  0.00  0.00     0.039 C 
HETATM   21  C   UNK N   1      30.021  23.084  -2.500  0.00  0.00     0.272 C 
HETATM   22  N   UNK N   1      30.550  22.059  -3.399  0.00  0.00     0.084 N 
HETATM   23  C   UNK N   1      30.848  22.680  -4.685  0.00  0.00     0.272 C 
HETATM   24  C   UNK N   1      31.806  21.591  -2.846  0.00  0.00     0.309 C 
HETATM   25  C   UNK N   1      29.553  23.143  -5.335  0.00  0.00     0.039 C 
ENDBRANCH   2  19
TORSDOF 5
ENDMDL
MODEL 6
REMARK VINA RESULT:      -6.6     11.442     12.408
REMARK  5 active torsions:
REMARK  status: ('A' for Active; 'I' for Inactive)
REMARK    1  A    between atoms: S_1  and  N_6 
REMARK    2  A    between atoms: S_1  and  C_22 
REMARK    3  A    between atoms: C_7  and  C_12 
REMARK    4  A    between atoms: C_18  and  C_20 
REMARK    5  A    between atoms: C_20  and  C_22 
ROOT
HETATM    1  N   UNK N   1      26.057  22.065  -8.340  0.00  0.00    -0.365 N 
HETATM    2  C   UNK N   1      26.852  23.584  -6.882  0.00  0.00    -0.026 A 
HETATM    3  C   UNK N   1      27.744  22.534  -6.953  0.00  0.00    -0.001 A 
HETATM    4  C   UNK N   1      25.810  23.263  -7.751  0.00  0.00     0.096 A 
HETATM    5  C   UNK N   1      27.235  21.638  -7.847  0.00  0.00     0.043 A 
HETATM    6  C   UNK N   1      28.951  22.302  -6.297  0.00  0.00     0.021 A 
HETATM    7  C   UNK N   1      29.650  21.117  -6.586  0.00  0.00    -0.056 A 
HETATM    8  C   UNK N   1      27.897  20.456  -8.165  0.00  0.00     0.031 A 
HETATM    9  C   UNK N   1      29.125  20.198  -7.523  0.00  0.00     0.009 A 
HETATM   10  H   UNK N   1      25.488  21.601  -8.997  0.00  0.00     0.165 HD
ENDROOT
BRANCH   7  11
HETATM   11  C   UNK N   1      30.928  20.811  -5.872  0.00  0.00     0.055 C 
BRANCH  11  12
HETATM   12  C   UNK N   1      30.767  20.962  -4.338  0.00  0.00     0.167 C 
BRANCH  12  13
HETATM   13  S   UNK N   1      31.940  21.972  -3.287  0.00  0.00     0.226 S 
HETATM   14  O   UNK N   1      30.467  22.040  -2.857  0.00  0.00    -0.206 OA
HETATM   15  O   UNK N   1      31.987  22.782  -4.588  0.00  0.00    -0.206 OA
BRANCH  13  16
HETATM   16  N   UNK N   1      32.466  20.320  -3.632  0.00  0.00    -0.324 N 
HETATM   17  C   UNK N   1      33.915  20.307  -3.525  0.00  0.00     0.159 C 
HETATM   18  H   UNK N   1      31.867  19.528  -3.863  0.00  0.00     0.171 HD
ENDBRANCH  13  16
ENDBRANCH  12  13
ENDBRANCH  11  12
ENDBRANCH   7  11
BRANCH   2  19
HETATM   19  C   UNK N   1      26.944  24.848  -6.064  0.00  0.00     0.024 C 
HETATM   20  C   UNK N   1      26.132  25.969  -6.718  0.00  0.00     0.039 C 
HETATM   21  C   UNK N   1      26.160  27.220  -5.839  0.00  0.00     0.272 C 
HETATM   22  N   UNK N   1      25.621  26.911  -4.516  0.00  0.00     0.084 N 
HETATM   23  C   UNK N   1      26.520  25.967  -3.859  0.00  0.00     0.272 C 
HETATM   24  C   UNK N   1      25.637  28.133  -3.736  0.00  0.00     0.309 C 
HETATM   25  C   UNK N   1      26.501  24.644  -4.610  0.00  0.00     0.039 C 
ENDBRANCH   2  19
TORSDOF 5
ENDMDL
MODEL 7
REMARK VINA RESULT:      -6.6     11.780     13.689
REMARK  5 active torsions:
REMARK  status: ('A' for Active; 'I' for Inactive)
REMARK    1  A    between atoms: S_1  and  N_6 
REMARK    2  A    between atoms: S_1  and  C_22 
REMARK    3  A    between atoms: C_7  and  C_12 
REMARK    4  A    between atoms: C_18  and  C_20 
REMARK    5  A    between atoms: C_20  and  C_22 
ROOT
HETATM    1  N   UNK N   1      25.233  23.285  -7.693  0.00  0.00    -0.365 N 
HETATM    2  C   UNK N   1      27.296  22.433  -7.984  0.00  0.00    -0.026 A 
HETATM    3  C   UNK N   1      27.250  23.066  -6.758  0.00  0.00    -0.001 A 
HETATM    4  C   UNK N   1      26.030  22.590  -8.545  0.00  0.00     0.096 A 
HETATM    5  C   UNK N   1      25.988  23.563  -6.614  0.00  0.00     0.043 A 
HETATM    6  C   UNK N   1      28.220  23.242  -5.774  0.00  0.00     0.021 A 
HETATM    7  C   UNK N   1      27.866  23.942  -4.607  0.00  0.00    -0.056 A 
HETATM    8  C   UNK N   1      25.596  24.258  -5.473  0.00  0.00     0.031 A 
HETATM    9  C   UNK N   1      26.554  24.446  -4.456  0.00  0.00     0.009 A 
HETATM   10  H   UNK N   1      24.291  23.536  -7.836  0.00  0.00     0.165 HD
ENDROOT
BRANCH   7  11
HETATM   11  C   UNK N   1      28.890  24.191  -3.546  0.00  0.00     0.055 C 
BRANCH  11  12
HETATM   12  C   UNK N   1      29.440  22.861  -2.969  0.00  0.00     0.167 C 
BRANCH  12  13
HETATM   13  S   UNK N   1      31.269  22.490  -2.834  0.00  0.00     0.226 S 
HETATM   14  O   UNK N   1      30.610  22.974  -1.534  0.00  0.00    -0.206 OA
HETATM   15  O   UNK N   1      31.318  23.744  -3.717  0.00  0.00    -0.206 OA
BRANCH  13  16
HETATM   16  N   UNK N   1      30.306  21.258  -3.658  0.00  0.00    -0.324 N 
HETATM   17  C   UNK N   1      31.224  20.483  -4.475  0.00  0.00     0.159 C 
HETATM   18  H   UNK N   1      29.300  21.118  -3.576  0.00  0.00     0.171 HD
ENDBRANCH  13  16
ENDBRANCH  12  13
ENDBRANCH  11  12
ENDBRANCH   7  11
BRANCH   2  19
HETATM   19  C   UNK N   1      28.446  21.696  -8.624  0.00  0.00     0.024 C 
HETATM   20  C   UNK N   1      28.705  20.375  -7.896  0.00  0.00     0.039 C 
HETATM   21  C   UNK N   1      29.815  19.594  -8.601  0.00  0.00     0.272 C 
HETATM   22  N   UNK N   1      29.438  19.341  -9.991  0.00  0.00     0.084 N 
HETATM   23  C   UNK N   1      29.369  20.619 -10.692  0.00  0.00     0.272 C 
HETATM   24  C   UNK N   1      30.503  18.571 -10.604  0.00  0.00     0.309 C 
HETATM   25  C   UNK N   1      28.229  21.448 -10.121  0.00  0.00     0.039 C 
ENDBRANCH   2  19
TORSDOF 5
ENDMDL
MODEL 8
REMARK VINA RESULT:      -6.6      4.863      6.654
REMARK  5 active torsions:
REMARK  status: ('A' for Active; 'I' for Inactive)
REMARK    1  A    between atoms: S_1  and  N_6 
REMARK    2  A    between atoms: S_1  and  C_22 
REMARK    3  A    between atoms: C_7  and  C_12 
REMARK    4  A    between atoms: C_18  and  C_20 
REMARK    5  A    between atoms: C_20  and  C_22 
ROOT
HETATM    1  N   UNK N   1      22.438  19.903   3.027  0.00  0.00    -0.365 N 
HETATM    2  C   UNK N   1      22.901  18.400   4.638  0.00  0.00    -0.026 A 
HETATM    3  C   UNK N   1      24.079  19.006   4.249  0.00  0.00    -0.001 A 
HETATM    4  C   UNK N   1      21.898  18.974   3.858  0.00  0.00     0.096 A 
HETATM    5  C   UNK N   1      23.761  19.911   3.280  0.00  0.00     0.043 A 
HETATM    6  C   UNK N   1      25.394  18.822   4.671  0.00  0.00     0.021 A 
HETATM    7  C   UNK N   1      26.400  19.606   4.078  0.00  0.00    -0.056 A 
HETATM    8  C   UNK N   1      24.725  20.710   2.671  0.00  0.00     0.031 A 
HETATM    9  C   UNK N   1      26.064  20.551   3.083  0.00  0.00     0.009 A 
HETATM   10  H   UNK N   1      21.958  20.460   2.371  0.00  0.00     0.165 HD
ENDROOT
BRANCH   7  11
HETATM   11  C   UNK N   1      27.829  19.408   4.472  0.00  0.00     0.055 C 
BRANCH  11  12
HETATM   12  C   UNK N   1      28.241  17.917   4.375  0.00  0.00     0.167 C 
BRANCH  12  13
HETATM   13  S   UNK N   1      29.335  17.080   5.641  0.00  0.00     0.226 S 
HETATM   14  O   UNK N   1      28.080  16.287   5.247  0.00  0.00    -0.206 OA
HETATM   15  O   UNK N   1      28.795  18.241   6.486  0.00  0.00    -0.206 OA
BRANCH  13  16
HETATM   16  N   UNK N   1      30.177  17.749   4.237  0.00  0.00    -0.324 N 
HETATM   17  C   UNK N   1      31.596  17.523   4.449  0.00  0.00     0.159 C 
HETATM   18  H   UNK N   1      29.748  18.206   3.433  0.00  0.00     0.171 HD
ENDBRANCH  13  16
ENDBRANCH  12  13
ENDBRANCH  11  12
ENDBRANCH   7  11
BRANCH   2  19
HETATM   19  C   UNK N   1      22.686  17.344   5.693  0.00  0.00     0.024 C 
HETATM   20  C   UNK N   1      21.342  17.557   6.396  0.00  0.00     0.039 C 
HETATM   21  C   UNK N   1      21.092  16.435   7.403  0.00  0.00     0.272 C 
HETATM   22  N   UNK N   1      21.107  15.142   6.721  0.00  0.00     0.084 N 
HETATM   23  C   UNK N   1      22.454  14.901   6.214  0.00  0.00     0.272 C 
HETATM   24  C   UNK N   1      20.831  14.118   7.710  0.00  0.00     0.309 C 
HETATM   25  C   UNK N   1      22.776  15.920   5.131  0.00  0.00     0.039 C 
ENDBRANCH   2  19
TORSDOF 5
ENDMDL
MODEL 9
REMARK VINA RESULT:      -6.5     11.980     14.091
REMARK  5 active torsions:
REMARK  status: ('A' for Active; 'I' for Inactive)
REMARK    1  A    between atoms: S_1  and  N_6 
REMARK    2  A    between atoms: S_1  and  C_22 
REMARK    3  A    between atoms: C_7  and  C_12 
REMARK    4  A    between atoms: C_18  and  C_20 
REMARK    5  A    between atoms: C_20  and  C_22 
ROOT
HETATM    1  N   UNK N   1      31.452  20.657  -3.392  0.00  0.00    -0.365 N 
HETATM    2  C   UNK N   1      30.801  20.800  -5.542  0.00  0.00    -0.026 A 
HETATM    3  C   UNK N   1      30.163  21.789  -4.823  0.00  0.00    -0.001 A 
HETATM    4  C   UNK N   1      31.593  20.108  -4.626  0.00  0.00     0.096 A 
HETATM    5  C   UNK N   1      30.583  21.677  -3.530  0.00  0.00     0.043 A 
HETATM    6  C   UNK N   1      29.246  22.764  -5.209  0.00  0.00     0.021 A 
HETATM    7  C   UNK N   1      28.764  23.651  -4.230  0.00  0.00    -0.056 A 
HETATM    8  C   UNK N   1      30.134  22.537  -2.531  0.00  0.00     0.031 A 
HETATM    9  C   UNK N   1      29.212  23.539  -2.893  0.00  0.00     0.009 A 
HETATM   10  H   UNK N   1      31.896  20.368  -2.561  0.00  0.00     0.165 HD
ENDROOT
BRANCH   7  11
HETATM   11  C   UNK N   1      27.747  24.684  -4.594  0.00  0.00     0.055 C 
BRANCH  11  12
HETATM   12  C   UNK N   1      26.595  24.073  -5.432  0.00  0.00     0.167 C 
BRANCH  12  13
HETATM   13  S   UNK N   1      25.965  24.848  -7.014  0.00  0.00     0.226 S 
HETATM   14  O   UNK N   1      26.088  23.318  -7.049  0.00  0.00    -0.206 OA
HETATM   15  O   UNK N   1      27.418  25.340  -7.039  0.00  0.00    -0.206 OA
BRANCH  13  16
HETATM   16  N   UNK N   1      25.200  25.428  -5.530  0.00  0.00    -0.324 N 
HETATM   17  C   UNK N   1      24.847  26.820  -5.754  0.00  0.00     0.159 C 
HETATM   18  H   UNK N   1      25.036  24.890  -4.680  0.00  0.00     0.171 HD
ENDBRANCH  13  16
ENDBRANCH  12  13
ENDBRANCH  11  12
ENDBRANCH   7  11
BRANCH   2  19
HETATM   19  C   UNK N   1      30.712  20.496  -7.017  0.00  0.00     0.024 C 
HETATM   20  C   UNK N   1      31.936  19.698  -7.474  0.00  0.00     0.039 C 
HETATM   21  C   UNK N   1      31.797  19.321  -8.949  0.00  0.00     0.272 C 
HETATM   22  N   UNK N   1      30.578  18.538  -9.150  0.00  0.00     0.084 N 
HETATM   23  C   UNK N   1      29.428  19.391  -8.868  0.00  0.00     0.272 C 
HETATM   24  C   UNK N   1      30.511  18.177 -10.553  0.00  0.00     0.309 C 
HETATM   25  C   UNK N   1      29.421  19.758  -7.391  0.00  0.00     0.039 C 
ENDBRANCH   2  19
TORSDOF 5
ENDMDL
