MODEL 1
REMARK VINA RESULT:      -7.1      0.000      0.000
REMARK  3 active torsions:
REMARK  status: ('A' for Active; 'I' for Inactive)
REMARK    1  A    between atoms: N_2  and  C_10 
REMARK    2  A    between atoms: N_2  and  C_13 
REMARK       I    between atoms: N_2  and  C_19 
REMARK    3  A    between atoms: C_9  and  C_11 
ROOT
HETATM    1  N   UNK N   1      35.892  13.389  14.262  0.00  0.00    -0.238 N 
HETATM    2  N   UNK N   1      36.752  14.369  14.518  0.00  0.00    -0.302 N 
ATOM      3  HN  UNK N   1      37.320  14.858  13.826  1.00  0.00     0.186 HD
HETATM    4  N   UNK N   1      34.402  12.025  15.460  0.00  0.00    -0.349 N 
ATOM      5  HN  UNK N   1      33.984  11.746  16.348  1.00  0.00     0.166 HD
HETATM    6  N   UNK N   1      35.212  13.592  18.985  0.00  0.00    -0.191 NA
HETATM    7  C   UNK N   1      35.604  12.797  13.046  0.00  0.00     0.070 A 
HETATM    8  C   UNK N   1      35.323  13.007  15.410  0.00  0.00     0.149 A 
HETATM    9  C   UNK N   1      34.634  11.775  13.060  0.00  0.00     0.049 A 
HETATM   10  C   UNK N   1      35.830  13.743  16.449  0.00  0.00     0.107 A 
HETATM   11  C   UNK N   1      34.039  11.409  14.297  0.00  0.00     0.092 A 
HETATM   12  C   UNK N   1      36.748  14.613  15.856  0.00  0.00     0.134 A 
HETATM   13  C   UNK N   1      35.470  13.640  17.854  0.00  0.00     0.105 C 
ENDROOT
BRANCH   7  14
HETATM   14  C   UNK N   1      36.359  13.201  11.794  0.00  0.00    -0.005 A 
HETATM   15  C   UNK N   1      35.669  14.032  10.951  0.00  0.00     0.043 A 
HETATM   16  C   UNK N   1      36.123  14.522   9.746  0.00  0.00     0.038 A 
HETATM   17  C   UNK N   1      37.411  14.148   9.326  0.00  0.00     0.030 A 
HETATM   18  C   UNK N   1      38.199  13.334  10.177  0.00  0.00     0.003 A 
HETATM   19  C   UNK N   1      37.683  12.864  11.421  0.00  0.00     0.014 A 
BRANCH  16  20
HETATM   20  N   UNK N   1      35.261  15.449   9.060  0.00  0.00    -0.319 N 
HETATM   21  C   UNK N   1      35.006  16.730   9.478  0.00  0.00     0.220 C 
HETATM   22  O   UNK N   1      35.575  17.193  10.452  0.00  0.00    -0.273 OA
HETATM   23  C   UNK N   1      34.049  17.614   8.711  0.00  0.00     0.117 C 
BRANCH  20  24
HETATM   24  C   UNK N   1      34.632  14.969   7.839  0.00  0.00     0.128 C 
HETATM   25  C   UNK N   1      33.512  14.000   8.165  0.00  0.00     0.027 C 
ENDBRANCH  20  24
ENDBRANCH  16  20
ENDBRANCH   7  14
TORSDOF 3
ENDMDL
MODEL 2
REMARK VINA RESULT:      -7.0      5.023      9.211
REMARK  3 active torsions:
REMARK  status: ('A' for Active; 'I' for Inactive)
REMARK    1  A    between atoms: N_2  and  C_10 
REMARK    2  A    between atoms: N_2  and  C_13 
REMARK       I    between atoms: N_2  and  C_19 
REMARK    3  A    between atoms: C_9  and  C_11 
ROOT
HETATM    1  N   UNK N   1      29.269  16.667   6.883  0.00  0.00    -0.238 N 
HETATM    2  N   UNK N   1      29.454  15.738   5.952  0.00  0.00    -0.302 N 
ATOM      3  HN  UNK N   1      30.357  15.378   5.642  1.00  0.00     0.186 HD
HETATM    4  N   UNK N   1      27.465  17.762   7.915  0.00  0.00    -0.349 N 
ATOM      5  HN  UNK N   1      26.458  17.903   8.008  1.00  0.00     0.166 HD
HETATM    6  N   UNK N   1      24.669  15.877   5.872  0.00  0.00    -0.191 NA
HETATM    7  C   UNK N   1      30.224  17.368   7.597  0.00  0.00     0.070 A 
HETATM    8  C   UNK N   1      27.956  16.870   7.032  0.00  0.00     0.149 A 
HETATM    9  C   UNK N   1      29.744  18.299   8.541  0.00  0.00     0.049 A 
HETATM   10  C   UNK N   1      27.260  16.064   6.169  0.00  0.00     0.107 A 
HETATM   11  C   UNK N   1      28.342  18.473   8.681  0.00  0.00     0.092 A 
HETATM   12  C   UNK N   1      28.240  15.345   5.482  0.00  0.00     0.134 A 
HETATM   13  C   UNK N   1      25.816  15.979   6.021  0.00  0.00     0.105 C 
ENDROOT
BRANCH   7  14
HETATM   14  C   UNK N   1      31.700  17.170   7.310  0.00  0.00    -0.005 A 
HETATM   15  C   UNK N   1      32.430  16.686   8.364  0.00  0.00     0.043 A 
HETATM   16  C   UNK N   1      33.785  16.440   8.365  0.00  0.00     0.038 A 
HETATM   17  C   UNK N   1      34.504  16.704   7.185  0.00  0.00     0.030 A 
HETATM   18  C   UNK N   1      33.800  17.156   6.042  0.00  0.00     0.003 A 
HETATM   19  C   UNK N   1      32.393  17.381   6.093  0.00  0.00     0.014 A 
BRANCH  16  20
HETATM   20  N   UNK N   1      34.334  15.852   9.559  0.00  0.00    -0.319 N 
HETATM   21  C   UNK N   1      35.220  16.477  10.398  0.00  0.00     0.220 C 
HETATM   22  O   UNK N   1      35.546  17.636  10.209  0.00  0.00    -0.273 OA
HETATM   23  C   UNK N   1      35.775  15.757  11.607  0.00  0.00     0.117 C 
BRANCH  20  24
HETATM   24  C   UNK N   1      33.899  14.499   9.875  0.00  0.00     0.128 C 
HETATM   25  C   UNK N   1      34.483  13.509   8.886  0.00  0.00     0.027 C 
ENDBRANCH  20  24
ENDBRANCH  16  20
ENDBRANCH   7  14
TORSDOF 3
ENDMDL
MODEL 3
REMARK VINA RESULT:      -6.9      7.192     11.840
REMARK  3 active torsions:
REMARK  status: ('A' for Active; 'I' for Inactive)
REMARK    1  A    between atoms: N_2  and  C_10 
REMARK    2  A    between atoms: N_2  and  C_13 
REMARK       I    between atoms: N_2  and  C_19 
REMARK    3  A    between atoms: C_9  and  C_11 
ROOT
HETATM    1  N   UNK N   1      27.374  18.819   5.351  0.00  0.00    -0.238 N 
HETATM    2  N   UNK N   1      27.592  20.085   5.692  0.00  0.00    -0.302 N 
ATOM      3  HN  UNK N   1      28.239  20.404   6.413  1.00  0.00     0.186 HD
HETATM    4  N   UNK N   1      26.059  17.633   3.808  0.00  0.00    -0.349 N 
ATOM      5  HN  UNK N   1      25.369  17.635   3.056  1.00  0.00     0.166 HD
HETATM    6  N   UNK N   1      24.374  20.827   2.225  0.00  0.00    -0.191 NA
HETATM    7  C   UNK N   1      27.924  17.676   5.903  0.00  0.00     0.070 A 
HETATM    8  C   UNK N   1      26.477  18.789   4.361  0.00  0.00     0.149 A 
HETATM    9  C   UNK N   1      27.520  16.450   5.338  0.00  0.00     0.049 A 
HETATM   10  C   UNK N   1      26.084  20.065   4.050  0.00  0.00     0.107 A 
HETATM   11  C   UNK N   1      26.577  16.461   4.276  0.00  0.00     0.092 A 
HETATM   12  C   UNK N   1      26.811  20.884   4.917  0.00  0.00     0.134 A 
HETATM   13  C   UNK N   1      25.129  20.464   3.029  0.00  0.00     0.105 C 
ENDROOT
BRANCH   7  14
HETATM   14  C   UNK N   1      28.857  17.768   7.095  0.00  0.00    -0.005 A 
HETATM   15  C   UNK N   1      30.102  17.233   6.893  0.00  0.00     0.043 A 
HETATM   16  C   UNK N   1      31.119  17.174   7.820  0.00  0.00     0.038 A 
HETATM   17  C   UNK N   1      30.877  17.706   9.098  0.00  0.00     0.030 A 
HETATM   18  C   UNK N   1      29.628  18.322   9.358  0.00  0.00     0.003 A 
HETATM   19  C   UNK N   1      28.614  18.367   8.356  0.00  0.00     0.014 A 
BRANCH  16  20
HETATM   20  N   UNK N   1      32.377  16.642   7.365  0.00  0.00    -0.319 N 
HETATM   21  C   UNK N   1      32.720  15.315   7.399  0.00  0.00     0.220 C 
HETATM   22  O   UNK N   1      31.916  14.473   7.764  0.00  0.00    -0.273 OA
HETATM   23  C   UNK N   1      34.086  14.859   6.939  0.00  0.00     0.117 C 
BRANCH  20  24
HETATM   24  C   UNK N   1      33.334  17.602   6.833  0.00  0.00     0.128 C 
HETATM   25  C   UNK N   1      34.111  18.256   7.959  0.00  0.00     0.027 C 
ENDBRANCH  20  24
ENDBRANCH  16  20
ENDBRANCH   7  14
TORSDOF 3
ENDMDL
MODEL 4
REMARK VINA RESULT:      -6.9      3.856      8.584
REMARK  3 active torsions:
REMARK  status: ('A' for Active; 'I' for Inactive)
REMARK    1  A    between atoms: N_2  and  C_10 
REMARK    2  A    between atoms: N_2  and  C_13 
REMARK       I    between atoms: N_2  and  C_19 
REMARK    3  A    between atoms: C_9  and  C_11 
ROOT
HETATM    1  N   UNK N   1      35.231  12.694  14.326  0.00  0.00    -0.238 N 
HETATM    2  N   UNK N   1      35.932  13.811  14.486  0.00  0.00    -0.302 N 
ATOM      3  HN  UNK N   1      36.258  14.187  15.377  1.00  0.00     0.186 HD
HETATM    4  N   UNK N   1      34.309  11.456  12.556  0.00  0.00    -0.349 N 
ATOM      5  HN  UNK N   1      34.140  11.343  11.556  1.00  0.00     0.166 HD
HETATM    6  N   UNK N   1      35.530  13.903   9.716  0.00  0.00    -0.191 NA
HETATM    7  C   UNK N   1      34.762  11.829  15.299  0.00  0.00     0.070 A 
HETATM    8  C   UNK N   1      35.000  12.515  13.022  0.00  0.00     0.149 A 
HETATM    9  C   UNK N   1      34.048  10.702  14.845  0.00  0.00     0.049 A 
HETATM   10  C   UNK N   1      35.550  13.546  12.306  0.00  0.00     0.107 A 
HETATM   11  C   UNK N   1      33.837  10.539  13.450  0.00  0.00     0.092 A 
HETATM   12  C   UNK N   1      36.144  14.371  13.265  0.00  0.00     0.134 A 
HETATM   13  C   UNK N   1      35.524  13.724  10.863  0.00  0.00     0.105 C 
ENDROOT
BRANCH   7  14
HETATM   14  C   UNK N   1      34.966  12.140  16.769  0.00  0.00    -0.005 A 
HETATM   15  C   UNK N   1      35.157  11.042  17.567  0.00  0.00     0.043 A 
HETATM   16  C   UNK N   1      35.343  11.055  18.932  0.00  0.00     0.038 A 
HETATM   17  C   UNK N   1      35.339  12.300  19.585  0.00  0.00     0.030 A 
HETATM   18  C   UNK N   1      35.200  13.479  18.812  0.00  0.00     0.003 A 
HETATM   19  C   UNK N   1      35.023  13.408  17.398  0.00  0.00     0.014 A 
BRANCH  16  20
HETATM   20  N   UNK N   1      35.610   9.787  19.560  0.00  0.00    -0.319 N 
HETATM   21  C   UNK N   1      34.656   8.989  20.136  0.00  0.00     0.220 C 
HETATM   22  O   UNK N   1      33.475   9.288  20.081  0.00  0.00    -0.273 OA
HETATM   23  C   UNK N   1      35.043   7.692  20.811  0.00  0.00     0.117 C 
BRANCH  20  24
HETATM   24  C   UNK N   1      36.996   9.345  19.566  0.00  0.00     0.128 C 
HETATM   25  C   UNK N   1      37.748   9.971  20.725  0.00  0.00     0.027 C 
ENDBRANCH  20  24
ENDBRANCH  16  20
ENDBRANCH   7  14
TORSDOF 3
ENDMDL
MODEL 5
REMARK VINA RESULT:      -6.7      6.569     10.477
REMARK  3 active torsions:
REMARK  status: ('A' for Active; 'I' for Inactive)
REMARK    1  A    between atoms: N_2  and  C_10 
REMARK    2  A    between atoms: N_2  and  C_13 
REMARK       I    between atoms: N_2  and  C_19 
REMARK    3  A    between atoms: C_9  and  C_11 
ROOT
HETATM    1  N   UNK N   1      31.517  17.170   6.330  0.00  0.00    -0.238 N 
HETATM    2  N   UNK N   1      30.769  17.014   7.417  0.00  0.00    -0.302 N 
ATOM      3  HN  UNK N   1      29.760  16.869   7.428  1.00  0.00     0.186 HD
HETATM    4  N   UNK N   1      33.784  17.497   5.809  0.00  0.00    -0.349 N 
ATOM      5  HN  UNK N   1      34.750  17.614   6.119  1.00  0.00     0.166 HD
HETATM    6  N   UNK N   1      35.031  17.482   9.550  0.00  0.00    -0.191 NA
HETATM    7  C   UNK N   1      31.112  17.210   5.008  0.00  0.00     0.070 A 
HETATM    8  C   UNK N   1      32.792  17.320   6.704  0.00  0.00     0.149 A 
HETATM    9  C   UNK N   1      32.127  17.378   4.045  0.00  0.00     0.049 A 
HETATM   10  C   UNK N   1      32.884  17.275   8.070  0.00  0.00     0.107 A 
HETATM   11  C   UNK N   1      33.471  17.517   4.482  0.00  0.00     0.092 A 
HETATM   12  C   UNK N   1      31.573  17.079   8.511  0.00  0.00     0.134 A 
HETATM   13  C   UNK N   1      34.092  17.394   8.872  0.00  0.00     0.105 C 
ENDROOT
BRANCH   7  14
HETATM   14  C   UNK N   1      29.639  17.139   4.652  0.00  0.00    -0.005 A 
HETATM   15  C   UNK N   1      28.929  18.281   4.915  0.00  0.00     0.043 A 
HETATM   16  C   UNK N   1      27.581  18.464   4.702  0.00  0.00     0.038 A 
HETATM   17  C   UNK N   1      26.847  17.392   4.166  0.00  0.00     0.030 A 
HETATM   18  C   UNK N   1      27.530  16.199   3.821  0.00  0.00     0.003 A 
HETATM   19  C   UNK N   1      28.932  16.069   4.051  0.00  0.00     0.014 A 
BRANCH  16  20
HETATM   20  N   UNK N   1      27.056  19.777   4.974  0.00  0.00    -0.319 N 
HETATM   21  C   UNK N   1      27.000  20.352   6.217  0.00  0.00     0.220 C 
HETATM   22  O   UNK N   1      27.476  19.786   7.187  0.00  0.00    -0.273 OA
HETATM   23  C   UNK N   1      26.389  21.722   6.407  0.00  0.00     0.117 C 
BRANCH  20  24
HETATM   24  C   UNK N   1      26.561  20.528   3.829  0.00  0.00     0.128 C 
HETATM   25  C   UNK N   1      25.104  20.199   3.569  0.00  0.00     0.027 C 
ENDBRANCH  20  24
ENDBRANCH  16  20
ENDBRANCH   7  14
TORSDOF 3
ENDMDL
MODEL 6
REMARK VINA RESULT:      -6.7      2.183      6.952
REMARK  3 active torsions:
REMARK  status: ('A' for Active; 'I' for Inactive)
REMARK    1  A    between atoms: N_2  and  C_10 
REMARK    2  A    between atoms: N_2  and  C_13 
REMARK       I    between atoms: N_2  and  C_19 
REMARK    3  A    between atoms: C_9  and  C_11 
ROOT
HETATM    1  N   UNK N   1      34.210  14.716  10.000  0.00  0.00    -0.238 N 
HETATM    2  N   UNK N   1      33.605  13.550   9.805  0.00  0.00    -0.302 N 
ATOM      3  HN  UNK N   1      33.846  12.671  10.263  1.00  0.00     0.186 HD
HETATM    4  N   UNK N   1      34.014  16.928   9.233  0.00  0.00    -0.349 N 
ATOM      5  HN  UNK N   1      33.546  17.616   8.641  1.00  0.00     0.166 HD
HETATM    6  N   UNK N   1      30.972  16.219   6.827  0.00  0.00    -0.191 NA
HETATM    7  C   UNK N   1      35.295  14.995  10.811  0.00  0.00     0.070 A 
HETATM    8  C   UNK N   1      33.613  15.642   9.241  0.00  0.00     0.149 A 
HETATM    9  C   UNK N   1      35.731  16.335  10.837  0.00  0.00     0.049 A 
HETATM   10  C   UNK N   1      32.599  15.068   8.519  0.00  0.00     0.107 A 
HETATM   11  C   UNK N   1      35.060  17.291  10.030  0.00  0.00     0.092 A 
HETATM   12  C   UNK N   1      32.610  13.722   8.894  0.00  0.00     0.134 A 
HETATM   13  C   UNK N   1      31.706  15.730   7.582  0.00  0.00     0.105 C 
ENDROOT
BRANCH   7  14
HETATM   14  C   UNK N   1      35.996  13.883  11.568  0.00  0.00    -0.005 A 
HETATM   15  C   UNK N   1      35.541  13.682  12.845  0.00  0.00     0.043 A 
HETATM   16  C   UNK N   1      36.024  12.752  13.739  0.00  0.00     0.038 A 
HETATM   17  C   UNK N   1      37.081  11.924  13.323  0.00  0.00     0.030 A 
HETATM   18  C   UNK N   1      37.564  12.045  11.996  0.00  0.00     0.003 A 
HETATM   19  C   UNK N   1      37.018  13.017  11.107  0.00  0.00     0.014 A 
BRANCH  16  20
HETATM   20  N   UNK N   1      35.339  12.655  15.002  0.00  0.00    -0.319 N 
HETATM   21  C   UNK N   1      35.717  13.313  16.144  0.00  0.00     0.220 C 
HETATM   22  O   UNK N   1      36.646  14.102  16.131  0.00  0.00    -0.273 OA
HETATM   23  C   UNK N   1      34.958  13.112  17.436  0.00  0.00     0.117 C 
BRANCH  20  24
HETATM   24  C   UNK N   1      34.166  11.795  15.041  0.00  0.00     0.128 C 
HETATM   25  C   UNK N   1      34.578  10.343  15.188  0.00  0.00     0.027 C 
ENDBRANCH  20  24
ENDBRANCH  16  20
ENDBRANCH   7  14
TORSDOF 3
ENDMDL
MODEL 7
REMARK VINA RESULT:      -6.7     18.524     21.815
REMARK  3 active torsions:
REMARK  status: ('A' for Active; 'I' for Inactive)
REMARK    1  A    between atoms: N_2  and  C_10 
REMARK    2  A    between atoms: N_2  and  C_13 
REMARK       I    between atoms: N_2  and  C_19 
REMARK    3  A    between atoms: C_9  and  C_11 
ROOT
HETATM    1  N   UNK N   1      29.667  22.635  -4.826  0.00  0.00    -0.238 N 
HETATM    2  N   UNK N   1      29.595  22.379  -6.127  0.00  0.00    -0.302 N 
ATOM      3  HN  UNK N   1      28.944  22.812  -6.783  1.00  0.00     0.186 HD
HETATM    4  N   UNK N   1      30.953  21.945  -2.985  0.00  0.00    -0.349 N 
ATOM      5  HN  UNK N   1      31.701  21.366  -2.602  1.00  0.00     0.166 HD
HETATM    6  N   UNK N   1      33.199  19.426  -5.024  0.00  0.00    -0.191 NA
HETATM    7  C   UNK N   1      28.879  23.488  -4.074  0.00  0.00     0.070 A 
HETATM    8  C   UNK N   1      30.646  21.894  -4.296  0.00  0.00     0.149 A 
HETATM    9  C   UNK N   1      29.183  23.576  -2.701  0.00  0.00     0.049 A 
HETATM   10  C   UNK N   1      31.223  21.122  -5.270  0.00  0.00     0.107 A 
HETATM   11  C   UNK N   1      30.241  22.785  -2.180  0.00  0.00     0.092 A 
HETATM   12  C   UNK N   1      30.534  21.447  -6.440  0.00  0.00     0.134 A 
HETATM   13  C   UNK N   1      32.323  20.183  -5.108  0.00  0.00     0.105 C 
ENDROOT
BRANCH   7  14
HETATM   14  C   UNK N   1      27.715  24.223  -4.711  0.00  0.00    -0.005 A 
HETATM   15  C   UNK N   1      27.697  25.575  -4.486  0.00  0.00     0.043 A 
HETATM   16  C   UNK N   1      26.741  26.458  -4.936  0.00  0.00     0.038 A 
HETATM   17  C   UNK N   1      25.677  25.946  -5.698  0.00  0.00     0.030 A 
HETATM   18  C   UNK N   1      25.664  24.564  -6.013  0.00  0.00     0.003 A 
HETATM   19  C   UNK N   1      26.687  23.696  -5.531  0.00  0.00     0.014 A 
BRANCH  16  20
HETATM   20  N   UNK N   1      26.965  27.852  -4.652  0.00  0.00    -0.319 N 
HETATM   21  C   UNK N   1      26.236  28.591  -3.756  0.00  0.00     0.220 C 
HETATM   22  O   UNK N   1      25.372  28.067  -3.073  0.00  0.00    -0.273 OA
HETATM   23  C   UNK N   1      26.520  30.063  -3.560  0.00  0.00     0.117 C 
BRANCH  20  24
HETATM   24  C   UNK N   1      28.050  28.496  -5.378  0.00  0.00     0.128 C 
HETATM   25  C   UNK N   1      27.743  28.541  -6.862  0.00  0.00     0.027 C 
ENDBRANCH  20  24
ENDBRANCH  16  20
ENDBRANCH   7  14
TORSDOF 3
ENDMDL
MODEL 8
REMARK VINA RESULT:      -6.6      7.747     11.267
REMARK  3 active torsions:
REMARK  status: ('A' for Active; 'I' for Inactive)
REMARK    1  A    between atoms: N_2  and  C_10 
REMARK    2  A    between atoms: N_2  and  C_13 
REMARK       I    between atoms: N_2  and  C_19 
REMARK    3  A    between atoms: C_9  and  C_11 
ROOT
HETATM    1  N   UNK N   1      29.802  17.624   7.104  0.00  0.00    -0.238 N 
HETATM    2  N   UNK N   1      30.413  17.214   5.997  0.00  0.00    -0.302 N 
ATOM      3  HN  UNK N   1      30.119  17.424   5.043  1.00  0.00     0.186 HD
HETATM    4  N   UNK N   1      30.093  17.429   9.426  0.00  0.00    -0.349 N 
ATOM      5  HN  UNK N   1      30.623  17.066  10.219  1.00  0.00     0.166 HD
HETATM    6  N   UNK N   1      33.351  15.220   9.209  0.00  0.00    -0.191 NA
HETATM    7  C   UNK N   1      28.645  18.374   7.217  0.00  0.00     0.070 A 
HETATM    8  C   UNK N   1      30.479  17.168   8.162  0.00  0.00     0.149 A 
HETATM    9  C   UNK N   1      28.221  18.678   8.526  0.00  0.00     0.049 A 
HETATM   10  C   UNK N   1      31.554  16.428   7.743  0.00  0.00     0.107 A 
HETATM   11  C   UNK N   1      28.977  18.189   9.624  0.00  0.00     0.092 A 
HETATM   12  C   UNK N   1      31.494  16.468   6.348  0.00  0.00     0.134 A 
HETATM   13  C   UNK N   1      32.541  15.763   8.579  0.00  0.00     0.105 C 
ENDROOT
BRANCH   7  14
HETATM   14  C   UNK N   1      27.862  18.774   5.981  0.00  0.00    -0.005 A 
HETATM   15  C   UNK N   1      26.953  17.843   5.551  0.00  0.00     0.043 A 
HETATM   16  C   UNK N   1      26.137  17.958   4.447  0.00  0.00     0.038 A 
HETATM   17  C   UNK N   1      26.231  19.130   3.677  0.00  0.00     0.030 A 
HETATM   18  C   UNK N   1      27.115  20.156   4.097  0.00  0.00     0.003 A 
HETATM   19  C   UNK N   1      27.927  19.989   5.257  0.00  0.00     0.014 A 
BRANCH  16  20
HETATM   20  N   UNK N   1      25.194  16.892   4.228  0.00  0.00    -0.319 N 
HETATM   21  C   UNK N   1      25.235  16.022   3.169  0.00  0.00     0.220 C 
HETATM   22  O   UNK N   1      26.150  16.062   2.364  0.00  0.00    -0.273 OA
HETATM   23  C   UNK N   1      24.170  14.961   3.001  0.00  0.00     0.117 C 
BRANCH  20  24
HETATM   24  C   UNK N   1      24.135  16.748   5.216  0.00  0.00     0.128 C 
HETATM   25  C   UNK N   1      23.168  17.913   5.132  0.00  0.00     0.027 C 
ENDBRANCH  20  24
ENDBRANCH  16  20
ENDBRANCH   7  14
TORSDOF 3
ENDMDL
MODEL 9
REMARK VINA RESULT:      -6.5     10.215     13.803
REMARK  3 active torsions:
REMARK  status: ('A' for Active; 'I' for Inactive)
REMARK    1  A    between atoms: N_2  and  C_10 
REMARK    2  A    between atoms: N_2  and  C_13 
REMARK       I    between atoms: N_2  and  C_19 
REMARK    3  A    between atoms: C_9  and  C_11 
ROOT
HETATM    1  N   UNK N   1      27.526  18.274   5.637  0.00  0.00    -0.238 N 
HETATM    2  N   UNK N   1      27.073  19.026   6.634  0.00  0.00    -0.302 N 
ATOM      3  HN  UNK N   1      26.191  19.538   6.640  1.00  0.00     0.186 HD
HETATM    4  N   UNK N   1      29.403  16.939   5.178  0.00  0.00    -0.349 N 
ATOM      5  HN  UNK N   1      30.302  16.555   5.470  1.00  0.00     0.166 HD
HETATM    6  N   UNK N   1      31.175  17.584   8.640  0.00  0.00    -0.191 NA
HETATM    7  C   UNK N   1      26.947  18.049   4.401  0.00  0.00     0.070 A 
HETATM    8  C   UNK N   1      28.703  17.750   5.994  0.00  0.00     0.149 A 
HETATM    9  C   UNK N   1      27.646  17.192   3.528  0.00  0.00     0.049 A 
HETATM   10  C   UNK N   1      29.040  18.178   7.252  0.00  0.00     0.107 A 
HETATM   11  C   UNK N   1      28.885  16.642   3.951  0.00  0.00     0.092 A 
HETATM   12  C   UNK N   1      27.980  18.998   7.647  0.00  0.00     0.134 A 
HETATM   13  C   UNK N   1      30.236  17.834   8.004  0.00  0.00     0.105 C 
ENDROOT
BRANCH   7  14
HETATM   14  C   UNK N   1      25.662  18.755   4.013  0.00  0.00    -0.005 A 
HETATM   15  C   UNK N   1      24.517  18.050   4.279  0.00  0.00     0.043 A 
HETATM   16  C   UNK N   1      23.231  18.461   4.004  0.00  0.00     0.038 A 
HETATM   17  C   UNK N   1      23.056  19.715   3.393  0.00  0.00     0.030 A 
HETATM   18  C   UNK N   1      24.196  20.518   3.139  0.00  0.00     0.003 A 
HETATM   19  C   UNK N   1      25.505  20.048   3.457  0.00  0.00     0.014 A 
BRANCH  16  20
HETATM   20  N   UNK N   1      22.169  17.596   4.446  0.00  0.00    -0.319 N 
HETATM   21  C   UNK N   1      21.559  17.675   5.671  0.00  0.00     0.220 C 
HETATM   22  O   UNK N   1      21.847  18.565   6.454  0.00  0.00    -0.273 OA
HETATM   23  C   UNK N   1      20.480  16.690   6.060  0.00  0.00     0.117 C 
BRANCH  20  24
HETATM   24  C   UNK N   1      21.728  16.576   3.505  0.00  0.00     0.128 C 
HETATM   25  C   UNK N   1      20.689  17.143   2.557  0.00  0.00     0.027 C 
ENDBRANCH  20  24
ENDBRANCH  16  20
ENDBRANCH   7  14
TORSDOF 3
ENDMDL
