REMARK  8 active torsions:
REMARK  status: ('A' for Active; 'I' for Inactive)
REMARK    1  A    between atoms: O_1  and  C_41 
REMARK    2  A    between atoms: N_3  and  C_12 
REMARK    3  A    between atoms: C_10  and  C_13 
REMARK    4  A    between atoms: C_12  and  C_19 
REMARK    5  A    between atoms: C_13  and  C_20 
REMARK    6  A    between atoms: C_14  and  C_18 
REMARK    7  A    between atoms: C_28  and  C_33 
REMARK    8  A    between atoms: C_36  and  C_41 
ROOT
HETATM    1  N   UNK N   1       7.276  -1.811   1.024  0.00  0.00    -0.330 N 
HETATM    2  N   UNK N   1       7.355  -3.905   0.198  0.00  0.00    -0.344 N 
ATOM      3  HN  UNK N   1       7.669  -4.852  -0.017  1.00  0.00     0.167 HD
HETATM    4  C   UNK N   1       6.205  -2.019   0.274  0.00  0.00     0.064 A 
HETATM    5  C   UNK N   1       7.978  -2.966   0.968  0.00  0.00     0.084 A 
HETATM    6  C   UNK N   1       6.226  -3.285  -0.211  0.00  0.00     0.066 A 
HETATM    7  C   UNK N   1       4.063  -1.598  -0.650  0.00  0.00     0.011 A 
HETATM    8  C   UNK N   1       5.176  -1.146   0.053  0.00  0.00     0.047 A 
HETATM    9  C   UNK N   1       5.154  -3.783  -0.961  0.00  0.00    -0.032 A 
HETATM   10  C   UNK N   1       4.029  -2.935  -1.144  0.00  0.00     0.024 A 
HETATM   11  C   UNK N   1       5.152  -5.179  -1.479  0.00  0.00     0.050 C 
ENDROOT
BRANCH   1  12
HETATM   12  C   UNK N   1       7.556  -0.589   1.768  0.00  0.00     0.169 C 
BRANCH  12  13
HETATM   13  C   UNK N   1       8.794   0.016   1.252  0.00  0.00    -0.040 A 
HETATM   14  C   UNK N   1       8.855   0.528  -0.052  0.00  0.00     0.010 A 
HETATM   15  C   UNK N   1      10.070   1.003  -0.549  0.00  0.00     0.013 A 
HETATM   16  C   UNK N   1      11.217   0.938   0.255  0.00  0.00    -0.025 A 
HETATM   17  C   UNK N   1      11.141   0.427   1.551  0.00  0.00     0.013 A 
HETATM   18  C   UNK N   1       9.930  -0.022   2.052  0.00  0.00     0.010 A 
BRANCH  16  19
HETATM   19  C   UNK N   1      12.517   1.369  -0.242  0.00  0.00    -0.009 A 
HETATM   20  C   UNK N   1      12.896   2.735  -0.305  0.00  0.00     0.048 A 
HETATM   21  C   UNK N   1      14.199   3.050  -0.721  0.00  0.00     0.019 A 
HETATM   22  C   UNK N   1      15.104   2.045  -1.071  0.00  0.00     0.001 A 
HETATM   23  C   UNK N   1      14.725   0.706  -1.000  0.00  0.00     0.001 A 
HETATM   24  C   UNK N   1      13.442   0.371  -0.576  0.00  0.00     0.013 A 
BRANCH  20  25
HETATM   25  C   UNK N   1      12.000   3.856   0.099  0.00  0.00     0.177 C 
HETATM   26  O   UNK N   1      10.848   3.654   0.449  0.00  0.00    -0.646 OA
BRANCH  25  27
HETATM   27  O   UNK N   1      12.469   5.119   0.102  0.00  0.00    -0.773 OA
HETATM   28  H   UNK N   1      13.393   5.275   0.103  0.00  0.00     0.167 HD
ENDBRANCH  25  27
ENDBRANCH  20  25
ENDBRANCH  16  19
ENDBRANCH  12  13
ENDBRANCH   1  12
BRANCH   5  29
HETATM   29  C   UNK N   1       9.248  -3.195   1.721  0.00  0.00     0.076 C 
BRANCH  29  30
HETATM   30  C   UNK N   1      10.441  -3.192   0.787  0.00  0.00     0.003 C 
HETATM   31  C   UNK N   1      10.853  -4.612   0.475  0.00  0.00     0.005 C 
ENDBRANCH  29  30
ENDBRANCH   5  29
BRANCH   7  32
HETATM   32  C   UNK N   1       2.920  -0.690  -0.591  0.00  0.00     0.118 A 
HETATM   33  N   UNK N   1       1.641  -1.060  -0.332  0.00  0.00    -0.335 N 
HETATM   34  C   UNK N   1       0.999   0.088  -0.066  0.00  0.00     0.062 A 
HETATM   35  C   UNK N   1       1.110  -2.409  -0.190  0.00  0.00     0.158 C 
HETATM   36  C   UNK N   1       1.874   1.125  -0.199  0.00  0.00     0.060 A 
HETATM   37  C   UNK N   1      -0.309   0.285   0.368  0.00  0.00     0.032 A 
HETATM   38  N   UNK N   1       3.087   0.658  -0.515  0.00  0.00    -0.340 N 
HETATM   39  C   UNK N   1       1.520   2.442   0.062  0.00  0.00     0.032 A 
ATOM     40  HN  UNK N   1       3.943   1.192  -0.666  1.00  0.00     0.167 HD
HETATM   41  C   UNK N   1       0.202   2.683   0.490  0.00  0.00     0.002 A 
HETATM   42  C   UNK N   1      -0.706   1.608   0.651  0.00  0.00     0.002 A 
ENDBRANCH   7  32
TORSDOF 8
