MODEL 1
REMARK VINA RESULT:      -8.9      0.000      0.000
REMARK  8 active torsions:
REMARK  status: ('A' for Active; 'I' for Inactive)
REMARK    1  A    between atoms: O_1  and  C_41 
REMARK    2  A    between atoms: N_3  and  C_12 
REMARK    3  A    between atoms: C_10  and  C_13 
REMARK    4  A    between atoms: C_12  and  C_19 
REMARK    5  A    between atoms: C_13  and  C_20 
REMARK    6  A    between atoms: C_14  and  C_18 
REMARK    7  A    between atoms: C_28  and  C_33 
REMARK    8  A    between atoms: C_36  and  C_41 
ROOT
HETATM    1  N   UNK N   1      26.170  15.400   4.058  0.00  0.00    -0.330 N 
HETATM    2  N   UNK N   1      25.187  17.369   3.575  0.00  0.00    -0.344 N 
ATOM      3  HN  UNK N   1      24.499  18.064   3.284  1.00  0.00     0.167 HD
HETATM    4  C   UNK N   1      27.043  16.377   4.251  0.00  0.00     0.064 A 
HETATM    5  C   UNK N   1      25.039  16.014   3.639  0.00  0.00     0.084 A 
HETATM    6  C   UNK N   1      26.458  17.571   3.987  0.00  0.00     0.066 A 
HETATM    7  C   UNK N   1      29.045  17.411   4.988  0.00  0.00     0.011 A 
HETATM    8  C   UNK N   1      28.324  16.252   4.712  0.00  0.00     0.047 A 
HETATM    9  C   UNK N   1      27.147  18.770   4.205  0.00  0.00    -0.032 A 
HETATM   10  C   UNK N   1      28.452  18.688   4.761  0.00  0.00     0.024 A 
HETATM   11  C   UNK N   1      26.509  20.090   3.944  0.00  0.00     0.050 C 
ENDROOT
BRANCH   1  12
HETATM   12  C   UNK N   1      26.421  13.987   4.311  0.00  0.00     0.169 C 
BRANCH  12  13
HETATM   13  C   UNK N   1      25.797  13.608   5.589  0.00  0.00    -0.040 A 
HETATM   14  C   UNK N   1      25.051  12.426   5.702  0.00  0.00     0.010 A 
HETATM   15  C   UNK N   1      24.387  12.144   6.897  0.00  0.00     0.013 A 
HETATM   16  C   UNK N   1      24.456  13.059   7.958  0.00  0.00    -0.025 A 
HETATM   17  C   UNK N   1      25.203  14.230   7.831  0.00  0.00     0.013 A 
HETATM   18  C   UNK N   1      25.881  14.498   6.653  0.00  0.00     0.010 A 
BRANCH  16  19
HETATM   19  C   UNK N   1      23.732  12.833   9.202  0.00  0.00    -0.009 A 
HETATM   20  C   UNK N   1      22.346  13.103   9.340  0.00  0.00     0.048 A 
HETATM   21  C   UNK N   1      21.717  12.777  10.551  0.00  0.00     0.019 A 
HETATM   22  C   UNK N   1      22.437  12.204  11.603  0.00  0.00     0.001 A 
HETATM   23  C   UNK N   1      23.796  11.937  11.457  0.00  0.00     0.001 A 
HETATM   24  C   UNK N   1      24.437  12.239  10.258  0.00  0.00     0.013 A 
BRANCH  20  25
HETATM   25  C   UNK N   1      21.506  13.666   8.244  0.00  0.00     0.177 C 
HETATM   26  O   UNK N   1      20.710  12.972   7.632  0.00  0.00    -0.646 OA
BRANCH  25  27
HETATM   27  O   UNK N   1      21.604  14.973   7.931  0.00  0.00    -0.773 OA
HETATM   28  H   UNK N   1      22.425  15.416   8.022  0.00  0.00     0.167 HD
ENDBRANCH  25  27
ENDBRANCH  20  25
ENDBRANCH  16  19
ENDBRANCH  12  13
ENDBRANCH   1  12
BRANCH   5  29
HETATM   29  C   UNK N   1      23.766  15.286   3.350  0.00  0.00     0.076 C 
BRANCH  29  30
HETATM   30  C   UNK N   1      22.817  15.365   4.528  0.00  0.00     0.003 C 
HETATM   31  C   UNK N   1      21.926  14.144   4.553  0.00  0.00     0.005 C 
ENDBRANCH  29  30
ENDBRANCH   5  29
BRANCH   7  32
HETATM   32  C   UNK N   1      30.281  17.173   5.728  0.00  0.00     0.118 A 
HETATM   33  N   UNK N   1      31.523  17.137   5.183  0.00  0.00    -0.335 N 
HETATM   34  C   UNK N   1      32.359  17.211   6.230  0.00  0.00     0.062 A 
HETATM   35  C   UNK N   1      31.885  17.192   3.773  0.00  0.00     0.158 C 
HETATM   36  C   UNK N   1      31.627  17.255   7.379  0.00  0.00     0.060 A 
HETATM   37  C   UNK N   1      33.747  17.321   6.243  0.00  0.00     0.032 A 
HETATM   38  N   UNK N   1      30.321  17.246   7.086  0.00  0.00    -0.340 N 
HETATM   39  C   UNK N   1      32.207  17.386   8.634  0.00  0.00     0.032 A 
ATOM     40  HN  UNK N   1      29.535  17.283   7.734  1.00  0.00     0.167 HD
HETATM   41  C   UNK N   1      33.609  17.486   8.688  0.00  0.00     0.002 A 
HETATM   42  C   UNK N   1      34.375  17.463   7.497  0.00  0.00     0.002 A 
ENDBRANCH   7  32
TORSDOF 8
ENDMDL
MODEL 2
REMARK VINA RESULT:      -8.4      6.846     11.330
REMARK  8 active torsions:
REMARK  status: ('A' for Active; 'I' for Inactive)
REMARK    1  A    between atoms: O_1  and  C_41 
REMARK    2  A    between atoms: N_3  and  C_12 
REMARK    3  A    between atoms: C_10  and  C_13 
REMARK    4  A    between atoms: C_12  and  C_19 
REMARK    5  A    between atoms: C_13  and  C_20 
REMARK    6  A    between atoms: C_14  and  C_18 
REMARK    7  A    between atoms: C_28  and  C_33 
REMARK    8  A    between atoms: C_36  and  C_41 
ROOT
HETATM    1  N   UNK N   1      35.557  13.976  10.300  0.00  0.00    -0.330 N 
HETATM    2  N   UNK N   1      36.389  12.190   9.208  0.00  0.00    -0.344 N 
ATOM      3  HN  UNK N   1      36.790  11.599   8.479  1.00  0.00     0.167 HD
HETATM    4  C   UNK N   1      35.508  12.921  11.099  0.00  0.00     0.064 A 
HETATM    5  C   UNK N   1      36.090  13.521   9.143  0.00  0.00     0.084 A 
HETATM    6  C   UNK N   1      36.029  11.842  10.463  0.00  0.00     0.066 A 
HETATM    7  C   UNK N   1      35.235  11.716  13.122  0.00  0.00     0.011 A 
HETATM    8  C   UNK N   1      35.075  12.893  12.395  0.00  0.00     0.047 A 
HETATM    9  C   UNK N   1      36.177  10.620  11.129  0.00  0.00    -0.032 A 
HETATM   10  C   UNK N   1      35.814  10.571  12.502  0.00  0.00     0.024 A 
HETATM   11  C   UNK N   1      36.770   9.434  10.452  0.00  0.00     0.050 C 
ENDROOT
BRANCH   1  12
HETATM   12  C   UNK N   1      35.151  15.327  10.668  0.00  0.00     0.169 C 
BRANCH  12  13
HETATM   13  C   UNK N   1      34.097  15.780   9.747  0.00  0.00    -0.040 A 
HETATM   14  C   UNK N   1      34.138  17.063   9.182  0.00  0.00     0.010 A 
HETATM   15  C   UNK N   1      33.074  17.503   8.394  0.00  0.00     0.013 A 
HETATM   16  C   UNK N   1      31.967  16.665   8.198  0.00  0.00    -0.025 A 
HETATM   17  C   UNK N   1      31.940  15.390   8.765  0.00  0.00     0.013 A 
HETATM   18  C   UNK N   1      33.008  14.945   9.528  0.00  0.00     0.010 A 
BRANCH  16  19
HETATM   19  C   UNK N   1      30.809  17.103   7.431  0.00  0.00    -0.009 A 
HETATM   20  C   UNK N   1      29.647  17.642   8.042  0.00  0.00     0.048 A 
HETATM   21  C   UNK N   1      28.614  18.114   7.217  0.00  0.00     0.019 A 
HETATM   22  C   UNK N   1      28.721  18.052   5.825  0.00  0.00     0.001 A 
HETATM   23  C   UNK N   1      29.869  17.527   5.234  0.00  0.00     0.001 A 
HETATM   24  C   UNK N   1      30.911  17.067   6.034  0.00  0.00     0.013 A 
BRANCH  20  25
HETATM   25  C   UNK N   1      29.485  17.783   9.517  0.00  0.00     0.177 C 
HETATM   26  O   UNK N   1      28.958  16.908  10.185  0.00  0.00    -0.646 OA
BRANCH  25  27
HETATM   27  O   UNK N   1      29.946  18.887  10.137  0.00  0.00    -0.773 OA
HETATM   28  H   UNK N   1      30.841  18.931  10.409  0.00  0.00     0.167 HD
ENDBRANCH  25  27
ENDBRANCH  20  25
ENDBRANCH  16  19
ENDBRANCH  12  13
ENDBRANCH   1  12
BRANCH   5  29
HETATM   29  C   UNK N   1      36.377  14.397   7.968  0.00  0.00     0.076 C 
BRANCH  29  30
HETATM   30  C   UNK N   1      35.482  14.044   6.797  0.00  0.00     0.003 C 
HETATM   31  C   UNK N   1      35.054  15.304   6.079  0.00  0.00     0.005 C 
ENDBRANCH  29  30
ENDBRANCH   5  29
BRANCH   7  32
HETATM   32  C   UNK N   1      35.001  11.873  14.556  0.00  0.00     0.118 A 
HETATM   33  N   UNK N   1      35.037  10.869  15.467  0.00  0.00    -0.335 N 
HETATM   34  C   UNK N   1      35.083  11.488  16.657  0.00  0.00     0.062 A 
HETATM   35  C   UNK N   1      35.180   9.441  15.221  0.00  0.00     0.158 C 
HETATM   36  C   UNK N   1      35.040  12.836  16.457  0.00  0.00     0.060 A 
HETATM   37  C   UNK N   1      35.240  10.942  17.928  0.00  0.00     0.032 A 
HETATM   38  N   UNK N   1      35.002  13.099  15.146  0.00  0.00    -0.340 N 
HETATM   39  C   UNK N   1      35.124  13.751  17.498  0.00  0.00     0.032 A 
ATOM     40  HN  UNK N   1      34.977  14.012  14.692  1.00  0.00     0.167 HD
HETATM   41  C   UNK N   1      35.269  13.237  18.799  0.00  0.00     0.002 A 
HETATM   42  C   UNK N   1      35.336  11.838  19.012  0.00  0.00     0.002 A 
ENDBRANCH   7  32
TORSDOF 8
ENDMDL
MODEL 3
REMARK VINA RESULT:      -8.3      1.417      2.138
REMARK  8 active torsions:
REMARK  status: ('A' for Active; 'I' for Inactive)
REMARK    1  A    between atoms: O_1  and  C_41 
REMARK    2  A    between atoms: N_3  and  C_12 
REMARK    3  A    between atoms: C_10  and  C_13 
REMARK    4  A    between atoms: C_12  and  C_19 
REMARK    5  A    between atoms: C_13  and  C_20 
REMARK    6  A    between atoms: C_14  and  C_18 
REMARK    7  A    between atoms: C_28  and  C_33 
REMARK    8  A    between atoms: C_36  and  C_41 
ROOT
HETATM    1  N   UNK N   1      25.301  16.734   4.473  0.00  0.00    -0.330 N 
HETATM    2  N   UNK N   1      24.576  18.832   4.850  0.00  0.00    -0.344 N 
ATOM      3  HN  UNK N   1      23.964  19.634   5.004  1.00  0.00     0.167 HD
HETATM    4  C   UNK N   1      26.345  17.546   4.533  0.00  0.00     0.064 A 
HETATM    5  C   UNK N   1      24.222  17.528   4.662  0.00  0.00     0.084 A 
HETATM    6  C   UNK N   1      25.925  18.811   4.784  0.00  0.00     0.066 A 
HETATM    7  C   UNK N   1      28.627  18.174   4.667  0.00  0.00     0.011 A 
HETATM    8  C   UNK N   1      27.663  17.197   4.434  0.00  0.00     0.047 A 
HETATM    9  C   UNK N   1      26.847  19.845   4.985  0.00  0.00    -0.032 A 
HETATM   10  C   UNK N   1      28.227  19.508   4.972  0.00  0.00     0.024 A 
HETATM   11  C   UNK N   1      26.402  21.233   5.286  0.00  0.00     0.050 C 
ENDROOT
BRANCH   1  12
HETATM   12  C   UNK N   1      25.371  15.289   4.291  0.00  0.00     0.169 C 
BRANCH  12  13
HETATM   13  C   UNK N   1      24.975  14.626   5.544  0.00  0.00    -0.040 A 
HETATM   14  C   UNK N   1      23.959  13.660   5.556  0.00  0.00     0.010 A 
HETATM   15  C   UNK N   1      23.535  13.122   6.773  0.00  0.00     0.013 A 
HETATM   16  C   UNK N   1      24.115  13.575   7.967  0.00  0.00    -0.025 A 
HETATM   17  C   UNK N   1      25.126  14.536   7.939  0.00  0.00     0.013 A 
HETATM   18  C   UNK N   1      25.563  15.051   6.729  0.00  0.00     0.010 A 
BRANCH  16  19
HETATM   19  C   UNK N   1      23.665  13.084   9.262  0.00  0.00    -0.009 A 
HETATM   20  C   UNK N   1      22.329  13.238   9.716  0.00  0.00     0.048 A 
HETATM   21  C   UNK N   1      21.967  12.661  10.942  0.00  0.00     0.019 A 
HETATM   22  C   UNK N   1      22.899  11.953  11.706  0.00  0.00     0.001 A 
HETATM   23  C   UNK N   1      24.207  11.801  11.250  0.00  0.00     0.001 A 
HETATM   24  C   UNK N   1      24.583  12.354  10.029  0.00  0.00     0.013 A 
BRANCH  20  25
HETATM   25  C   UNK N   1      21.271  13.937   8.932  0.00  0.00     0.177 C 
HETATM   26  O   UNK N   1      20.478  13.318   8.241  0.00  0.00    -0.646 OA
BRANCH  25  27
HETATM   27  O   UNK N   1      21.167  15.279   8.998  0.00  0.00    -0.773 OA
HETATM   28  H   UNK N   1      20.823  15.758   8.269  0.00  0.00     0.167 HD
ENDBRANCH  25  27
ENDBRANCH  20  25
ENDBRANCH  16  19
ENDBRANCH  12  13
ENDBRANCH   1  12
BRANCH   5  29
HETATM   29  C   UNK N   1      22.821  17.012   4.723  0.00  0.00     0.076 C 
BRANCH  29  30
HETATM   30  C   UNK N   1      22.311  16.995   6.149  0.00  0.00     0.003 C 
HETATM   31  C   UNK N   1      21.326  18.122   6.356  0.00  0.00     0.005 C 
ENDBRANCH  29  30
ENDBRANCH   5  29
BRANCH   7  32
HETATM   32  C   UNK N   1      29.981  17.644   4.810  0.00  0.00     0.118 A 
HETATM   33  N   UNK N   1      30.479  17.068   5.933  0.00  0.00    -0.335 N 
HETATM   34  C   UNK N   1      31.607  16.459   5.534  0.00  0.00     0.062 A 
HETATM   35  C   UNK N   1      29.851  16.969   7.243  0.00  0.00     0.158 C 
HETATM   36  C   UNK N   1      31.792  16.699   4.205  0.00  0.00     0.060 A 
HETATM   37  C   UNK N   1      32.460  15.628   6.254  0.00  0.00     0.032 A 
HETATM   38  N   UNK N   1      30.777  17.428   3.729  0.00  0.00    -0.340 N 
HETATM   39  C   UNK N   1      32.850  16.157   3.487  0.00  0.00     0.032 A 
ATOM     40  HN  UNK N   1      30.634  17.751   2.772  1.00  0.00     0.167 HD
HETATM   41  C   UNK N   1      33.742  15.322   4.183  0.00  0.00     0.002 A 
HETATM   42  C   UNK N   1      33.543  15.052   5.559  0.00  0.00     0.002 A 
ENDBRANCH   7  32
TORSDOF 8
ENDMDL
MODEL 4
REMARK VINA RESULT:      -8.2      7.743     11.874
REMARK  8 active torsions:
REMARK  status: ('A' for Active; 'I' for Inactive)
REMARK    1  A    between atoms: O_1  and  C_41 
REMARK    2  A    between atoms: N_3  and  C_12 
REMARK    3  A    between atoms: C_10  and  C_13 
REMARK    4  A    between atoms: C_12  and  C_19 
REMARK    5  A    between atoms: C_13  and  C_20 
REMARK    6  A    between atoms: C_14  and  C_18 
REMARK    7  A    between atoms: C_28  and  C_33 
REMARK    8  A    between atoms: C_36  and  C_41 
ROOT
HETATM    1  N   UNK N   1      35.879  14.079  10.688  0.00  0.00    -0.330 N 
HETATM    2  N   UNK N   1      36.101  12.300   9.325  0.00  0.00    -0.344 N 
ATOM      3  HN  UNK N   1      36.432  11.423   8.920  1.00  0.00     0.167 HD
HETATM    4  C   UNK N   1      35.023  14.195   9.685  0.00  0.00     0.064 A 
HETATM    5  C   UNK N   1      36.540  12.921  10.458  0.00  0.00     0.084 A 
HETATM    6  C   UNK N   1      35.128  13.118   8.868  0.00  0.00     0.066 A 
HETATM    7  C   UNK N   1      33.191  15.067   8.459  0.00  0.00     0.011 A 
HETATM    8  C   UNK N   1      34.107  15.193   9.500  0.00  0.00     0.047 A 
HETATM    9  C   UNK N   1      34.262  12.957   7.780  0.00  0.00    -0.032 A 
HETATM   10  C   UNK N   1      33.243  13.930   7.600  0.00  0.00     0.024 A 
HETATM   11  C   UNK N   1      34.350  11.767   6.889  0.00  0.00     0.050 C 
ENDROOT
BRANCH   1  12
HETATM   12  C   UNK N   1      36.000  15.012  11.801  0.00  0.00     0.169 C 
BRANCH  12  13
HETATM   13  C   UNK N   1      35.902  14.268  13.067  0.00  0.00    -0.040 A 
HETATM   14  C   UNK N   1      34.901  13.305  13.259  0.00  0.00     0.010 A 
HETATM   15  C   UNK N   1      34.770  12.688  14.505  0.00  0.00     0.013 A 
HETATM   16  C   UNK N   1      35.625  13.058  15.552  0.00  0.00    -0.025 A 
HETATM   17  C   UNK N   1      36.618  14.017  15.345  0.00  0.00     0.013 A 
HETATM   18  C   UNK N   1      36.763  14.611  14.102  0.00  0.00     0.010 A 
BRANCH  16  19
HETATM   19  C   UNK N   1      35.488  12.483  16.883  0.00  0.00    -0.009 A 
HETATM   20  C   UNK N   1      35.784  11.123  17.162  0.00  0.00     0.048 A 
HETATM   21  C   UNK N   1      35.700  10.678  18.490  0.00  0.00     0.019 A 
HETATM   22  C   UNK N   1      35.330  11.549  19.518  0.00  0.00     0.001 A 
HETATM   23  C   UNK N   1      35.047  12.884  19.236  0.00  0.00     0.001 A 
HETATM   24  C   UNK N   1      35.138  13.350  17.927  0.00  0.00     0.013 A 
BRANCH  20  25
HETATM   25  C   UNK N   1      36.232  10.151  16.125  0.00  0.00     0.177 C 
HETATM   26  O   UNK N   1      37.414  10.008  15.856  0.00  0.00    -0.646 OA
BRANCH  25  27
HETATM   27  O   UNK N   1      35.323   9.394  15.480  0.00  0.00    -0.773 OA
HETATM   28  H   UNK N   1      34.632   8.981  15.961  0.00  0.00     0.167 HD
ENDBRANCH  25  27
ENDBRANCH  20  25
ENDBRANCH  16  19
ENDBRANCH  12  13
ENDBRANCH   1  12
BRANCH   5  29
HETATM   29  C   UNK N   1      37.576  12.367  11.382  0.00  0.00     0.076 C 
BRANCH  29  30
HETATM   30  C   UNK N   1      37.645  10.857  11.276  0.00  0.00     0.003 C 
HETATM   31  C   UNK N   1      37.064  10.228  12.521  0.00  0.00     0.005 C 
ENDBRANCH  29  30
ENDBRANCH   5  29
BRANCH   7  32
HETATM   32  C   UNK N   1      32.096  16.032   8.517  0.00  0.00     0.118 A 
HETATM   33  N   UNK N   1      31.585  16.699   7.453  0.00  0.00    -0.335 N 
HETATM   34  C   UNK N   1      30.428  17.216   7.895  0.00  0.00     0.062 A 
HETATM   35  C   UNK N   1      32.075  16.708   6.081  0.00  0.00     0.158 C 
HETATM   36  C   UNK N   1      30.273  16.892   9.210  0.00  0.00     0.060 A 
HETATM   37  C   UNK N   1      29.444  17.903   7.190  0.00  0.00     0.032 A 
HETATM   38  N   UNK N   1      31.301  16.138   9.616  0.00  0.00    -0.340 N 
HETATM   39  C   UNK N   1      29.144  17.241   9.940  0.00  0.00     0.032 A 
ATOM     40  HN  UNK N   1      31.455  15.736  10.541  1.00  0.00     0.167 HD
HETATM   41  C   UNK N   1      28.133  17.948   9.265  0.00  0.00     0.002 A 
HETATM   42  C   UNK N   1      28.279  18.270   7.893  0.00  0.00     0.002 A 
ENDBRANCH   7  32
TORSDOF 8
ENDMDL
MODEL 5
REMARK VINA RESULT:      -7.8      9.238     13.036
REMARK  8 active torsions:
REMARK  status: ('A' for Active; 'I' for Inactive)
REMARK    1  A    between atoms: O_1  and  C_41 
REMARK    2  A    between atoms: N_3  and  C_12 
REMARK    3  A    between atoms: C_10  and  C_13 
REMARK    4  A    between atoms: C_12  and  C_19 
REMARK    5  A    between atoms: C_13  and  C_20 
REMARK    6  A    between atoms: C_14  and  C_18 
REMARK    7  A    between atoms: C_28  and  C_33 
REMARK    8  A    between atoms: C_36  and  C_41 
ROOT
HETATM    1  N   UNK N   1      36.554  10.077  10.983  0.00  0.00    -0.330 N 
HETATM    2  N   UNK N   1      38.693   9.807  10.332  0.00  0.00    -0.344 N 
ATOM      3  HN  UNK N   1      39.616   9.400  10.179  1.00  0.00     0.167 HD
HETATM    4  C   UNK N   1      36.967  11.187  10.391  0.00  0.00     0.064 A 
HETATM    5  C   UNK N   1      37.616   9.240  10.949  0.00  0.00     0.084 A 
HETATM    6  C   UNK N   1      38.247  11.030   9.971  0.00  0.00     0.066 A 
HETATM    7  C   UNK N   1      36.798  13.327   9.387  0.00  0.00     0.011 A 
HETATM    8  C   UNK N   1      36.231  12.314  10.154  0.00  0.00     0.047 A 
HETATM    9  C   UNK N   1      38.886  12.032   9.231  0.00  0.00    -0.032 A 
HETATM   10  C   UNK N   1      38.128  13.185   8.893  0.00  0.00     0.024 A 
HETATM   11  C   UNK N   1      40.282  11.864   8.742  0.00  0.00     0.050 C 
ENDROOT
BRANCH   1  12
HETATM   12  C   UNK N   1      35.209   9.851  11.498  0.00  0.00     0.169 C 
BRANCH  12  13
HETATM   13  C   UNK N   1      35.153  10.277  12.905  0.00  0.00    -0.040 A 
HETATM   14  C   UNK N   1      33.924  10.423  13.565  0.00  0.00     0.010 A 
HETATM   15  C   UNK N   1      33.897  10.925  14.867  0.00  0.00     0.013 A 
HETATM   16  C   UNK N   1      35.097  11.300  15.487  0.00  0.00    -0.025 A 
HETATM   17  C   UNK N   1      36.313  11.148  14.819  0.00  0.00     0.013 A 
HETATM   18  C   UNK N   1      36.341  10.627  13.536  0.00  0.00     0.010 A 
BRANCH  16  19
HETATM   19  C   UNK N   1      35.112  11.882  16.822  0.00  0.00    -0.009 A 
HETATM   20  C   UNK N   1      35.210  11.094  17.998  0.00  0.00     0.048 A 
HETATM   21  C   UNK N   1      35.299  11.747  19.237  0.00  0.00     0.019 A 
HETATM   22  C   UNK N   1      35.286  13.142  19.316  0.00  0.00     0.001 A 
HETATM   23  C   UNK N   1      35.196  13.908  18.156  0.00  0.00     0.001 A 
HETATM   24  C   UNK N   1      35.121  13.280  16.916  0.00  0.00     0.013 A 
BRANCH  20  25
HETATM   25  C   UNK N   1      35.278   9.604  17.986  0.00  0.00     0.177 C 
HETATM   26  O   UNK N   1      34.275   8.922  18.121  0.00  0.00    -0.646 OA
BRANCH  25  27
HETATM   27  O   UNK N   1      36.463   8.991  17.800  0.00  0.00    -0.773 OA
HETATM   28  H   UNK N   1      37.043   8.863  18.525  0.00  0.00     0.167 HD
ENDBRANCH  25  27
ENDBRANCH  20  25
ENDBRANCH  16  19
ENDBRANCH  12  13
ENDBRANCH   1  12
BRANCH   5  29
HETATM   29  C   UNK N   1      37.577   7.840  11.468  0.00  0.00     0.076 C 
BRANCH  29  30
HETATM   30  C   UNK N   1      38.873   7.484  12.168  0.00  0.00     0.003 C 
HETATM   31  C   UNK N   1      38.995   8.269  13.453  0.00  0.00     0.005 C 
ENDBRANCH  29  30
ENDBRANCH   5  29
BRANCH   7  32
HETATM   32  C   UNK N   1      35.845  14.350   8.963  0.00  0.00     0.118 A 
HETATM   33  N   UNK N   1      35.540  15.472   9.663  0.00  0.00    -0.335 N 
HETATM   34  C   UNK N   1      34.888  16.254   8.789  0.00  0.00     0.062 A 
HETATM   35  C   UNK N   1      35.974  15.836  11.005  0.00  0.00     0.158 C 
HETATM   36  C   UNK N   1      34.778  15.595   7.601  0.00  0.00     0.060 A 
HETATM   37  C   UNK N   1      34.442  17.564   8.943  0.00  0.00     0.032 A 
HETATM   38  N   UNK N   1      35.382  14.404   7.685  0.00  0.00    -0.340 N 
HETATM   39  C   UNK N   1      34.195  16.167   6.478  0.00  0.00     0.032 A 
ATOM     40  HN  UNK N   1      35.474  13.697   6.956  1.00  0.00     0.167 HD
HETATM   41  C   UNK N   1      33.720  17.485   6.598  0.00  0.00     0.002 A 
HETATM   42  C   UNK N   1      33.851  18.184   7.823  0.00  0.00     0.002 A 
ENDBRANCH   7  32
TORSDOF 8
ENDMDL
MODEL 6
REMARK VINA RESULT:      -7.8      3.272      8.440
REMARK  8 active torsions:
REMARK  status: ('A' for Active; 'I' for Inactive)
REMARK    1  A    between atoms: O_1  and  C_41 
REMARK    2  A    between atoms: N_3  and  C_12 
REMARK    3  A    between atoms: C_10  and  C_13 
REMARK    4  A    between atoms: C_12  and  C_19 
REMARK    5  A    between atoms: C_13  and  C_20 
REMARK    6  A    between atoms: C_14  and  C_18 
REMARK    7  A    between atoms: C_28  and  C_33 
REMARK    8  A    between atoms: C_36  and  C_41 
ROOT
HETATM    1  N   UNK N   1      23.330  16.823   4.915  0.00  0.00    -0.330 N 
HETATM    2  N   UNK N   1      21.817  18.130   5.954  0.00  0.00    -0.344 N 
ATOM      3  HN  UNK N   1      21.259  18.939   6.227  1.00  0.00     0.167 HD
HETATM    4  C   UNK N   1      22.698  16.106   5.832  0.00  0.00     0.064 A 
HETATM    5  C   UNK N   1      22.790  18.061   5.000  0.00  0.00     0.084 A 
HETATM    6  C   UNK N   1      21.766  16.873   6.449  0.00  0.00     0.066 A 
HETATM    7  C   UNK N   1      22.014  14.162   7.003  0.00  0.00     0.011 A 
HETATM    8  C   UNK N   1      22.875  14.777   6.099  0.00  0.00     0.047 A 
HETATM    9  C   UNK N   1      20.898  16.321   7.399  0.00  0.00    -0.032 A 
HETATM   10  C   UNK N   1      20.995  14.925   7.645  0.00  0.00     0.024 A 
HETATM   11  C   UNK N   1      19.854  17.145   8.067  0.00  0.00     0.050 C 
ENDROOT
BRANCH   1  12
HETATM   12  C   UNK N   1      24.347  16.314   4.004  0.00  0.00     0.169 C 
BRANCH  12  13
HETATM   13  C   UNK N   1      25.671  16.467   4.627  0.00  0.00    -0.040 A 
HETATM   14  C   UNK N   1      26.231  15.432   5.390  0.00  0.00     0.010 A 
HETATM   15  C   UNK N   1      27.441  15.642   6.053  0.00  0.00     0.013 A 
HETATM   16  C   UNK N   1      28.067  16.894   5.966  0.00  0.00    -0.025 A 
HETATM   17  C   UNK N   1      27.499  17.914   5.203  0.00  0.00     0.013 A 
HETATM   18  C   UNK N   1      26.310  17.697   4.526  0.00  0.00     0.010 A 
BRANCH  16  19
HETATM   19  C   UNK N   1      29.301  17.176   6.687  0.00  0.00    -0.009 A 
HETATM   20  C   UNK N   1      29.315  17.607   8.039  0.00  0.00     0.048 A 
HETATM   21  C   UNK N   1      30.554  17.776   8.676  0.00  0.00     0.019 A 
HETATM   22  C   UNK N   1      31.750  17.531   7.997  0.00  0.00     0.001 A 
HETATM   23  C   UNK N   1      31.727  17.102   6.672  0.00  0.00     0.001 A 
HETATM   24  C   UNK N   1      30.508  16.914   6.026  0.00  0.00     0.013 A 
BRANCH  20  25
HETATM   25  C   UNK N   1      28.079  17.840   8.840  0.00  0.00     0.177 C 
HETATM   26  O   UNK N   1      27.628  16.979   9.578  0.00  0.00    -0.646 OA
BRANCH  25  27
HETATM   27  O   UNK N   1      27.451  19.030   8.770  0.00  0.00    -0.773 OA
HETATM   28  H   UNK N   1      26.934  19.330   9.491  0.00  0.00     0.167 HD
ENDBRANCH  25  27
ENDBRANCH  20  25
ENDBRANCH  16  19
ENDBRANCH  12  13
ENDBRANCH   1  12
BRANCH   5  29
HETATM   29  C   UNK N   1      23.177  19.191   4.101  0.00  0.00     0.076 C 
BRANCH  29  30
HETATM   30  C   UNK N   1      21.965  19.758   3.390  0.00  0.00     0.003 C 
HETATM   31  C   UNK N   1      21.247  18.658   2.642  0.00  0.00     0.005 C 
ENDBRANCH  29  30
ENDBRANCH   5  29
BRANCH   7  32
HETATM   32  C   UNK N   1      22.107  12.704   7.008  0.00  0.00     0.118 A 
HETATM   33  N   UNK N   1      21.355  11.871   6.247  0.00  0.00    -0.335 N 
HETATM   34  C   UNK N   1      21.971  10.682   6.329  0.00  0.00     0.062 A 
HETATM   35  C   UNK N   1      20.234  12.215   5.382  0.00  0.00     0.158 C 
HETATM   36  C   UNK N   1      23.051  10.799   7.152  0.00  0.00     0.060 A 
HETATM   37  C   UNK N   1      21.688   9.496   5.657  0.00  0.00     0.032 A 
HETATM   38  N   UNK N   1      23.162  12.062   7.578  0.00  0.00    -0.340 N 
HETATM   39  C   UNK N   1      23.924   9.747   7.397  0.00  0.00     0.032 A 
ATOM     40  HN  UNK N   1      23.875  12.454   8.193  1.00  0.00     0.167 HD
HETATM   41  C   UNK N   1      23.663   8.528   6.746  0.00  0.00     0.002 A 
HETATM   42  C   UNK N   1      22.555   8.405   5.873  0.00  0.00     0.002 A 
ENDBRANCH   7  32
TORSDOF 8
ENDMDL
MODEL 7
REMARK VINA RESULT:      -7.8      6.573     11.043
REMARK  8 active torsions:
REMARK  status: ('A' for Active; 'I' for Inactive)
REMARK    1  A    between atoms: O_1  and  C_41 
REMARK    2  A    between atoms: N_3  and  C_12 
REMARK    3  A    between atoms: C_10  and  C_13 
REMARK    4  A    between atoms: C_12  and  C_19 
REMARK    5  A    between atoms: C_13  and  C_20 
REMARK    6  A    between atoms: C_14  and  C_18 
REMARK    7  A    between atoms: C_28  and  C_33 
REMARK    8  A    between atoms: C_36  and  C_41 
ROOT
HETATM    1  N   UNK N   1      35.815  14.122   9.532  0.00  0.00    -0.330 N 
HETATM    2  N   UNK N   1      36.229  12.286   8.295  0.00  0.00    -0.344 N 
ATOM      3  HN  UNK N   1      36.408  11.671   7.500  1.00  0.00     0.167 HD
HETATM    4  C   UNK N   1      35.849  13.065  10.328  0.00  0.00     0.064 A 
HETATM    5  C   UNK N   1      36.043  13.638   8.289  0.00  0.00     0.084 A 
HETATM    6  C   UNK N   1      36.122  11.953   9.601  0.00  0.00     0.066 A 
HETATM    7  C   UNK N   1      35.917  11.862  12.369  0.00  0.00     0.011 A 
HETATM    8  C   UNK N   1      35.707  13.057  11.688  0.00  0.00     0.047 A 
HETATM    9  C   UNK N   1      36.302  10.714  10.226  0.00  0.00    -0.032 A 
HETATM   10  C   UNK N   1      36.244  10.678  11.645  0.00  0.00     0.024 A 
HETATM   11  C   UNK N   1      36.627   9.490   9.442  0.00  0.00     0.050 C 
ENDROOT
BRANCH   1  12
HETATM   12  C   UNK N   1      35.621  15.498   9.971  0.00  0.00     0.169 C 
BRANCH  12  13
HETATM   13  C   UNK N   1      34.378  16.021   9.381  0.00  0.00    -0.040 A 
HETATM   14  C   UNK N   1      34.327  17.313   8.839  0.00  0.00     0.010 A 
HETATM   15  C   UNK N   1      33.110  17.819   8.379  0.00  0.00     0.013 A 
HETATM   16  C   UNK N   1      31.952  17.036   8.489  0.00  0.00    -0.025 A 
HETATM   17  C   UNK N   1      32.018  15.751   9.029  0.00  0.00     0.013 A 
HETATM   18  C   UNK N   1      33.230  15.241   9.463  0.00  0.00     0.010 A 
BRANCH  16  19
HETATM   19  C   UNK N   1      30.651  17.544   8.074  0.00  0.00    -0.009 A 
HETATM   20  C   UNK N   1      30.160  17.400   6.750  0.00  0.00     0.048 A 
HETATM   21  C   UNK N   1      28.862  17.849   6.465  0.00  0.00     0.019 A 
HETATM   22  C   UNK N   1      28.068  18.430   7.456  0.00  0.00     0.001 A 
HETATM   23  C   UNK N   1      28.555  18.562   8.755  0.00  0.00     0.001 A 
HETATM   24  C   UNK N   1      29.835  18.110   9.064  0.00  0.00     0.013 A 
BRANCH  20  25
HETATM   25  C   UNK N   1      30.932  16.747   5.655  0.00  0.00     0.177 C 
HETATM   26  O   UNK N   1      31.567  17.404   4.846  0.00  0.00    -0.646 OA
BRANCH  25  27
HETATM   27  O   UNK N   1      30.952  15.403   5.561  0.00  0.00    -0.773 OA
HETATM   28  H   UNK N   1      30.993  14.880   6.337  0.00  0.00     0.167 HD
ENDBRANCH  25  27
ENDBRANCH  20  25
ENDBRANCH  16  19
ENDBRANCH  12  13
ENDBRANCH   1  12
BRANCH   5  29
HETATM   29  C   UNK N   1      36.143  14.501   7.074  0.00  0.00     0.076 C 
BRANCH  29  30
HETATM   30  C   UNK N   1      34.944  14.305   6.169  0.00  0.00     0.003 C 
HETATM   31  C   UNK N   1      34.587  15.612   5.498  0.00  0.00     0.005 C 
ENDBRANCH  29  30
ENDBRANCH   5  29
BRANCH   7  32
HETATM   32  C   UNK N   1      36.015  12.019  13.819  0.00  0.00     0.118 A 
HETATM   33  N   UNK N   1      36.131  13.203  14.470  0.00  0.00    -0.335 N 
HETATM   34  C   UNK N   1      35.874  12.914  15.755  0.00  0.00     0.062 A 
HETATM   35  C   UNK N   1      36.310  14.529  13.893  0.00  0.00     0.158 C 
HETATM   36  C   UNK N   1      35.645  11.575  15.870  0.00  0.00     0.060 A 
HETATM   37  C   UNK N   1      35.751  13.774  16.843  0.00  0.00     0.032 A 
HETATM   38  N   UNK N   1      35.716  10.997  14.666  0.00  0.00    -0.340 N 
HETATM   39  C   UNK N   1      35.300  10.975  17.073  0.00  0.00     0.032 A 
ATOM     40  HN  UNK N   1      35.578  10.013  14.435  1.00  0.00     0.167 HD
HETATM   41  C   UNK N   1      35.178  11.809  18.199  0.00  0.00     0.002 A 
HETATM   42  C   UNK N   1      35.394  13.204  18.082  0.00  0.00     0.002 A 
ENDBRANCH   7  32
TORSDOF 8
ENDMDL
MODEL 8
REMARK VINA RESULT:      -7.7      3.960      9.020
REMARK  8 active torsions:
REMARK  status: ('A' for Active; 'I' for Inactive)
REMARK    1  A    between atoms: O_1  and  C_41 
REMARK    2  A    between atoms: N_3  and  C_12 
REMARK    3  A    between atoms: C_10  and  C_13 
REMARK    4  A    between atoms: C_12  and  C_19 
REMARK    5  A    between atoms: C_13  and  C_20 
REMARK    6  A    between atoms: C_14  and  C_18 
REMARK    7  A    between atoms: C_28  and  C_33 
REMARK    8  A    between atoms: C_36  and  C_41 
ROOT
HETATM    1  N   UNK N   1      28.752  16.764   5.063  0.00  0.00    -0.330 N 
HETATM    2  N   UNK N   1      28.772  18.801   4.101  0.00  0.00    -0.344 N 
ATOM      3  HN  UNK N   1      29.097  19.668   3.673  1.00  0.00     0.167 HD
HETATM    4  C   UNK N   1      27.509  17.212   4.976  0.00  0.00     0.064 A 
HETATM    5  C   UNK N   1      29.519  17.744   4.533  0.00  0.00     0.084 A 
HETATM    6  C   UNK N   1      27.502  18.428   4.376  0.00  0.00     0.066 A 
HETATM    7  C   UNK N   1      25.141  17.129   5.049  0.00  0.00     0.011 A 
HETATM    8  C   UNK N   1      26.371  16.554   5.353  0.00  0.00     0.047 A 
HETATM    9  C   UNK N   1      26.297  19.076   4.082  0.00  0.00    -0.032 A 
HETATM   10  C   UNK N   1      25.090  18.389   4.384  0.00  0.00     0.024 A 
HETATM   11  C   UNK N   1      26.274  20.400   3.401  0.00  0.00     0.050 C 
ENDROOT
BRANCH   1  12
HETATM   12  C   UNK N   1      29.140  15.460   5.586  0.00  0.00     0.169 C 
BRANCH  12  13
HETATM   13  C   UNK N   1      30.335  15.616   6.430  0.00  0.00    -0.040 A 
HETATM   14  C   UNK N   1      31.466  14.812   6.231  0.00  0.00     0.010 A 
HETATM   15  C   UNK N   1      32.545  14.911   7.111  0.00  0.00     0.013 A 
HETATM   16  C   UNK N   1      32.471  15.797   8.196  0.00  0.00    -0.025 A 
HETATM   17  C   UNK N   1      31.340  16.592   8.381  0.00  0.00     0.013 A 
HETATM   18  C   UNK N   1      30.279  16.510   7.494  0.00  0.00     0.010 A 
BRANCH  16  19
HETATM   19  C   UNK N   1      33.549  15.893   9.171  0.00  0.00    -0.009 A 
HETATM   20  C   UNK N   1      34.523  16.924   9.135  0.00  0.00     0.048 A 
HETATM   21  C   UNK N   1      35.475  16.983  10.164  0.00  0.00     0.019 A 
HETATM   22  C   UNK N   1      35.472  16.046  11.201  0.00  0.00     0.001 A 
HETATM   23  C   UNK N   1      34.508  15.040  11.232  0.00  0.00     0.001 A 
HETATM   24  C   UNK N   1      33.545  14.973  10.228  0.00  0.00     0.013 A 
BRANCH  20  25
HETATM   25  C   UNK N   1      34.558  17.985   8.088  0.00  0.00     0.177 C 
HETATM   26  O   UNK N   1      34.589  19.169   8.384  0.00  0.00    -0.646 OA
BRANCH  25  27
HETATM   27  O   UNK N   1      34.577  17.639   6.786  0.00  0.00    -0.773 OA
HETATM   28  H   UNK N   1      33.803  17.734   6.265  0.00  0.00     0.167 HD
ENDBRANCH  25  27
ENDBRANCH  20  25
ENDBRANCH  16  19
ENDBRANCH  12  13
ENDBRANCH   1  12
BRANCH   5  29
HETATM   29  C   UNK N   1      31.002  17.636   4.381  0.00  0.00     0.076 C 
BRANCH  29  30
HETATM   30  C   UNK N   1      31.365  16.884   3.117  0.00  0.00     0.003 C 
HETATM   31  C   UNK N   1      32.859  16.661   3.062  0.00  0.00     0.005 C 
ENDBRANCH  29  30
ENDBRANCH   5  29
BRANCH   7  32
HETATM   32  C   UNK N   1      24.006  16.229   5.241  0.00  0.00     0.118 A 
HETATM   33  N   UNK N   1      23.578  15.308   4.342  0.00  0.00    -0.335 N 
HETATM   34  C   UNK N   1      22.745  14.515   5.033  0.00  0.00     0.062 A 
HETATM   35  C   UNK N   1      24.048  15.102   2.978  0.00  0.00     0.158 C 
HETATM   36  C   UNK N   1      22.653  14.978   6.312  0.00  0.00     0.060 A 
HETATM   37  C   UNK N   1      22.107  13.345   4.630  0.00  0.00     0.032 A 
HETATM   38  N   UNK N   1      23.446  16.044   6.467  0.00  0.00    -0.340 N 
HETATM   39  C   UNK N   1      21.903  14.337   7.289  0.00  0.00     0.032 A 
ATOM     40  HN  UNK N   1      23.595  16.595   7.312  1.00  0.00     0.167 HD
HETATM   41  C   UNK N   1      21.232  13.158   6.916  0.00  0.00     0.002 A 
HETATM   42  C   UNK N   1      21.341  12.659   5.595  0.00  0.00     0.002 A 
ENDBRANCH   7  32
TORSDOF 8
ENDMDL
MODEL 9
REMARK VINA RESULT:      -7.6      4.511      7.827
REMARK  8 active torsions:
REMARK  status: ('A' for Active; 'I' for Inactive)
REMARK    1  A    between atoms: O_1  and  C_41 
REMARK    2  A    between atoms: N_3  and  C_12 
REMARK    3  A    between atoms: C_10  and  C_13 
REMARK    4  A    between atoms: C_12  and  C_19 
REMARK    5  A    between atoms: C_13  and  C_20 
REMARK    6  A    between atoms: C_14  and  C_18 
REMARK    7  A    between atoms: C_28  and  C_33 
REMARK    8  A    between atoms: C_36  and  C_41 
ROOT
HETATM    1  N   UNK N   1      21.921  14.110   8.023  0.00  0.00    -0.330 N 
HETATM    2  N   UNK N   1      20.379  15.070   9.355  0.00  0.00    -0.344 N 
ATOM      3  HN  UNK N   1      19.705  15.221  10.106  1.00  0.00     0.167 HD
HETATM    4  C   UNK N   1      21.634  15.314   7.553  0.00  0.00     0.064 A 
HETATM    5  C   UNK N   1      21.145  13.965   9.122  0.00  0.00     0.084 A 
HETATM    6  C   UNK N   1      20.725  15.915   8.359  0.00  0.00     0.066 A 
HETATM    7  C   UNK N   1      21.870  17.254   6.211  0.00  0.00     0.011 A 
HETATM    8  C   UNK N   1      22.197  15.926   6.467  0.00  0.00     0.047 A 
HETATM    9  C   UNK N   1      20.325  17.236   8.128  0.00  0.00    -0.032 A 
HETATM   10  C   UNK N   1      20.946  17.935   7.058  0.00  0.00     0.024 A 
HETATM   11  C   UNK N   1      19.346  17.917   9.019  0.00  0.00     0.050 C 
ENDROOT
BRANCH   1  12
HETATM   12  C   UNK N   1      22.911  13.201   7.458  0.00  0.00     0.169 C 
BRANCH  12  13
HETATM   13  C   UNK N   1      22.334  12.532   6.282  0.00  0.00    -0.040 A 
HETATM   14  C   UNK N   1      22.795  12.823   4.990  0.00  0.00     0.010 A 
HETATM   15  C   UNK N   1      22.161  12.250   3.887  0.00  0.00     0.013 A 
HETATM   16  C   UNK N   1      21.056  11.410   4.085  0.00  0.00    -0.025 A 
HETATM   17  C   UNK N   1      20.609  11.128   5.376  0.00  0.00     0.013 A 
HETATM   18  C   UNK N   1      21.254  11.678   6.472  0.00  0.00     0.010 A 
BRANCH  16  19
HETATM   19  C   UNK N   1      20.329  10.835   2.962  0.00  0.00    -0.009 A 
HETATM   20  C   UNK N   1      19.116  11.388   2.474  0.00  0.00     0.048 A 
HETATM   21  C   UNK N   1      18.529  10.815   1.335  0.00  0.00     0.019 A 
HETATM   22  C   UNK N   1      19.119   9.721   0.696  0.00  0.00     0.001 A 
HETATM   23  C   UNK N   1      20.313   9.189   1.178  0.00  0.00     0.001 A 
HETATM   24  C   UNK N   1      20.920   9.752   2.298  0.00  0.00     0.013 A 
BRANCH  20  25
HETATM   25  C   UNK N   1      18.457  12.582   3.075  0.00  0.00     0.177 C 
HETATM   26  O   UNK N   1      17.690  12.477   4.019  0.00  0.00    -0.646 OA
BRANCH  25  27
HETATM   27  O   UNK N   1      18.723  13.809   2.587  0.00  0.00    -0.773 OA
HETATM   28  H   UNK N   1      18.020  14.397   2.391  0.00  0.00     0.167 HD
ENDBRANCH  25  27
ENDBRANCH  20  25
ENDBRANCH  16  19
ENDBRANCH  12  13
ENDBRANCH   1  12
BRANCH   5  29
HETATM   29  C   UNK N   1      21.184  12.759  10.004  0.00  0.00     0.076 C 
BRANCH  29  30
HETATM   30  C   UNK N   1      22.512  12.658  10.726  0.00  0.00     0.003 C 
HETATM   31  C   UNK N   1      22.327  11.941  12.044  0.00  0.00     0.005 C 
ENDBRANCH  29  30
ENDBRANCH   5  29
BRANCH   7  32
HETATM   32  C   UNK N   1      22.724  17.889   5.210  0.00  0.00     0.118 A 
HETATM   33  N   UNK N   1      22.301  18.765   4.265  0.00  0.00    -0.335 N 
HETATM   34  C   UNK N   1      23.424  19.323   3.786  0.00  0.00     0.062 A 
HETATM   35  C   UNK N   1      20.932  19.158   3.957  0.00  0.00     0.158 C 
HETATM   36  C   UNK N   1      24.497  18.761   4.412  0.00  0.00     0.060 A 
HETATM   37  C   UNK N   1      23.570  20.364   2.874  0.00  0.00     0.032 A 
HETATM   38  N   UNK N   1      24.080  17.870   5.318  0.00  0.00    -0.340 N 
HETATM   39  C   UNK N   1      25.802  19.167   4.169  0.00  0.00     0.032 A 
ATOM     40  HN  UNK N   1      24.650  17.303   5.946  1.00  0.00     0.167 HD
HETATM   41  C   UNK N   1      25.992  20.209   3.243  0.00  0.00     0.002 A 
HETATM   42  C   UNK N   1      24.880  20.811   2.605  0.00  0.00     0.002 A 
ENDBRANCH   7  32
TORSDOF 8
ENDMDL
