REMARK  0 active torsions:
REMARK  status: ('A' for Active; 'I' for Inactive)
ROOT
HETATM    1 Cl   UNK N   1      -0.625   2.857  -0.319  0.00  0.00    -0.084 Cl
HETATM    2  N   UNK N   1       5.373  -3.439  -0.821  0.00  0.00    -0.421 N 
HETATM    3  N   UNK N   1       7.438   0.378  -0.200  0.00  0.00    -0.365 N 
ATOM      4  HN  UNK N   1       7.346  -0.622  -0.380  1.00  0.00     0.165 HD
HETATM    5  C   UNK N   1       5.029  -1.056   0.450  0.00  0.00    -0.064 C 
HETATM    6  C   UNK N   1       4.967   0.320   0.204  0.00  0.00     0.004 C 
HETATM    7  C   UNK N   1       3.829  -1.969   0.517  0.00  0.00     0.054 C 
HETATM    8  C   UNK N   1       6.334  -1.787   0.702  0.00  0.00     0.054 C 
HETATM    9  C   UNK N   1       3.978  -3.155  -0.452  0.00  0.00     0.118 C 
HETATM   10  C   UNK N   1       6.240  -3.270   0.343  0.00  0.00     0.118 C 
HETATM   11  C   UNK N   1       3.584   1.023   0.035  0.00  0.00    -0.017 A 
HETATM   12  C   UNK N   1       6.308   1.082   0.119  0.00  0.00     0.049 A 
HETATM   13  C   UNK N   1       4.489   3.350  -0.538  0.00  0.00     0.044 C 
HETATM   14  C   UNK N   1       3.390   2.403  -0.300  0.00  0.00    -0.045 A 
HETATM   15  C   UNK N   1       5.348   3.362   0.681  0.00  0.00     0.045 C 
HETATM   16  C   UNK N   1       6.467   2.472   0.354  0.00  0.00    -0.030 A 
HETATM   17  C   UNK N   1       2.403   0.272   0.220  0.00  0.00     0.014 A 
HETATM   18  C   UNK N   1       2.100   2.942  -0.407  0.00  0.00     0.031 A 
HETATM   19  C   UNK N   1       7.735   3.054   0.269  0.00  0.00     0.011 A 
HETATM   20  C   UNK N   1       1.126   0.815   0.105  0.00  0.00     0.024 A 
HETATM   21  C   UNK N   1       0.975   2.156  -0.203  0.00  0.00     0.034 A 
HETATM   22  C   UNK N   1       8.845   2.285  -0.053  0.00  0.00     0.018 A 
HETATM   23  C   UNK N   1       8.674   0.931  -0.291  0.00  0.00     0.088 A 
HETATM   24  H   UNK N   1       5.689  -3.712  -1.752  0.00  0.00     0.153 HD
ENDROOT
TORSDOF 0
