MODEL 1
REMARK VINA RESULT:      -7.3      0.000      0.000
REMARK  0 active torsions:
REMARK  status: ('A' for Active; 'I' for Inactive)
ROOT
HETATM    1 Cl   UNK N   1      24.838  26.641  -5.584  0.00  0.00    -0.084 Cl
HETATM    2  N   UNK N   1      29.914  20.701  -9.433  0.00  0.00    -0.421 N 
HETATM    3  N   UNK N   1      31.345  21.279  -5.330  0.00  0.00    -0.365 N 
ATOM      4  HN  UNK N   1      31.349  20.919  -6.284  1.00  0.00     0.165 HD
HETATM    5  C   UNK N   1      28.962  21.255  -6.943  0.00  0.00    -0.064 C 
HETATM    6  C   UNK N   1      29.082  22.185  -5.904  0.00  0.00     0.004 C 
HETATM    7  C   UNK N   1      27.917  21.315  -8.030  0.00  0.00     0.054 C 
HETATM    8  C   UNK N   1      29.876  20.052  -7.077  0.00  0.00     0.054 C 
HETATM    9  C   UNK N   1      28.563  21.283  -9.426  0.00  0.00     0.118 C 
HETATM   10  C   UNK N   1      29.969  19.560  -8.522  0.00  0.00     0.118 C 
HETATM   11  C   UNK N   1      28.057  23.354  -5.779  0.00  0.00    -0.017 A 
HETATM   12  C   UNK N   1      30.251  21.988  -4.913  0.00  0.00     0.049 A 
HETATM   13  C   UNK N   1      29.179  24.538  -3.804  0.00  0.00     0.044 C 
HETATM   14  C   UNK N   1      28.119  24.413  -4.814  0.00  0.00    -0.045 A 
HETATM   15  C   UNK N   1      29.193  23.280  -3.003  0.00  0.00     0.045 C 
HETATM   16  C   UNK N   1      30.279  22.484  -3.585  0.00  0.00    -0.030 A 
HETATM   17  C   UNK N   1      26.963  23.410  -6.670  0.00  0.00     0.014 A 
HETATM   18  C   UNK N   1      27.131  25.407  -4.773  0.00  0.00     0.031 A 
HETATM   19  C   UNK N   1      31.384  22.227  -2.767  0.00  0.00     0.011 A 
HETATM   20  C   UNK N   1      25.991  24.405  -6.626  0.00  0.00     0.024 A 
HETATM   21  C   UNK N   1      26.072  25.403  -5.670  0.00  0.00     0.034 A 
HETATM   22  C   UNK N   1      32.462  21.496  -3.246  0.00  0.00     0.018 A 
HETATM   23  C   UNK N   1      32.426  21.027  -4.549  0.00  0.00     0.088 A 
HETATM   24  H   UNK N   1      30.696  21.044  -9.990  0.00  0.00     0.153 HD
ENDROOT
TORSDOF 0
ENDMDL
MODEL 2
REMARK VINA RESULT:      -7.2      2.427      5.409
REMARK  0 active torsions:
REMARK  status: ('A' for Active; 'I' for Inactive)
ROOT
HETATM    1 Cl   UNK N   1      26.609  30.536  -3.291  0.00  0.00    -0.084 Cl
HETATM    2  N   UNK N   1      29.687  22.388  -3.195  0.00  0.00    -0.421 N 
HETATM    3  N   UNK N   1      27.008  22.803  -6.640  0.00  0.00    -0.365 N 
ATOM      4  HN  UNK N   1      27.617  22.325  -5.976  1.00  0.00     0.165 HD
HETATM    5  C   UNK N   1      28.906  24.245  -5.027  0.00  0.00    -0.064 C 
HETATM    6  C   UNK N   1      27.768  24.903  -5.505  0.00  0.00     0.004 C 
HETATM    7  C   UNK N   1      29.820  24.785  -3.954  0.00  0.00     0.054 C 
HETATM    8  C   UNK N   1      29.364  22.901  -5.562  0.00  0.00     0.054 C 
HETATM    9  C   UNK N   1      29.985  23.775  -2.805  0.00  0.00     0.118 C 
HETATM   10  C   UNK N   1      30.197  22.129  -4.540  0.00  0.00     0.118 C 
HETATM   11  C   UNK N   1      27.401  26.321  -4.968  0.00  0.00    -0.017 A 
HETATM   12  C   UNK N   1      26.924  24.168  -6.571  0.00  0.00     0.049 A 
HETATM   13  C   UNK N   1      25.188  26.567  -6.235  0.00  0.00     0.044 C 
HETATM   14  C   UNK N   1      26.223  27.061  -5.316  0.00  0.00    -0.045 A 
HETATM   15  C   UNK N   1      25.848  26.253  -7.535  0.00  0.00     0.045 C 
HETATM   16  C   UNK N   1      26.062  24.803  -7.501  0.00  0.00    -0.030 A 
HETATM   17  C   UNK N   1      28.275  26.963  -4.065  0.00  0.00     0.014 A 
HETATM   18  C   UNK N   1      25.998  28.342  -4.791  0.00  0.00     0.031 A 
HETATM   19  C   UNK N   1      25.360  24.038  -8.437  0.00  0.00     0.011 A 
HETATM   20  C   UNK N   1      28.039  28.232  -3.544  0.00  0.00     0.024 A 
HETATM   21  C   UNK N   1      26.900  28.926  -3.914  0.00  0.00     0.034 A 
HETATM   22  C   UNK N   1      25.492  22.656  -8.461  0.00  0.00     0.018 A 
HETATM   23  C   UNK N   1      26.329  22.048  -7.540  0.00  0.00     0.088 A 
HETATM   24  H   UNK N   1      29.196  21.709  -2.614  0.00  0.00     0.153 HD
ENDROOT
TORSDOF 0
ENDMDL
MODEL 3
REMARK VINA RESULT:      -7.1     11.707     13.819
REMARK  0 active torsions:
REMARK  status: ('A' for Active; 'I' for Inactive)
ROOT
HETATM    1 Cl   UNK N   1      26.099  15.739   1.869  0.00  0.00    -0.084 Cl
HETATM    2  N   UNK N   1      28.820  17.179  10.017  0.00  0.00    -0.421 N 
HETATM    3  N   UNK N   1      32.333  17.054   7.399  0.00  0.00    -0.365 N 
ATOM      4  HN  UNK N   1      31.818  17.105   8.278  1.00  0.00     0.165 HD
HETATM    5  C   UNK N   1      29.564  17.831   7.481  0.00  0.00    -0.064 C 
HETATM    6  C   UNK N   1      30.087  17.268   6.312  0.00  0.00     0.004 C 
HETATM    7  C   UNK N   1      28.092  18.016   7.758  0.00  0.00     0.054 C 
HETATM    8  C   UNK N   1      30.439  18.346   8.607  0.00  0.00     0.054 C 
HETATM    9  C   UNK N   1      27.691  17.363   9.093  0.00  0.00     0.118 C 
HETATM   10  C   UNK N   1      29.711  18.336   9.951  0.00  0.00     0.118 C 
HETATM   11  C   UNK N   1      29.132  16.834   5.157  0.00  0.00    -0.017 A 
HETATM   12  C   UNK N   1      31.622  17.112   6.230  0.00  0.00     0.049 A 
HETATM   13  C   UNK N   1      30.925  15.807   3.643  0.00  0.00     0.044 C 
HETATM   14  C   UNK N   1      29.535  16.173   3.950  0.00  0.00    -0.045 A 
HETATM   15  C   UNK N   1      31.744  17.053   3.697  0.00  0.00     0.045 C 
HETATM   16  C   UNK N   1      32.366  17.029   5.025  0.00  0.00    -0.030 A 
HETATM   17  C   UNK N   1      27.749  17.096   5.271  0.00  0.00     0.014 A 
HETATM   18  C   UNK N   1      28.596  15.844   2.963  0.00  0.00     0.031 A 
HETATM   19  C   UNK N   1      33.758  16.909   5.070  0.00  0.00     0.011 A 
HETATM   20  C   UNK N   1      26.823  16.760   4.288  0.00  0.00     0.024 A 
HETATM   21  C   UNK N   1      27.250  16.138   3.127  0.00  0.00     0.034 A 
HETATM   22  C   UNK N   1      34.423  16.862   6.288  0.00  0.00     0.018 A 
HETATM   23  C   UNK N   1      33.684  16.933   7.457  0.00  0.00     0.088 A 
HETATM   24  H   UNK N   1      28.961  16.365  10.615  0.00  0.00     0.153 HD
ENDROOT
TORSDOF 0
ENDMDL
MODEL 4
REMARK VINA RESULT:      -7.0      2.923      6.091
REMARK  0 active torsions:
REMARK  status: ('A' for Active; 'I' for Inactive)
ROOT
HETATM    1 Cl   UNK N   1      33.314  21.054  -2.448  0.00  0.00    -0.084 Cl
HETATM    2  N   UNK N   1      26.937  26.307  -5.207  0.00  0.00    -0.421 N 
HETATM    3  N   UNK N   1      27.368  23.036  -8.095  0.00  0.00    -0.365 N 
ATOM      4  HN  UNK N   1      27.012  23.914  -7.715  1.00  0.00     0.165 HD
HETATM    5  C   UNK N   1      27.571  23.660  -5.293  0.00  0.00    -0.064 C 
HETATM    6  C   UNK N   1      28.483  22.768  -5.868  0.00  0.00     0.004 C 
HETATM    7  C   UNK N   1      27.731  24.289  -3.930  0.00  0.00     0.054 C 
HETATM    8  C   UNK N   1      26.288  24.082  -5.983  0.00  0.00     0.054 C 
HETATM    9  C   UNK N   1      27.643  25.823  -4.011  0.00  0.00     0.118 C 
HETATM   10  C   UNK N   1      25.794  25.444  -5.494  0.00  0.00     0.118 C 
HETATM   11  C   UNK N   1      29.742  22.312  -5.067  0.00  0.00    -0.017 A 
HETATM   12  C   UNK N   1      28.175  22.270  -7.297  0.00  0.00     0.049 A 
HETATM   13  C   UNK N   1      30.811  20.926  -6.938  0.00  0.00     0.044 C 
HETATM   14  C   UNK N   1      30.787  21.472  -5.573  0.00  0.00    -0.045 A 
HETATM   15  C   UNK N   1      29.555  20.147  -7.135  0.00  0.00     0.045 C 
HETATM   16  C   UNK N   1      28.662  21.061  -7.857  0.00  0.00    -0.030 A 
HETATM   17  C   UNK N   1      29.902  22.741  -3.732  0.00  0.00     0.014 A 
HETATM   18  C   UNK N   1      31.869  21.103  -4.761  0.00  0.00     0.031 A 
HETATM   19  C   UNK N   1      28.302  20.698  -9.157  0.00  0.00     0.011 A 
HETATM   20  C   UNK N   1      30.983  22.375  -2.935  0.00  0.00     0.024 A 
HETATM   21  C   UNK N   1      31.966  21.547  -3.450  0.00  0.00     0.034 A 
HETATM   22  C   UNK N   1      27.475  21.516  -9.915  0.00  0.00     0.018 A 
HETATM   23  C   UNK N   1      27.015  22.699  -9.361  0.00  0.00     0.088 A 
HETATM   24  H   UNK N   1      27.208  27.123  -5.756  0.00  0.00     0.153 HD
ENDROOT
TORSDOF 0
ENDMDL
MODEL 5
REMARK VINA RESULT:      -7.0     11.755     14.438
REMARK  0 active torsions:
REMARK  status: ('A' for Active; 'I' for Inactive)
ROOT
HETATM    1 Cl   UNK N   1      36.582  14.469   5.820  0.00  0.00    -0.084 Cl
HETATM    2  N   UNK N   1      28.307  15.508   3.306  0.00  0.00    -0.421 N 
HETATM    3  N   UNK N   1      28.825  17.498   7.178  0.00  0.00    -0.365 N 
ATOM      4  HN  UNK N   1      28.324  17.145   6.363  1.00  0.00     0.165 HD
HETATM    5  C   UNK N   1      30.189  16.876   4.721  0.00  0.00    -0.064 C 
HETATM    6  C   UNK N   1      30.894  16.840   5.929  0.00  0.00     0.004 C 
HETATM    7  C   UNK N   1      30.692  16.305   3.418  0.00  0.00     0.054 C 
HETATM    8  C   UNK N   1      28.824  17.525   4.586  0.00  0.00     0.054 C 
HETATM    9  C   UNK N   1      29.680  15.312   2.818  0.00  0.00     0.118 C 
HETATM   10  C   UNK N   1      28.020  16.936   3.426  0.00  0.00     0.118 C 
HETATM   11  C   UNK N   1      32.329  16.230   5.978  0.00  0.00    -0.017 A 
HETATM   12  C   UNK N   1      30.193  17.430   7.172  0.00  0.00     0.049 A 
HETATM   13  C   UNK N   1      32.667  16.442   8.509  0.00  0.00     0.044 C 
HETATM   14  C   UNK N   1      33.119  16.061   7.163  0.00  0.00    -0.045 A 
HETATM   15  C   UNK N   1      32.319  17.892   8.476  0.00  0.00     0.045 C 
HETATM   16  C   UNK N   1      30.861  17.920   8.324  0.00  0.00    -0.030 A 
HETATM   17  C   UNK N   1      32.936  15.797   4.779  0.00  0.00     0.014 A 
HETATM   18  C   UNK N   1      34.410  15.519   7.095  0.00  0.00     0.031 A 
HETATM   19  C   UNK N   1      30.124  18.452   9.386  0.00  0.00     0.011 A 
HETATM   20  C   UNK N   1      34.216  15.254   4.722  0.00  0.00     0.024 A 
HETATM   21  C   UNK N   1      34.958  15.121   5.884  0.00  0.00     0.034 A 
HETATM   22  C   UNK N   1      28.737  18.499   9.329  0.00  0.00     0.018 A 
HETATM   23  C   UNK N   1      28.097  18.007   8.204  0.00  0.00     0.088 A 
HETATM   24  H   UNK N   1      27.652  14.758   3.529  0.00  0.00     0.153 HD
ENDROOT
TORSDOF 0
ENDMDL
MODEL 6
REMARK VINA RESULT:      -7.0     22.949     26.041
REMARK  0 active torsions:
REMARK  status: ('A' for Active; 'I' for Inactive)
ROOT
HETATM    1 Cl   UNK N   1      36.234   5.356  14.152  0.00  0.00    -0.084 Cl
HETATM    2  N   UNK N   1      35.437  13.948  12.964  0.00  0.00    -0.421 N 
HETATM    3  N   UNK N   1      35.326  13.142  17.272  0.00  0.00    -0.365 N 
ATOM      4  HN  UNK N   1      35.267  13.697  16.418  1.00  0.00     0.165 HD
HETATM    5  C   UNK N   1      36.494  12.240  14.802  0.00  0.00    -0.064 C 
HETATM    6  C   UNK N   1      36.121  11.302  15.770  0.00  0.00     0.004 C 
HETATM    7  C   UNK N   1      36.845  11.902  13.373  0.00  0.00     0.054 C 
HETATM    8  C   UNK N   1      36.610  13.723  15.096  0.00  0.00     0.054 C 
HETATM    9  C   UNK N   1      35.992  12.716  12.384  0.00  0.00     0.118 C 
HETATM   10  C   UNK N   1      36.425  14.574  13.840  0.00  0.00     0.118 C 
HETATM   11  C   UNK N   1      36.102   9.781  15.421  0.00  0.00    -0.017 A 
HETATM   12  C   UNK N   1      35.746  11.843  17.168  0.00  0.00     0.049 A 
HETATM   13  C   UNK N   1      35.156   8.962  17.656  0.00  0.00     0.044 C 
HETATM   14  C   UNK N   1      35.662   8.734  16.295  0.00  0.00    -0.045 A 
HETATM   15  C   UNK N   1      36.215   9.686  18.417  0.00  0.00     0.045 C 
HETATM   16  C   UNK N   1      35.808  11.094  18.371  0.00  0.00    -0.030 A 
HETATM   17  C   UNK N   1      36.549   9.361  14.149  0.00  0.00     0.014 A 
HETATM   18  C   UNK N   1      35.706   7.393  15.889  0.00  0.00     0.031 A 
HETATM   19  C   UNK N   1      35.463  11.694  19.586  0.00  0.00     0.011 A 
HETATM   20  C   UNK N   1      36.582   8.027  13.753  0.00  0.00     0.024 A 
HETATM   21  C   UNK N   1      36.166   7.040  14.628  0.00  0.00     0.034 A 
HETATM   22  C   UNK N   1      35.050  13.018  19.627  0.00  0.00     0.018 A 
HETATM   23  C   UNK N   1      34.983  13.735  18.444  0.00  0.00     0.088 A 
HETATM   24  H   UNK N   1      34.501  14.311  12.783  0.00  0.00     0.153 HD
ENDROOT
TORSDOF 0
ENDMDL
MODEL 7
REMARK VINA RESULT:      -7.0     22.411     25.314
REMARK  0 active torsions:
REMARK  status: ('A' for Active; 'I' for Inactive)
ROOT
HETATM    1 Cl   UNK N   1      36.050  15.058  11.190  0.00  0.00    -0.084 Cl
HETATM    2  N   UNK N   1      37.458   7.292  14.873  0.00  0.00    -0.421 N 
HETATM    3  N   UNK N   1      36.206  10.091  18.007  0.00  0.00    -0.365 N 
ATOM      4  HN  UNK N   1      36.545   9.213  17.611  1.00  0.00     0.165 HD
HETATM    5  C   UNK N   1      35.829   9.444  15.228  0.00  0.00    -0.064 C 
HETATM    6  C   UNK N   1      35.854  10.785  15.626  0.00  0.00     0.004 C 
HETATM    7  C   UNK N   1      35.927   8.974  13.797  0.00  0.00     0.054 C 
HETATM    8  C   UNK N   1      35.677   8.298  16.210  0.00  0.00     0.054 C 
HETATM    9  C   UNK N   1      37.070   7.959  13.622  0.00  0.00     0.118 C 
HETATM   10  C   UNK N   1      36.269   6.997  15.670  0.00  0.00     0.118 C 
HETATM   11  C   UNK N   1      35.929  11.918  14.556  0.00  0.00    -0.017 A 
HETATM   12  C   UNK N   1      35.796  11.071  17.143  0.00  0.00     0.049 A 
HETATM   13  C   UNK N   1      36.111  13.879  16.195  0.00  0.00     0.044 C 
HETATM   14  C   UNK N   1      36.043  13.319  14.837  0.00  0.00    -0.045 A 
HETATM   15  C   UNK N   1      34.893  13.432  16.930  0.00  0.00     0.045 C 
HETATM   16  C   UNK N   1      35.340  12.283  17.723  0.00  0.00    -0.030 A 
HETATM   17  C   UNK N   1      35.884  11.576  13.187  0.00  0.00     0.014 A 
HETATM   18  C   UNK N   1      36.082  14.260  13.798  0.00  0.00     0.031 A 
HETATM   19  C   UNK N   1      35.312  12.424  19.114  0.00  0.00     0.011 A 
HETATM   20  C   UNK N   1      35.930  12.517  12.162  0.00  0.00     0.024 A 
HETATM   21  C   UNK N   1      36.023  13.864  12.469  0.00  0.00     0.034 A 
HETATM   22  C   UNK N   1      35.736  11.390  19.938  0.00  0.00     0.018 A 
HETATM   23  C   UNK N   1      36.189  10.216  19.358  0.00  0.00     0.088 A 
HETATM   24  H   UNK N   1      38.416   7.069  15.146  0.00  0.00     0.153 HD
ENDROOT
TORSDOF 0
ENDMDL
MODEL 8
REMARK VINA RESULT:      -6.9     11.330     13.280
REMARK  0 active torsions:
REMARK  status: ('A' for Active; 'I' for Inactive)
ROOT
HETATM    1 Cl   UNK N   1      29.124  12.932   1.269  0.00  0.00    -0.084 Cl
HETATM    2  N   UNK N   1      25.224  19.438   5.551  0.00  0.00    -0.421 N 
HETATM    3  N   UNK N   1      28.964  18.476   7.626  0.00  0.00    -0.365 N 
ATOM      4  HN  UNK N   1      28.067  18.937   7.471  1.00  0.00     0.165 HD
HETATM    5  C   UNK N   1      27.753  18.584   5.017  0.00  0.00    -0.064 C 
HETATM    6  C   UNK N   1      28.650  17.553   5.319  0.00  0.00     0.004 C 
HETATM    7  C   UNK N   1      26.842  18.602   3.814  0.00  0.00     0.054 C 
HETATM    8  C   UNK N   1      27.615  19.828   5.873  0.00  0.00     0.054 C 
HETATM    9  C   UNK N   1      25.375  18.808   4.230  0.00  0.00     0.118 C 
HETATM   10  C   UNK N   1      26.237  20.476   5.726  0.00  0.00     0.118 C 
HETATM   11  C   UNK N   1      28.801  16.339   4.350  0.00  0.00    -0.017 A 
HETATM   12  C   UNK N   1      29.464  17.686   6.625  0.00  0.00     0.049 A 
HETATM   13  C   UNK N   1      30.433  14.993   5.795  0.00  0.00     0.044 C 
HETATM   14  C   UNK N   1      29.620  15.187   4.585  0.00  0.00    -0.045 A 
HETATM   15  C   UNK N   1      31.357  16.158   5.910  0.00  0.00     0.045 C 
HETATM   16  C   UNK N   1      30.708  17.052   6.874  0.00  0.00    -0.030 A 
HETATM   17  C   UNK N   1      28.090  16.339   3.130  0.00  0.00     0.014 A 
HETATM   18  C   UNK N   1      29.702  14.157   3.636  0.00  0.00     0.031 A 
HETATM   19  C   UNK N   1      31.367  17.260   8.088  0.00  0.00     0.011 A 
HETATM   20  C   UNK N   1      28.173  15.309   2.197  0.00  0.00     0.024 A 
HETATM   21  C   UNK N   1      28.987  14.218   2.449  0.00  0.00     0.034 A 
HETATM   22  C   UNK N   1      30.812  18.079   9.063  0.00  0.00     0.018 A 
HETATM   23  C   UNK N   1      29.591  18.683   8.811  0.00  0.00     0.088 A 
HETATM   24  H   UNK N   1      24.517  19.187   6.242  0.00  0.00     0.153 HD
ENDROOT
TORSDOF 0
ENDMDL
MODEL 9
REMARK VINA RESULT:      -6.9      3.203      6.226
REMARK  0 active torsions:
REMARK  status: ('A' for Active; 'I' for Inactive)
ROOT
HETATM    1 Cl   UNK N   1      29.320  18.956  -7.852  0.00  0.00    -0.084 Cl
HETATM    2  N   UNK N   1      32.070  26.593  -4.693  0.00  0.00    -0.421 N 
HETATM    3  N   UNK N   1      27.722  26.807  -5.211  0.00  0.00    -0.365 N 
ATOM      4  HN  UNK N   1      28.662  27.147  -5.004  1.00  0.00     0.165 HD
HETATM    5  C   UNK N   1      29.864  25.005  -4.539  0.00  0.00    -0.064 C 
HETATM    6  C   UNK N   1      28.789  24.543  -5.307  0.00  0.00     0.004 C 
HETATM    7  C   UNK N   1      31.168  24.267  -4.359  0.00  0.00     0.054 C 
HETATM    8  C   UNK N   1      29.823  26.315  -3.774  0.00  0.00     0.054 C 
HETATM    9  C   UNK N   1      32.366  25.153  -4.743  0.00  0.00     0.118 C 
HETATM   10  C   UNK N   1      31.221  26.887  -3.541  0.00  0.00     0.118 C 
HETATM   11  C   UNK N   1      28.867  23.148  -6.001  0.00  0.00    -0.017 A 
HETATM   12  C   UNK N   1      27.554  25.464  -5.417  0.00  0.00     0.049 A 
HETATM   13  C   UNK N   1      26.631  23.296  -7.243  0.00  0.00     0.044 C 
HETATM   14  C   UNK N   1      27.873  22.599  -6.876  0.00  0.00    -0.045 A 
HETATM   15  C   UNK N   1      25.905  23.621  -5.982  0.00  0.00     0.045 C 
HETATM   16  C   UNK N   1      26.238  25.024  -5.714  0.00  0.00    -0.030 A 
HETATM   17  C   UNK N   1      29.993  22.327  -5.773  0.00  0.00     0.014 A 
HETATM   18  C   UNK N   1      28.031  21.322  -7.433  0.00  0.00     0.031 A 
HETATM   19  C   UNK N   1      25.189  25.946  -5.769  0.00  0.00     0.011 A 
HETATM   20  C   UNK N   1      30.144  21.063  -6.337  0.00  0.00     0.024 A 
HETATM   21  C   UNK N   1      29.156  20.557  -7.164  0.00  0.00     0.034 A 
HETATM   22  C   UNK N   1      25.423  27.296  -5.544  0.00  0.00     0.018 A 
HETATM   23  C   UNK N   1      26.714  27.714  -5.267  0.00  0.00     0.088 A 
HETATM   24  H   UNK N   1      32.407  27.284  -5.364  0.00  0.00     0.153 HD
ENDROOT
TORSDOF 0
ENDMDL
