REMARK  4 active torsions:
REMARK  status: ('A' for Active; 'I' for Inactive)
REMARK    1  A    between atoms: N_3  and  C_14 
REMARK       I    between atoms: N_3  and  C_17 
REMARK    2  A    between atoms: C_4  and  C_9 
REMARK    3  A    between atoms: C_9  and  C_14 
REMARK    4  A    between atoms: C_17  and  C_18 
ROOT
HETATM    1  O   UNK N   1       1.251   4.339  -0.000  0.00  0.00    -0.350 OA
HETATM    2  C   UNK N   1       4.581   0.782   0.002  0.00  0.00     0.021 A 
HETATM    3  C   UNK N   1       4.057   2.170   0.000  0.00  0.00    -0.038 A 
HETATM    4  C   UNK N   1       6.106   0.879  -0.000  0.00  0.00     0.014 A 
HETATM    5  C   UNK N   1       6.442   2.384   0.000  0.00  0.00     0.040 A 
HETATM    6  C   UNK N   1       5.115   3.052   0.000  0.00  0.00    -0.051 A 
HETATM    7  C   UNK N   1       2.746   2.680  -0.000  0.00  0.00    -0.015 A 
HETATM    8  C   UNK N   1       1.434   1.995   0.000  0.00  0.00     0.068 A 
HETATM    9  C   UNK N   1       2.542   4.025  -0.000  0.00  0.00     0.075 A 
HETATM   10  C   UNK N   1       4.915   4.441  -0.000  0.00  0.00     0.010 A 
HETATM   11  C   UNK N   1       0.457   3.203  -0.000  0.00  0.00     0.180 A 
HETATM   12  C   UNK N   1       3.601   4.940  -0.000  0.00  0.00     0.038 A 
ENDROOT
BRANCH   2  13
HETATM   13  C   UNK N   1       3.954  -0.604  -0.003  0.00  0.00     0.029 C 
BRANCH  13  14
HETATM   14  C   UNK N   1       2.439  -0.660   0.001  0.00  0.00     0.123 C 
BRANCH  14  15
HETATM   15  N   UNK N   1       1.870  -1.999   0.000  0.00  0.00    -0.361 N 
HETATM   16  C   UNK N   1       2.546  -3.182   0.000  0.00  0.00     0.217 C 
HETATM   17  O   UNK N   1       3.767  -3.216   0.000  0.00  0.00    -0.274 OA
HETATM   18  H   UNK N   1       0.887  -2.057   0.000  0.00  0.00     0.162 HD
BRANCH  16  19
HETATM   19  C   UNK N   1       1.760  -4.459  -0.000  0.00  0.00     0.098 C 
HETATM   20  C   UNK N   1       2.653  -5.690  -0.000  0.00  0.00     0.014 C 
ENDBRANCH  16  19
ENDBRANCH  14  15
ENDBRANCH  13  14
ENDBRANCH   2  13
TORSDOF 4
