MODEL 1
REMARK VINA RESULT:      -6.6      0.000      0.000
REMARK  4 active torsions:
REMARK  status: ('A' for Active; 'I' for Inactive)
REMARK    1  A    between atoms: N_3  and  C_14 
REMARK       I    between atoms: N_3  and  C_17 
REMARK    2  A    between atoms: C_4  and  C_9 
REMARK    3  A    between atoms: C_9  and  C_14 
REMARK    4  A    between atoms: C_17  and  C_18 
ROOT
HETATM    1  O   UNK N   1      29.340  29.111  -8.414  0.00  0.00    -0.350 OA
HETATM    2  C   UNK N   1      25.954  27.310  -5.409  0.00  0.00     0.021 A 
HETATM    3  C   UNK N   1      26.994  28.248  -5.898  0.00  0.00    -0.038 A 
HETATM    4  C   UNK N   1      25.460  27.850  -4.068  0.00  0.00     0.014 A 
HETATM    5  C   UNK N   1      26.257  29.144  -3.804  0.00  0.00     0.040 A 
HETATM    6  C   UNK N   1      27.148  29.269  -4.986  0.00  0.00    -0.051 A 
HETATM    7  C   UNK N   1      27.783  28.253  -7.063  0.00  0.00    -0.015 A 
HETATM    8  C   UNK N   1      27.842  27.311  -8.204  0.00  0.00     0.068 A 
HETATM    9  C   UNK N   1      28.679  29.255  -7.271  0.00  0.00     0.075 A 
HETATM   10  C   UNK N   1      28.069  30.307  -5.191  0.00  0.00     0.010 A 
HETATM   11  C   UNK N   1      28.936  27.970  -9.089  0.00  0.00     0.180 A 
HETATM   12  C   UNK N   1      28.852  30.302  -6.359  0.00  0.00     0.038 A 
ENDROOT
BRANCH   2  13
HETATM   13  C   UNK N   1      25.339  26.020  -5.929  0.00  0.00     0.029 C 
BRANCH  13  14
HETATM   14  C   UNK N   1      25.639  24.762  -5.137  0.00  0.00     0.123 C 
BRANCH  14  15
HETATM   15  N   UNK N   1      27.039  24.569  -4.790  0.00  0.00    -0.361 N 
HETATM   16  C   UNK N   1      27.548  24.246  -3.568  0.00  0.00     0.217 C 
HETATM   17  O   UNK N   1      26.822  24.082  -2.600  0.00  0.00    -0.274 OA
HETATM   18  H   UNK N   1      27.691  24.684  -5.519  0.00  0.00     0.162 HD
BRANCH  16  19
HETATM   19  C   UNK N   1      29.033  24.093  -3.426  0.00  0.00     0.098 C 
HETATM   20  C   UNK N   1      29.412  23.030  -2.407  0.00  0.00     0.014 C 
ENDBRANCH  16  19
ENDBRANCH  14  15
ENDBRANCH  13  14
ENDBRANCH   2  13
TORSDOF 4
ENDMDL
MODEL 2
REMARK VINA RESULT:      -6.4     18.393     21.155
REMARK  4 active torsions:
REMARK  status: ('A' for Active; 'I' for Inactive)
REMARK    1  A    between atoms: N_3  and  C_14 
REMARK       I    between atoms: N_3  and  C_17 
REMARK    2  A    between atoms: C_4  and  C_9 
REMARK    3  A    between atoms: C_9  and  C_14 
REMARK    4  A    between atoms: C_17  and  C_18 
ROOT
HETATM    1  O   UNK N   1      21.577  11.945  11.885  0.00  0.00    -0.350 OA
HETATM    2  C   UNK N   1      22.797  14.217   7.751  0.00  0.00     0.021 A 
HETATM    3  C   UNK N   1      22.997  13.444   9.001  0.00  0.00    -0.038 A 
HETATM    4  C   UNK N   1      24.172  14.390   7.107  0.00  0.00     0.014 A 
HETATM    5  C   UNK N   1      25.176  13.679   8.037  0.00  0.00     0.040 A 
HETATM    6  C   UNK N   1      24.335  13.151   9.142  0.00  0.00    -0.051 A 
HETATM    7  C   UNK N   1      22.096  12.997   9.985  0.00  0.00    -0.015 A 
HETATM    8  C   UNK N   1      20.629  13.154  10.105  0.00  0.00     0.068 A 
HETATM    9  C   UNK N   1      22.553  12.290  11.052  0.00  0.00     0.075 A 
HETATM   10  C   UNK N   1      24.818  12.422  10.240  0.00  0.00     0.010 A 
HETATM   11  C   UNK N   1      20.348  12.404  11.436  0.00  0.00     0.180 A 
HETATM   12  C   UNK N   1      23.908  11.981  11.217  0.00  0.00     0.038 A 
ENDROOT
BRANCH   2  13
HETATM   13  C   UNK N   1      21.597  14.830   7.046  0.00  0.00     0.029 C 
BRANCH  13  14
HETATM   14  C   UNK N   1      21.173  16.210   7.510  0.00  0.00     0.123 C 
BRANCH  14  15
HETATM   15  N   UNK N   1      19.853  16.280   8.116  0.00  0.00    -0.361 N 
HETATM   16  C   UNK N   1      19.312  17.331   8.794  0.00  0.00     0.217 C 
HETATM   17  O   UNK N   1      19.934  18.369   8.959  0.00  0.00    -0.274 OA
HETATM   18  H   UNK N   1      19.287  15.479   8.027  0.00  0.00     0.162 HD
BRANCH  16  19
HETATM   19  C   UNK N   1      17.923  17.194   9.343  0.00  0.00     0.098 C 
HETATM   20  C   UNK N   1      17.607  18.247  10.394  0.00  0.00     0.014 C 
ENDBRANCH  16  19
ENDBRANCH  14  15
ENDBRANCH  13  14
ENDBRANCH   2  13
TORSDOF 4
ENDMDL
MODEL 3
REMARK VINA RESULT:      -6.3      2.024      2.681
REMARK  4 active torsions:
REMARK  status: ('A' for Active; 'I' for Inactive)
REMARK    1  A    between atoms: N_3  and  C_14 
REMARK       I    between atoms: N_3  and  C_17 
REMARK    2  A    between atoms: C_4  and  C_9 
REMARK    3  A    between atoms: C_9  and  C_14 
REMARK    4  A    between atoms: C_17  and  C_18 
ROOT
HETATM    1  O   UNK N   1      29.292  28.843  -8.562  0.00  0.00    -0.350 OA
HETATM    2  C   UNK N   1      25.916  27.498  -5.316  0.00  0.00     0.021 A 
HETATM    3  C   UNK N   1      27.010  28.314  -5.900  0.00  0.00    -0.038 A 
HETATM    4  C   UNK N   1      25.541  28.141  -3.981  0.00  0.00     0.014 A 
HETATM    5  C   UNK N   1      26.464  29.366  -3.819  0.00  0.00     0.040 A 
HETATM    6  C   UNK N   1      27.301  29.355  -5.047  0.00  0.00    -0.051 A 
HETATM    7  C   UNK N   1      27.735  28.193  -7.099  0.00  0.00    -0.015 A 
HETATM    8  C   UNK N   1      27.651  27.200  -8.193  0.00  0.00     0.068 A 
HETATM    9  C   UNK N   1      28.705  29.099  -7.398  0.00  0.00     0.075 A 
HETATM   10  C   UNK N   1      28.300  30.294  -5.346  0.00  0.00     0.010 A 
HETATM   11  C   UNK N   1      28.753  27.715  -9.160  0.00  0.00     0.180 A 
HETATM   12  C   UNK N   1      29.018  30.165  -6.547  0.00  0.00     0.038 A 
ENDROOT
BRANCH   2  13
HETATM   13  C   UNK N   1      25.162  26.248  -5.743  0.00  0.00     0.029 C 
BRANCH  13  14
HETATM   14  C   UNK N   1      25.941  24.947  -5.716  0.00  0.00     0.123 C 
BRANCH  14  15
HETATM   15  N   UNK N   1      25.236  23.793  -6.250  0.00  0.00    -0.361 N 
HETATM   16  C   UNK N   1      25.784  22.667  -6.786  0.00  0.00     0.217 C 
HETATM   17  O   UNK N   1      26.995  22.527  -6.868  0.00  0.00    -0.274 OA
HETATM   18  H   UNK N   1      24.252  23.828  -6.220  0.00  0.00     0.162 HD
BRANCH  16  19
HETATM   19  C   UNK N   1      24.869  21.587  -7.282  0.00  0.00     0.098 C 
HETATM   20  C   UNK N   1      25.576  20.605  -8.203  0.00  0.00     0.014 C 
ENDBRANCH  16  19
ENDBRANCH  14  15
ENDBRANCH  13  14
ENDBRANCH   2  13
TORSDOF 4
ENDMDL
MODEL 4
REMARK VINA RESULT:      -6.2      2.812      4.192
REMARK  4 active torsions:
REMARK  status: ('A' for Active; 'I' for Inactive)
REMARK    1  A    between atoms: N_3  and  C_14 
REMARK       I    between atoms: N_3  and  C_17 
REMARK    2  A    between atoms: C_4  and  C_9 
REMARK    3  A    between atoms: C_9  and  C_14 
REMARK    4  A    between atoms: C_17  and  C_18 
ROOT
HETATM    1  O   UNK N   1      25.221  24.250  -6.099  0.00  0.00    -0.350 OA
HETATM    2  C   UNK N   1      29.051  26.908  -4.684  0.00  0.00     0.021 A 
HETATM    3  C   UNK N   1      27.639  26.614  -5.030  0.00  0.00    -0.038 A 
HETATM    4  C   UNK N   1      29.119  28.383  -4.293  0.00  0.00     0.014 A 
HETATM    5  C   UNK N   1      27.683  28.930  -4.424  0.00  0.00     0.040 A 
HETATM    6  C   UNK N   1      26.889  27.759  -4.877  0.00  0.00    -0.051 A 
HETATM    7  C   UNK N   1      27.001  25.434  -5.456  0.00  0.00    -0.015 A 
HETATM    8  C   UNK N   1      27.532  24.075  -5.706  0.00  0.00     0.068 A 
HETATM    9  C   UNK N   1      25.665  25.440  -5.708  0.00  0.00     0.075 A 
HETATM   10  C   UNK N   1      25.509  27.774  -5.134  0.00  0.00     0.010 A 
HETATM   11  C   UNK N   1      26.247  23.320  -6.145  0.00  0.00     0.180 A 
HETATM   12  C   UNK N   1      24.882  26.590  -5.559  0.00  0.00     0.038 A 
ENDROOT
BRANCH   2  13
HETATM   13  C   UNK N   1      30.341  26.102  -4.653  0.00  0.00     0.029 C 
BRANCH  13  14
HETATM   14  C   UNK N   1      30.590  25.273  -3.408  0.00  0.00     0.123 C 
BRANCH  14  15
HETATM   15  N   UNK N   1      30.848  23.862  -3.646  0.00  0.00    -0.361 N 
HETATM   16  C   UNK N   1      30.813  22.851  -2.732  0.00  0.00     0.217 C 
HETATM   17  O   UNK N   1      30.544  23.064  -1.560  0.00  0.00    -0.274 OA
HETATM   18  H   UNK N   1      31.073  23.607  -4.570  0.00  0.00     0.162 HD
BRANCH  16  19
HETATM   19  C   UNK N   1      31.113  21.456  -3.192  0.00  0.00     0.098 C 
HETATM   20  C   UNK N   1      30.448  21.127  -4.519  0.00  0.00     0.014 C 
ENDBRANCH  16  19
ENDBRANCH  14  15
ENDBRANCH  13  14
ENDBRANCH   2  13
TORSDOF 4
ENDMDL
MODEL 5
REMARK VINA RESULT:      -6.1     18.888     20.981
REMARK  4 active torsions:
REMARK  status: ('A' for Active; 'I' for Inactive)
REMARK    1  A    between atoms: N_3  and  C_14 
REMARK       I    between atoms: N_3  and  C_17 
REMARK    2  A    between atoms: C_4  and  C_9 
REMARK    3  A    between atoms: C_9  and  C_14 
REMARK    4  A    between atoms: C_17  and  C_18 
ROOT
HETATM    1  O   UNK N   1      19.582  14.648   8.953  0.00  0.00    -0.350 OA
HETATM    2  C   UNK N   1      24.193  13.164   9.483  0.00  0.00     0.021 A 
HETATM    3  C   UNK N   1      22.739  13.252   9.766  0.00  0.00    -0.038 A 
HETATM    4  C   UNK N   1      24.787  12.180  10.490  0.00  0.00     0.014 A 
HETATM    5  C   UNK N   1      23.613  11.699  11.366  0.00  0.00     0.040 A 
HETATM    6  C   UNK N   1      22.435  12.423  10.824  0.00  0.00    -0.051 A 
HETATM    7  C   UNK N   1      21.707  13.994   9.164  0.00  0.00    -0.015 A 
HETATM    8  C   UNK N   1      21.725  14.949   8.033  0.00  0.00     0.068 A 
HETATM    9  C   UNK N   1      20.433  13.884   9.629  0.00  0.00     0.075 A 
HETATM   10  C   UNK N   1      21.124  12.303  11.311  0.00  0.00     0.010 A 
HETATM   11  C   UNK N   1      20.228  15.354   7.950  0.00  0.00     0.180 A 
HETATM   12  C   UNK N   1      20.100  13.049  10.701  0.00  0.00     0.038 A 
ENDROOT
BRANCH   2  13
HETATM   13  C   UNK N   1      25.134  13.813   8.479  0.00  0.00     0.029 C 
BRANCH  13  14
HETATM   14  C   UNK N   1      25.208  13.167   7.109  0.00  0.00     0.123 C 
BRANCH  14  15
HETATM   15  N   UNK N   1      24.029  12.410   6.717  0.00  0.00    -0.361 N 
HETATM   16  C   UNK N   1      23.302  12.551   5.574  0.00  0.00     0.217 C 
HETATM   17  O   UNK N   1      23.600  13.380   4.729  0.00  0.00    -0.274 OA
HETATM   18  H   UNK N   1      23.723  11.719   7.348  0.00  0.00     0.162 HD
BRANCH  16  19
HETATM   19  C   UNK N   1      22.113  11.661   5.365  0.00  0.00     0.098 C 
HETATM   20  C   UNK N   1      21.236  11.563   6.603  0.00  0.00     0.014 C 
ENDBRANCH  16  19
ENDBRANCH  14  15
ENDBRANCH  13  14
ENDBRANCH   2  13
TORSDOF 4
ENDMDL
MODEL 6
REMARK VINA RESULT:      -6.0     12.837     15.740
REMARK  4 active torsions:
REMARK  status: ('A' for Active; 'I' for Inactive)
REMARK    1  A    between atoms: N_3  and  C_14 
REMARK       I    between atoms: N_3  and  C_17 
REMARK    2  A    between atoms: C_4  and  C_9 
REMARK    3  A    between atoms: C_9  and  C_14 
REMARK    4  A    between atoms: C_17  and  C_18 
ROOT
HETATM    1  O   UNK N   1      33.670  17.030   4.979  0.00  0.00    -0.350 OA
HETATM    2  C   UNK N   1      29.339  17.169   7.206  0.00  0.00     0.021 A 
HETATM    3  C   UNK N   1      30.807  17.318   7.051  0.00  0.00    -0.038 A 
HETATM    4  C   UNK N   1      28.994  17.590   8.634  0.00  0.00     0.014 A 
HETATM    5  C   UNK N   1      30.326  17.993   9.298  0.00  0.00     0.040 A 
HETATM    6  C   UNK N   1      31.340  17.782   8.234  0.00  0.00    -0.051 A 
HETATM    7  C   UNK N   1      31.667  17.078   5.964  0.00  0.00    -0.015 A 
HETATM    8  C   UNK N   1      31.393  16.589   4.595  0.00  0.00     0.068 A 
HETATM    9  C   UNK N   1      33.002  17.305   6.093  0.00  0.00     0.075 A 
HETATM   10  C   UNK N   1      32.716  18.019   8.377  0.00  0.00     0.010 A 
HETATM   11  C   UNK N   1      32.819  16.583   3.980  0.00  0.00     0.180 A 
HETATM   12  C   UNK N   1      33.567  17.776   7.284  0.00  0.00     0.038 A 
ENDROOT
BRANCH   2  13
HETATM   13  C   UNK N   1      28.204  16.709   6.304  0.00  0.00     0.029 C 
BRANCH  13  14
HETATM   14  C   UNK N   1      27.717  17.705   5.270  0.00  0.00     0.123 C 
BRANCH  14  15
HETATM   15  N   UNK N   1      27.494  19.054   5.768  0.00  0.00    -0.361 N 
HETATM   16  C   UNK N   1      27.306  20.184   5.031  0.00  0.00     0.217 C 
HETATM   17  O   UNK N   1      27.311  20.155   3.810  0.00  0.00    -0.274 OA
HETATM   18  H   UNK N   1      27.476  19.162   6.747  0.00  0.00     0.162 HD
BRANCH  16  19
HETATM   19  C   UNK N   1      27.090  21.483   5.749  0.00  0.00     0.098 C 
HETATM   20  C   UNK N   1      26.354  21.301   7.068  0.00  0.00     0.014 C 
ENDBRANCH  16  19
ENDBRANCH  14  15
ENDBRANCH  13  14
ENDBRANCH   2  13
TORSDOF 4
ENDMDL
MODEL 7
REMARK VINA RESULT:      -6.0     14.746     17.306
REMARK  4 active torsions:
REMARK  status: ('A' for Active; 'I' for Inactive)
REMARK    1  A    between atoms: N_3  and  C_14 
REMARK       I    between atoms: N_3  and  C_17 
REMARK    2  A    between atoms: C_4  and  C_9 
REMARK    3  A    between atoms: C_9  and  C_14 
REMARK    4  A    between atoms: C_17  and  C_18 
ROOT
HETATM    1  O   UNK N   1      31.091  16.549   2.929  0.00  0.00    -0.350 OA
HETATM    2  C   UNK N   1      31.984  17.735   7.569  0.00  0.00     0.021 A 
HETATM    3  C   UNK N   1      31.194  17.289   6.396  0.00  0.00    -0.038 A 
HETATM    4  C   UNK N   1      31.040  17.736   8.771  0.00  0.00     0.014 A 
HETATM    5  C   UNK N   1      29.669  17.268   8.242  0.00  0.00     0.040 A 
HETATM    6  C   UNK N   1      29.901  17.031   6.794  0.00  0.00    -0.051 A 
HETATM    7  C   UNK N   1      31.540  17.102   5.045  0.00  0.00    -0.015 A 
HETATM    8  C   UNK N   1      32.824  17.293   4.333  0.00  0.00     0.068 A 
HETATM    9  C   UNK N   1      30.602  16.673   4.158  0.00  0.00     0.075 A 
HETATM   10  C   UNK N   1      28.926  16.588   5.886  0.00  0.00     0.010 A 
HETATM   11  C   UNK N   1      32.433  16.892   2.883  0.00  0.00     0.180 A 
HETATM   12  C   UNK N   1      29.283  16.405   4.539  0.00  0.00     0.038 A 
ENDROOT
BRANCH   2  13
HETATM   13  C   UNK N   1      33.426  18.165   7.794  0.00  0.00     0.029 C 
BRANCH  13  14
HETATM   14  C   UNK N   1      34.467  17.063   7.799  0.00  0.00     0.123 C 
BRANCH  14  15
HETATM   15  N   UNK N   1      34.449  16.202   8.972  0.00  0.00    -0.361 N 
HETATM   16  C   UNK N   1      35.037  16.440  10.178  0.00  0.00     0.217 C 
HETATM   17  O   UNK N   1      35.670  17.464  10.385  0.00  0.00    -0.274 OA
HETATM   18  H   UNK N   1      33.957  15.354   8.885  0.00  0.00     0.162 HD
BRANCH  16  19
HETATM   19  C   UNK N   1      34.895  15.413  11.262  0.00  0.00     0.098 C 
HETATM   20  C   UNK N   1      36.032  14.403  11.256  0.00  0.00     0.014 C 
ENDBRANCH  16  19
ENDBRANCH  14  15
ENDBRANCH  13  14
ENDBRANCH   2  13
TORSDOF 4
ENDMDL
MODEL 8
REMARK VINA RESULT:      -5.9      3.006      4.183
REMARK  4 active torsions:
REMARK  status: ('A' for Active; 'I' for Inactive)
REMARK    1  A    between atoms: N_3  and  C_14 
REMARK       I    between atoms: N_3  and  C_17 
REMARK    2  A    between atoms: C_4  and  C_9 
REMARK    3  A    between atoms: C_9  and  C_14 
REMARK    4  A    between atoms: C_17  and  C_18 
ROOT
HETATM    1  O   UNK N   1      26.310  23.757  -8.579  0.00  0.00    -0.350 OA
HETATM    2  C   UNK N   1      26.784  25.157  -3.936  0.00  0.00     0.021 A 
HETATM    3  C   UNK N   1      26.425  25.266  -5.371  0.00  0.00    -0.038 A 
HETATM    4  C   UNK N   1      26.408  26.484  -3.278  0.00  0.00     0.014 A 
HETATM    5  C   UNK N   1      25.812  27.365  -4.395  0.00  0.00     0.040 A 
HETATM    6  C   UNK N   1      25.881  26.509  -5.608  0.00  0.00    -0.051 A 
HETATM    7  C   UNK N   1      26.545  24.361  -6.442  0.00  0.00    -0.015 A 
HETATM    8  C   UNK N   1      27.079  22.982  -6.496  0.00  0.00     0.068 A 
HETATM    9  C   UNK N   1      26.127  24.722  -7.685  0.00  0.00     0.075 A 
HETATM   10  C   UNK N   1      25.447  26.891  -6.886  0.00  0.00     0.010 A 
HETATM   11  C   UNK N   1      26.882  22.636  -7.998  0.00  0.00     0.180 A 
HETATM   12  C   UNK N   1      25.571  25.980  -7.949  0.00  0.00     0.038 A 
ENDROOT
BRANCH   2  13
HETATM   13  C   UNK N   1      27.410  24.080  -3.063  0.00  0.00     0.029 C 
BRANCH  13  14
HETATM   14  C   UNK N   1      28.923  24.001  -3.068  0.00  0.00     0.123 C 
BRANCH  14  15
HETATM   15  N   UNK N   1      29.477  22.781  -3.636  0.00  0.00    -0.361 N 
HETATM   16  C   UNK N   1      30.519  22.047  -3.156  0.00  0.00     0.217 C 
HETATM   17  O   UNK N   1      31.114  22.376  -2.141  0.00  0.00    -0.274 OA
HETATM   18  H   UNK N   1      29.050  22.449  -4.459  0.00  0.00     0.162 HD
BRANCH  16  19
HETATM   19  C   UNK N   1      30.932  20.812  -3.900  0.00  0.00     0.098 C 
HETATM   20  C   UNK N   1      30.561  20.872  -5.374  0.00  0.00     0.014 C 
ENDBRANCH  16  19
ENDBRANCH  14  15
ENDBRANCH  13  14
ENDBRANCH   2  13
TORSDOF 4
ENDMDL
MODEL 9
REMARK VINA RESULT:      -5.8     23.857     28.288
REMARK  4 active torsions:
REMARK  status: ('A' for Active; 'I' for Inactive)
REMARK    1  A    between atoms: N_3  and  C_14 
REMARK       I    between atoms: N_3  and  C_17 
REMARK    2  A    between atoms: C_4  and  C_9 
REMARK    3  A    between atoms: C_9  and  C_14 
REMARK    4  A    between atoms: C_17  and  C_18 
ROOT
HETATM    1  O   UNK N   1      35.637   7.994  17.037  0.00  0.00    -0.350 OA
HETATM    2  C   UNK N   1      35.402  12.856  16.824  0.00  0.00     0.021 A 
HETATM    3  C   UNK N   1      35.407  11.509  17.447  0.00  0.00    -0.038 A 
HETATM    4  C   UNK N   1      35.227  13.871  17.954  0.00  0.00     0.014 A 
HETATM    5  C   UNK N   1      35.134  13.052  19.257  0.00  0.00     0.040 A 
HETATM    6  C   UNK N   1      35.257  11.641  18.809  0.00  0.00    -0.051 A 
HETATM    7  C   UNK N   1      35.533  10.221  16.897  0.00  0.00    -0.015 A 
HETATM    8  C   UNK N   1      35.704   9.770  15.498  0.00  0.00     0.068 A 
HETATM    9  C   UNK N   1      35.506   9.131  17.712  0.00  0.00     0.075 A 
HETATM   10  C   UNK N   1      35.227  10.524  19.658  0.00  0.00     0.010 A 
HETATM   11  C   UNK N   1      35.767   8.228  15.677  0.00  0.00     0.180 A 
HETATM   12  C   UNK N   1      35.354   9.240  19.099  0.00  0.00     0.038 A 
ENDROOT
BRANCH   2  13
HETATM   13  C   UNK N   1      35.518  13.384  15.402  0.00  0.00     0.029 C 
BRANCH  13  14
HETATM   14  C   UNK N   1      36.905  13.378  14.791  0.00  0.00     0.123 C 
BRANCH  14  15
HETATM   15  N   UNK N   1      36.963  13.755  13.387  0.00  0.00    -0.361 N 
HETATM   16  C   UNK N   1      36.946  12.922  12.308  0.00  0.00     0.217 C 
HETATM   17  O   UNK N   1      36.876  11.710  12.443  0.00  0.00    -0.274 OA
HETATM   18  H   UNK N   1      37.021  14.719  13.194  0.00  0.00     0.162 HD
BRANCH  16  19
HETATM   19  C   UNK N   1      37.014  13.522  10.936  0.00  0.00     0.098 C 
HETATM   20  C   UNK N   1      38.371  13.316  10.280  0.00  0.00     0.014 C 
ENDBRANCH  16  19
ENDBRANCH  14  15
ENDBRANCH  13  14
ENDBRANCH   2  13
TORSDOF 4
ENDMDL
