MODEL 1
REMARK VINA RESULT:      -6.8      0.000      0.000
REMARK  11 active torsions:
REMARK  status: ('A' for Active; 'I' for Inactive)
REMARK    1  A    between atoms: O_1  and  C_10 
REMARK    2  A    between atoms: O_2  and  C_23 
REMARK    3  A    between atoms: O_3  and  C_22 
REMARK    4  A    between atoms: N_5  and  C_7 
REMARK    5  A    between atoms: N_5  and  C_9 
REMARK    6  A    between atoms: N_6  and  C_18 
REMARK    7  A    between atoms: N_6  and  C_24 
REMARK    8  A    between atoms: C_7  and  C_8 
REMARK    9  A    between atoms: C_8  and  C_12 
REMARK   10  A    between atoms: C_9  and  C_10 
REMARK   11  A    between atoms: C_10  and  C_13 
ROOT
HETATM    1  C   UNK N   1      28.637  17.373   3.773  0.00  0.00     0.168 C 
ENDROOT
BRANCH   1   2
HETATM    2  O   UNK N   1      27.736  16.307   3.701  0.00  0.00    -0.389 OA
HETATM    3  H   UNK N   1      27.686  15.767   2.896  0.00  0.00     0.210 HD
ENDBRANCH   1   2
BRANCH   1   4
HETATM    4  C   UNK N   1      29.984  16.827   4.232  0.00  0.00     0.150 C 
BRANCH   4   5
HETATM    5  N   UNK N   1      31.083  17.696   3.834  0.00  0.00    -0.414 N 
HETATM    6  H   UNK N   1      31.076  18.404   3.100  0.00  0.00     0.153 HD
BRANCH   5   7
HETATM    7  C   UNK N   1      32.190  17.339   4.704  0.00  0.00     0.076 C 
HETATM    8  C   UNK N   1      33.183  16.430   3.998  0.00  0.00     0.032 C 
BRANCH   7   9
HETATM    9  C   UNK N   1      31.716  16.805   6.062  0.00  0.00     0.062 C 
BRANCH   9  10
HETATM   10  C   UNK N   1      32.652  16.929   7.235  0.00  0.00    -0.056 A 
HETATM   11  C   UNK N   1      33.504  18.037   7.279  0.00  0.00     0.010 A 
HETATM   12  C   UNK N   1      34.459  18.155   8.290  0.00  0.00     0.037 A 
HETATM   13  C   UNK N   1      34.573  17.161   9.278  0.00  0.00     0.068 A 
HETATM   14  C   UNK N   1      33.700  16.069   9.253  0.00  0.00     0.037 A 
HETATM   15  C   UNK N   1      32.746  15.949   8.236  0.00  0.00     0.010 A 
BRANCH  13  16
HETATM   16  O   UNK N   1      35.519  17.228  10.244  0.00  0.00    -0.356 OA
HETATM   17  C   UNK N   1      36.054  16.113  10.850  0.00  0.00     0.210 C 
ENDBRANCH  13  16
ENDBRANCH   9  10
ENDBRANCH   7   9
ENDBRANCH   5   7
ENDBRANCH   4   5
ENDBRANCH   1   4
BRANCH   1  18
HETATM   18  C   UNK N   1      28.110  18.463   4.677  0.00  0.00    -0.026 A 
HETATM   19  C   UNK N   1      28.127  18.313   6.074  0.00  0.00     0.042 A 
HETATM   20  C   UNK N   1      27.605  19.311   6.914  0.00  0.00     0.068 A 
HETATM   21  C   UNK N   1      27.059  20.469   6.341  0.00  0.00     0.092 A 
HETATM   22  C   UNK N   1      27.037  20.623   4.952  0.00  0.00     0.039 A 
HETATM   23  C   UNK N   1      27.556  19.624   4.124  0.00  0.00     0.012 A 
BRANCH  20  24
HETATM   24  N   UNK N   1      27.610  19.176   8.336  0.00  0.00    -0.332 N 
HETATM   25  H   UNK N   1      27.098  19.843   8.849  0.00  0.00     0.168 HD
BRANCH  24  26
HETATM   26  C   UNK N   1      28.254  18.213   9.049  0.00  0.00     0.353 C 
HETATM   27  O   UNK N   1      27.654  17.284   9.566  0.00  0.00    -0.283 OA
ENDBRANCH  24  26
ENDBRANCH  20  24
BRANCH  21  28
HETATM   28  O   UNK N   1      26.547  21.437   7.121  0.00  0.00    -0.358 OA
HETATM   29  H   UNK N   1      27.080  22.000   7.646  0.00  0.00     0.217 HD
ENDBRANCH  21  28
ENDBRANCH   1  18
TORSDOF 11
ENDMDL
MODEL 2
REMARK VINA RESULT:      -6.7      2.312      4.844
REMARK  11 active torsions:
REMARK  status: ('A' for Active; 'I' for Inactive)
REMARK    1  A    between atoms: O_1  and  C_10 
REMARK    2  A    between atoms: O_2  and  C_23 
REMARK    3  A    between atoms: O_3  and  C_22 
REMARK    4  A    between atoms: N_5  and  C_7 
REMARK    5  A    between atoms: N_5  and  C_9 
REMARK    6  A    between atoms: N_6  and  C_18 
REMARK    7  A    between atoms: N_6  and  C_24 
REMARK    8  A    between atoms: C_7  and  C_8 
REMARK    9  A    between atoms: C_8  and  C_12 
REMARK   10  A    between atoms: C_9  and  C_10 
REMARK   11  A    between atoms: C_10  and  C_13 
ROOT
HETATM    1  C   UNK N   1      29.914  17.211   8.813  0.00  0.00     0.168 C 
ENDROOT
BRANCH   1   2
HETATM    2  O   UNK N   1      29.999  18.242   9.753  0.00  0.00    -0.389 OA
HETATM    3  H   UNK N   1      29.877  19.164   9.476  0.00  0.00     0.210 HD
ENDBRANCH   1   2
BRANCH   1   4
HETATM    4  C   UNK N   1      31.296  16.589   8.661  0.00  0.00     0.150 C 
BRANCH   4   5
HETATM    5  N   UNK N   1      32.352  17.524   9.027  0.00  0.00    -0.414 N 
HETATM    6  H   UNK N   1      32.277  18.327   9.651  0.00  0.00     0.153 HD
BRANCH   5   7
HETATM    7  C   UNK N   1      33.533  17.070   8.314  0.00  0.00     0.076 C 
HETATM    8  C   UNK N   1      34.761  17.079   9.208  0.00  0.00     0.032 C 
BRANCH   7   9
HETATM    9  C   UNK N   1      33.729  17.807   6.982  0.00  0.00     0.062 C 
BRANCH   9  10
HETATM   10  C   UNK N   1      33.600  17.013   5.710  0.00  0.00    -0.056 A 
HETATM   11  C   UNK N   1      34.128  15.718   5.689  0.00  0.00     0.010 A 
HETATM   12  C   UNK N   1      34.125  14.971   4.509  0.00  0.00     0.037 A 
HETATM   13  C   UNK N   1      33.589  15.514   3.329  0.00  0.00     0.068 A 
HETATM   14  C   UNK N   1      33.032  16.797   3.356  0.00  0.00     0.037 A 
HETATM   15  C   UNK N   1      33.040  17.546   4.538  0.00  0.00     0.010 A 
BRANCH  13  16
HETATM   16  O   UNK N   1      33.613  14.830   2.161  0.00  0.00    -0.356 OA
HETATM   17  C   UNK N   1      34.529  13.838   1.888  0.00  0.00     0.210 C 
ENDBRANCH  13  16
ENDBRANCH   9  10
ENDBRANCH   7   9
ENDBRANCH   5   7
ENDBRANCH   4   5
ENDBRANCH   1   4
BRANCH   1  18
HETATM   18  C   UNK N   1      29.355  17.721   7.505  0.00  0.00    -0.026 A 
HETATM   19  C   UNK N   1      28.225  18.554   7.479  0.00  0.00     0.042 A 
HETATM   20  C   UNK N   1      27.684  19.002   6.262  0.00  0.00     0.068 A 
HETATM   21  C   UNK N   1      28.288  18.602   5.059  0.00  0.00     0.092 A 
HETATM   22  C   UNK N   1      29.411  17.771   5.079  0.00  0.00     0.039 A 
HETATM   23  C   UNK N   1      29.940  17.330   6.294  0.00  0.00     0.012 A 
BRANCH  20  24
HETATM   24  N   UNK N   1      26.534  19.847   6.214  0.00  0.00    -0.332 N 
HETATM   25  H   UNK N   1      25.669  19.412   6.033  0.00  0.00     0.168 HD
BRANCH  24  26
HETATM   26  C   UNK N   1      26.519  21.195   6.395  0.00  0.00     0.353 C 
HETATM   27  O   UNK N   1      27.535  21.867   6.312  0.00  0.00    -0.283 OA
ENDBRANCH  24  26
ENDBRANCH  20  24
BRANCH  21  28
HETATM   28  O   UNK N   1      27.787  19.010   3.880  0.00  0.00    -0.358 OA
HETATM   29  H   UNK N   1      27.051  18.599   3.472  0.00  0.00     0.217 HD
ENDBRANCH  21  28
ENDBRANCH   1  18
TORSDOF 11
ENDMDL
MODEL 3
REMARK VINA RESULT:      -6.5     12.077     15.660
REMARK  11 active torsions:
REMARK  status: ('A' for Active; 'I' for Inactive)
REMARK    1  A    between atoms: O_1  and  C_10 
REMARK    2  A    between atoms: O_2  and  C_23 
REMARK    3  A    between atoms: O_3  and  C_22 
REMARK    4  A    between atoms: N_5  and  C_7 
REMARK    5  A    between atoms: N_5  and  C_9 
REMARK    6  A    between atoms: N_6  and  C_18 
REMARK    7  A    between atoms: N_6  and  C_24 
REMARK    8  A    between atoms: C_7  and  C_8 
REMARK    9  A    between atoms: C_8  and  C_12 
REMARK   10  A    between atoms: C_9  and  C_10 
REMARK   11  A    between atoms: C_10  and  C_13 
ROOT
HETATM    1  C   UNK N   1      27.402  22.639  -7.721  0.00  0.00     0.168 C 
ENDROOT
BRANCH   1   2
HETATM    2  O   UNK N   1      28.584  23.095  -8.310  0.00  0.00    -0.389 OA
HETATM    3  H   UNK N   1      29.439  22.912  -7.888  0.00  0.00     0.210 HD
ENDBRANCH   1   2
BRANCH   1   4
HETATM    4  C   UNK N   1      26.241  23.012  -8.634  0.00  0.00     0.150 C 
BRANCH   4   5
HETATM    5  N   UNK N   1      26.632  24.002  -9.628  0.00  0.00    -0.414 N 
HETATM    6  H   UNK N   1      27.235  23.859 -10.438  0.00  0.00     0.153 HD
BRANCH   5   7
HETATM    7  C   UNK N   1      25.982  25.235  -9.220  0.00  0.00     0.076 C 
HETATM    8  C   UNK N   1      25.048  25.756 -10.300  0.00  0.00     0.032 C 
BRANCH   7   9
HETATM    9  C   UNK N   1      26.983  26.280  -8.709  0.00  0.00     0.062 C 
BRANCH   9  10
HETATM   10  C   UNK N   1      26.772  26.845  -7.330  0.00  0.00    -0.056 A 
HETATM   11  C   UNK N   1      27.903  27.159  -6.570  0.00  0.00     0.010 A 
HETATM   12  C   UNK N   1      27.770  27.594  -5.250  0.00  0.00     0.037 A 
HETATM   13  C   UNK N   1      26.496  27.723  -4.671  0.00  0.00     0.068 A 
HETATM   14  C   UNK N   1      25.362  27.440  -5.441  0.00  0.00     0.037 A 
HETATM   15  C   UNK N   1      25.497  26.999  -6.762  0.00  0.00     0.010 A 
BRANCH  13  16
HETATM   16  O   UNK N   1      26.339  28.099  -3.380  0.00  0.00    -0.356 OA
HETATM   17  C   UNK N   1      27.171  28.999  -2.752  0.00  0.00     0.210 C 
ENDBRANCH  13  16
ENDBRANCH   9  10
ENDBRANCH   7   9
ENDBRANCH   5   7
ENDBRANCH   4   5
ENDBRANCH   1   4
BRANCH   1  18
HETATM   18  C   UNK N   1      27.248  23.193  -6.323  0.00  0.00    -0.026 A 
HETATM   19  C   UNK N   1      28.355  23.309  -5.467  0.00  0.00     0.042 A 
HETATM   20  C   UNK N   1      28.208  23.791  -4.156  0.00  0.00     0.068 A 
HETATM   21  C   UNK N   1      26.932  24.158  -3.703  0.00  0.00     0.092 A 
HETATM   22  C   UNK N   1      25.826  24.043  -4.550  0.00  0.00     0.039 A 
HETATM   23  C   UNK N   1      25.982  23.560  -5.851  0.00  0.00     0.012 A 
BRANCH  20  24
HETATM   24  N   UNK N   1      29.321  23.913  -3.269  0.00  0.00    -0.332 N 
HETATM   25  H   UNK N   1      29.742  24.801  -3.202  0.00  0.00     0.168 HD
BRANCH  24  26
HETATM   26  C   UNK N   1      29.856  22.919  -2.510  0.00  0.00     0.353 C 
HETATM   27  O   UNK N   1      30.462  23.152  -1.476  0.00  0.00    -0.283 OA
ENDBRANCH  24  26
ENDBRANCH  20  24
BRANCH  21  28
HETATM   28  O   UNK N   1      26.761  24.617  -2.451  0.00  0.00    -0.358 OA
HETATM   29  H   UNK N   1      26.300  24.136  -1.793  0.00  0.00     0.217 HD
ENDBRANCH  21  28
ENDBRANCH   1  18
TORSDOF 11
ENDMDL
MODEL 4
REMARK VINA RESULT:      -6.3     11.332     15.321
REMARK  11 active torsions:
REMARK  status: ('A' for Active; 'I' for Inactive)
REMARK    1  A    between atoms: O_1  and  C_10 
REMARK    2  A    between atoms: O_2  and  C_23 
REMARK    3  A    between atoms: O_3  and  C_22 
REMARK    4  A    between atoms: N_5  and  C_7 
REMARK    5  A    between atoms: N_5  and  C_9 
REMARK    6  A    between atoms: N_6  and  C_18 
REMARK    7  A    between atoms: N_6  and  C_24 
REMARK    8  A    between atoms: C_7  and  C_8 
REMARK    9  A    between atoms: C_8  and  C_12 
REMARK   10  A    between atoms: C_9  and  C_10 
REMARK   11  A    between atoms: C_10  and  C_13 
ROOT
HETATM    1  C   UNK N   1      28.025  24.328  -5.019  0.00  0.00     0.168 C 
ENDROOT
BRANCH   1   2
HETATM    2  O   UNK N   1      27.019  24.736  -4.139  0.00  0.00    -0.389 OA
HETATM    3  H   UNK N   1      27.247  25.239  -3.340  0.00  0.00     0.210 HD
ENDBRANCH   1   2
BRANCH   1   4
HETATM    4  C   UNK N   1      27.388  23.468  -6.104  0.00  0.00     0.150 C 
BRANCH   4   5
HETATM    5  N   UNK N   1      27.399  24.136  -7.398  0.00  0.00    -0.414 N 
HETATM    6  H   UNK N   1      28.196  24.259  -8.023  0.00  0.00     0.153 HD
BRANCH   5   7
HETATM    7  C   UNK N   1      26.036  24.590  -7.609  0.00  0.00     0.076 C 
HETATM    8  C   UNK N   1      25.335  23.770  -8.680  0.00  0.00     0.032 C 
BRANCH   7   9
HETATM    9  C   UNK N   1      25.955  26.105  -7.836  0.00  0.00     0.062 C 
BRANCH   9  10
HETATM   10  C   UNK N   1      25.977  27.002  -6.626  0.00  0.00    -0.056 A 
HETATM   11  C   UNK N   1      27.106  27.801  -6.425  0.00  0.00     0.010 A 
HETATM   12  C   UNK N   1      27.226  28.579  -5.271  0.00  0.00     0.037 A 
HETATM   13  C   UNK N   1      26.208  28.569  -4.301  0.00  0.00     0.068 A 
HETATM   14  C   UNK N   1      25.064  27.794  -4.517  0.00  0.00     0.037 A 
HETATM   15  C   UNK N   1      24.948  27.011  -5.672  0.00  0.00     0.010 A 
BRANCH  13  16
HETATM   16  O   UNK N   1      26.317  29.278  -3.153  0.00  0.00    -0.356 OA
HETATM   17  C   UNK N   1      27.521  29.728  -2.657  0.00  0.00     0.210 C 
ENDBRANCH  13  16
ENDBRANCH   9  10
ENDBRANCH   7   9
ENDBRANCH   5   7
ENDBRANCH   4   5
ENDBRANCH   1   4
BRANCH   1  18
HETATM   18  C   UNK N   1      29.129  23.609  -4.277  0.00  0.00    -0.026 A 
HETATM   19  C   UNK N   1      30.184  22.996  -4.972  0.00  0.00     0.042 A 
HETATM   20  C   UNK N   1      31.193  22.298  -4.287  0.00  0.00     0.068 A 
HETATM   21  C   UNK N   1      31.135  22.217  -2.887  0.00  0.00     0.092 A 
HETATM   22  C   UNK N   1      30.086  22.823  -2.190  0.00  0.00     0.039 A 
HETATM   23  C   UNK N   1      29.087  23.512  -2.882  0.00  0.00     0.012 A 
BRANCH  20  24
HETATM   24  N   UNK N   1      32.272  21.665  -4.975  0.00  0.00    -0.332 N 
HETATM   25  H   UNK N   1      33.048  22.228  -5.201  0.00  0.00     0.168 HD
BRANCH  24  26
HETATM   26  C   UNK N   1      32.329  20.359  -5.350  0.00  0.00     0.353 C 
HETATM   27  O   UNK N   1      32.566  19.468  -4.550  0.00  0.00    -0.283 OA
ENDBRANCH  24  26
ENDBRANCH  20  24
BRANCH  21  28
HETATM   28  O   UNK N   1      32.083  21.550  -2.206  0.00  0.00    -0.358 OA
HETATM   29  H   UNK N   1      31.954  21.236  -1.333  0.00  0.00     0.217 HD
ENDBRANCH  21  28
ENDBRANCH   1  18
TORSDOF 11
ENDMDL
MODEL 5
REMARK VINA RESULT:      -6.3     11.607     15.617
REMARK  11 active torsions:
REMARK  status: ('A' for Active; 'I' for Inactive)
REMARK    1  A    between atoms: O_1  and  C_10 
REMARK    2  A    between atoms: O_2  and  C_23 
REMARK    3  A    between atoms: O_3  and  C_22 
REMARK    4  A    between atoms: N_5  and  C_7 
REMARK    5  A    between atoms: N_5  and  C_9 
REMARK    6  A    between atoms: N_6  and  C_18 
REMARK    7  A    between atoms: N_6  and  C_24 
REMARK    8  A    between atoms: C_7  and  C_8 
REMARK    9  A    between atoms: C_8  and  C_12 
REMARK   10  A    between atoms: C_9  and  C_10 
REMARK   11  A    between atoms: C_10  and  C_13 
ROOT
HETATM    1  C   UNK N   1      30.353  28.098  -3.450  0.00  0.00     0.168 C 
ENDROOT
BRANCH   1   2
HETATM    2  O   UNK N   1      31.194  27.837  -2.365  0.00  0.00    -0.389 OA
HETATM    3  H   UNK N   1      32.157  27.895  -2.472  0.00  0.00     0.210 HD
ENDBRANCH   1   2
BRANCH   1   4
HETATM    4  C   UNK N   1      29.127  28.840  -2.934  0.00  0.00     0.150 C 
BRANCH   4   5
HETATM    5  N   UNK N   1      28.696  29.880  -3.858  0.00  0.00    -0.414 N 
HETATM    6  H   UNK N   1      29.287  30.533  -4.373  0.00  0.00     0.153 HD
BRANCH   5   7
HETATM    7  C   UNK N   1      27.247  29.791  -3.891  0.00  0.00     0.076 C 
HETATM    8  C   UNK N   1      26.599  31.045  -3.329  0.00  0.00     0.032 C 
BRANCH   7   9
HETATM    9  C   UNK N   1      26.729  28.490  -3.263  0.00  0.00     0.062 C 
BRANCH   9  10
HETATM   10  C   UNK N   1      26.247  27.403  -4.186  0.00  0.00    -0.056 A 
HETATM   11  C   UNK N   1      26.328  26.081  -3.740  0.00  0.00     0.010 A 
HETATM   12  C   UNK N   1      25.988  25.025  -4.588  0.00  0.00     0.037 A 
HETATM   13  C   UNK N   1      25.558  25.282  -5.901  0.00  0.00     0.068 A 
HETATM   14  C   UNK N   1      25.446  26.606  -6.339  0.00  0.00     0.037 A 
HETATM   15  C   UNK N   1      25.792  27.662  -5.489  0.00  0.00     0.010 A 
BRANCH  13  16
HETATM   16  O   UNK N   1      25.265  24.277  -6.760  0.00  0.00    -0.356 OA
HETATM   17  C   UNK N   1      26.122  23.864  -7.756  0.00  0.00     0.210 C 
ENDBRANCH  13  16
ENDBRANCH   9  10
ENDBRANCH   7   9
ENDBRANCH   5   7
ENDBRANCH   4   5
ENDBRANCH   1   4
BRANCH   1  18
HETATM   18  C   UNK N   1      29.999  26.820  -4.175  0.00  0.00    -0.026 A 
HETATM   19  C   UNK N   1      30.089  25.576  -3.530  0.00  0.00     0.042 A 
HETATM   20  C   UNK N   1      29.794  24.384  -4.213  0.00  0.00     0.068 A 
HETATM   21  C   UNK N   1      29.408  24.447  -5.560  0.00  0.00     0.092 A 
HETATM   22  C   UNK N   1      29.319  25.682  -6.209  0.00  0.00     0.039 A 
HETATM   23  C   UNK N   1      29.617  26.861  -5.522  0.00  0.00     0.012 A 
BRANCH  20  24
HETATM   24  N   UNK N   1      29.882  23.109  -3.575  0.00  0.00    -0.332 N 
HETATM   25  H   UNK N   1      29.256  22.413  -3.881  0.00  0.00     0.168 HD
BRANCH  24  26
HETATM   26  C   UNK N   1      30.748  22.764  -2.584  0.00  0.00     0.353 C 
HETATM   27  O   UNK N   1      30.500  22.978  -1.408  0.00  0.00    -0.283 OA
ENDBRANCH  24  26
ENDBRANCH  20  24
BRANCH  21  28
HETATM   28  O   UNK N   1      29.126  23.322  -6.240  0.00  0.00    -0.358 OA
HETATM   29  H   UNK N   1      29.328  23.214  -7.148  0.00  0.00     0.217 HD
ENDBRANCH  21  28
ENDBRANCH   1  18
TORSDOF 11
ENDMDL
MODEL 6
REMARK VINA RESULT:      -6.3     11.222     14.847
REMARK  11 active torsions:
REMARK  status: ('A' for Active; 'I' for Inactive)
REMARK    1  A    between atoms: O_1  and  C_10 
REMARK    2  A    between atoms: O_2  and  C_23 
REMARK    3  A    between atoms: O_3  and  C_22 
REMARK    4  A    between atoms: N_5  and  C_7 
REMARK    5  A    between atoms: N_5  and  C_9 
REMARK    6  A    between atoms: N_6  and  C_18 
REMARK    7  A    between atoms: N_6  and  C_24 
REMARK    8  A    between atoms: C_7  and  C_8 
REMARK    9  A    between atoms: C_8  and  C_12 
REMARK   10  A    between atoms: C_9  and  C_10 
REMARK   11  A    between atoms: C_10  and  C_13 
ROOT
HETATM    1  C   UNK N   1      29.347  21.126  -6.771  0.00  0.00     0.168 C 
ENDROOT
BRANCH   1   2
HETATM    2  O   UNK N   1      30.071  20.698  -7.887  0.00  0.00    -0.389 OA
HETATM    3  H   UNK N   1      30.506  21.348  -8.463  0.00  0.00     0.210 HD
ENDBRANCH   1   2
BRANCH   1   4
HETATM    4  C   UNK N   1      28.723  22.477  -7.099  0.00  0.00     0.150 C 
BRANCH   4   5
HETATM    5  N   UNK N   1      27.301  22.358  -7.393  0.00  0.00    -0.414 N 
HETATM    6  H   UNK N   1      26.805  21.527  -7.716  0.00  0.00     0.153 HD
BRANCH   5   7
HETATM    7  C   UNK N   1      26.742  23.672  -7.131  0.00  0.00     0.076 C 
HETATM    8  C   UNK N   1      27.801  24.758  -7.229  0.00  0.00     0.032 C 
BRANCH   7   9
HETATM    9  C   UNK N   1      25.932  23.712  -5.828  0.00  0.00     0.062 C 
BRANCH   9  10
HETATM   10  C   UNK N   1      25.853  25.019  -5.085  0.00  0.00    -0.056 A 
HETATM   11  C   UNK N   1      25.166  26.076  -5.690  0.00  0.00     0.010 A 
HETATM   12  C   UNK N   1      25.143  27.338  -5.093  0.00  0.00     0.037 A 
HETATM   13  C   UNK N   1      25.810  27.559  -3.876  0.00  0.00     0.068 A 
HETATM   14  C   UNK N   1      26.471  26.494  -3.254  0.00  0.00     0.037 A 
HETATM   15  C   UNK N   1      26.497  25.231  -3.855  0.00  0.00     0.010 A 
BRANCH  13  16
HETATM   16  O   UNK N   1      25.842  28.783  -3.298  0.00  0.00    -0.356 OA
HETATM   17  C   UNK N   1      26.573  29.835  -3.802  0.00  0.00     0.210 C 
ENDBRANCH  13  16
ENDBRANCH   9  10
ENDBRANCH   7   9
ENDBRANCH   5   7
ENDBRANCH   4   5
ENDBRANCH   1   4
BRANCH   1  18
HETATM   18  C   UNK N   1      30.228  21.173  -5.544  0.00  0.00    -0.026 A 
HETATM   19  C   UNK N   1      31.255  20.233  -5.357  0.00  0.00     0.042 A 
HETATM   20  C   UNK N   1      32.052  20.252  -4.200  0.00  0.00     0.068 A 
HETATM   21  C   UNK N   1      31.809  21.229  -3.221  0.00  0.00     0.092 A 
HETATM   22  C   UNK N   1      30.787  22.165  -3.401  0.00  0.00     0.039 A 
HETATM   23  C   UNK N   1      29.999  22.135  -4.553  0.00  0.00     0.012 A 
BRANCH  20  24
HETATM   24  N   UNK N   1      33.098  19.303  -3.990  0.00  0.00    -0.332 N 
HETATM   25  H   UNK N   1      33.018  18.718  -3.202  0.00  0.00     0.168 HD
BRANCH  24  26
HETATM   26  C   UNK N   1      34.196  19.131  -4.775  0.00  0.00     0.353 C 
HETATM   27  O   UNK N   1      35.328  19.200  -4.324  0.00  0.00    -0.283 OA
ENDBRANCH  24  26
ENDBRANCH  20  24
BRANCH  21  28
HETATM   28  O   UNK N   1      32.552  21.267  -2.102  0.00  0.00    -0.358 OA
HETATM   29  H   UNK N   1      33.425  20.932  -2.061  0.00  0.00     0.217 HD
ENDBRANCH  21  28
ENDBRANCH   1  18
TORSDOF 11
ENDMDL
MODEL 7
REMARK VINA RESULT:      -6.2      9.025     10.501
REMARK  11 active torsions:
REMARK  status: ('A' for Active; 'I' for Inactive)
REMARK    1  A    between atoms: O_1  and  C_10 
REMARK    2  A    between atoms: O_2  and  C_23 
REMARK    3  A    between atoms: O_3  and  C_22 
REMARK    4  A    between atoms: N_5  and  C_7 
REMARK    5  A    between atoms: N_5  and  C_9 
REMARK    6  A    between atoms: N_6  and  C_18 
REMARK    7  A    between atoms: N_6  and  C_24 
REMARK    8  A    between atoms: C_7  and  C_8 
REMARK    9  A    between atoms: C_8  and  C_12 
REMARK   10  A    between atoms: C_9  and  C_10 
REMARK   11  A    between atoms: C_10  and  C_13 
ROOT
HETATM    1  C   UNK N   1      21.247  17.312   5.958  0.00  0.00     0.168 C 
ENDROOT
BRANCH   1   2
HETATM    2  O   UNK N   1      21.554  18.564   6.497  0.00  0.00    -0.389 OA
HETATM    3  H   UNK N   1      22.447  18.931   6.395  0.00  0.00     0.210 HD
ENDBRANCH   1   2
BRANCH   1   4
HETATM    4  C   UNK N   1      22.412  16.372   6.240  0.00  0.00     0.150 C 
BRANCH   4   5
HETATM    5  N   UNK N   1      22.053  15.340   7.201  0.00  0.00    -0.414 N 
HETATM    6  H   UNK N   1      21.844  15.464   8.192  0.00  0.00     0.153 HD
BRANCH   5   7
HETATM    7  C   UNK N   1      22.057  14.096   6.451  0.00  0.00     0.076 C 
HETATM    8  C   UNK N   1      20.651  13.548   6.273  0.00  0.00     0.032 C 
BRANCH   7   9
HETATM    9  C   UNK N   1      23.054  13.076   7.018  0.00  0.00     0.062 C 
BRANCH   9  10
HETATM   10  C   UNK N   1      22.914  12.682   8.465  0.00  0.00    -0.056 A 
HETATM   11  C   UNK N   1      21.632  12.680   9.023  0.00  0.00     0.010 A 
HETATM   12  C   UNK N   1      21.452  12.419  10.383  0.00  0.00     0.037 A 
HETATM   13  C   UNK N   1      22.560  12.151  11.205  0.00  0.00     0.068 A 
HETATM   14  C   UNK N   1      23.840  12.120  10.641  0.00  0.00     0.037 A 
HETATM   15  C   UNK N   1      24.019  12.387   9.279  0.00  0.00     0.010 A 
BRANCH  13  16
HETATM   16  O   UNK N   1      22.420  11.937  12.534  0.00  0.00    -0.356 OA
HETATM   17  C   UNK N   1      23.466  12.030  13.426  0.00  0.00     0.210 C 
ENDBRANCH  13  16
ENDBRANCH   9  10
ENDBRANCH   7   9
ENDBRANCH   5   7
ENDBRANCH   4   5
ENDBRANCH   1   4
BRANCH   1  18
HETATM   18  C   UNK N   1      20.930  17.425   4.484  0.00  0.00    -0.026 A 
HETATM   19  C   UNK N   1      20.637  18.669   3.902  0.00  0.00     0.042 A 
HETATM   20  C   UNK N   1      20.309  18.771   2.540  0.00  0.00     0.068 A 
HETATM   21  C   UNK N   1      20.274  17.607   1.757  0.00  0.00     0.092 A 
HETATM   22  C   UNK N   1      20.563  16.365   2.331  0.00  0.00     0.039 A 
HETATM   23  C   UNK N   1      20.885  16.274   3.687  0.00  0.00     0.012 A 
BRANCH  20  24
HETATM   24  N   UNK N   1      20.005  20.026   1.931  0.00  0.00    -0.332 N 
HETATM   25  H   UNK N   1      19.082  20.356   2.026  0.00  0.00     0.168 HD
BRANCH  24  26
HETATM   26  C   UNK N   1      20.869  20.810   1.230  0.00  0.00     0.353 C 
HETATM   27  O   UNK N   1      21.147  20.580   0.064  0.00  0.00    -0.283 OA
ENDBRANCH  24  26
ENDBRANCH  20  24
BRANCH  21  28
HETATM   28  O   UNK N   1      19.957  17.674   0.453  0.00  0.00    -0.358 OA
HETATM   29  H   UNK N   1      20.240  18.373  -0.102  0.00  0.00     0.217 HD
ENDBRANCH  21  28
ENDBRANCH   1  18
TORSDOF 11
ENDMDL
MODEL 8
REMARK VINA RESULT:      -6.2      3.409      8.877
REMARK  11 active torsions:
REMARK  status: ('A' for Active; 'I' for Inactive)
REMARK    1  A    between atoms: O_1  and  C_10 
REMARK    2  A    between atoms: O_2  and  C_23 
REMARK    3  A    between atoms: O_3  and  C_22 
REMARK    4  A    between atoms: N_5  and  C_7 
REMARK    5  A    between atoms: N_5  and  C_9 
REMARK    6  A    between atoms: N_6  and  C_18 
REMARK    7  A    between atoms: N_6  and  C_24 
REMARK    8  A    between atoms: C_7  and  C_8 
REMARK    9  A    between atoms: C_8  and  C_12 
REMARK   10  A    between atoms: C_9  and  C_10 
REMARK   11  A    between atoms: C_10  and  C_13 
ROOT
HETATM    1  C   UNK N   1      29.641  16.821   4.203  0.00  0.00     0.168 C 
ENDROOT
BRANCH   1   2
HETATM    2  O   UNK N   1      29.763  17.003   2.822  0.00  0.00    -0.389 OA
HETATM    3  H   UNK N   1      30.569  16.715   2.364  0.00  0.00     0.210 HD
ENDBRANCH   1   2
BRANCH   1   4
HETATM    4  C   UNK N   1      28.549  17.753   4.711  0.00  0.00     0.150 C 
BRANCH   4   5
HETATM    5  N   UNK N   1      28.046  18.622   3.656  0.00  0.00    -0.414 N 
HETATM    6  H   UNK N   1      28.302  18.607   2.668  0.00  0.00     0.153 HD
BRANCH   5   7
HETATM    7  C   UNK N   1      27.105  19.516   4.308  0.00  0.00     0.076 C 
HETATM    8  C   UNK N   1      27.782  20.350   5.382  0.00  0.00     0.032 C 
BRANCH   7   9
HETATM    9  C   UNK N   1      25.846  18.785   4.792  0.00  0.00     0.062 C 
BRANCH   9  10
HETATM   10  C   UNK N   1      24.517  19.223   4.236  0.00  0.00    -0.056 A 
HETATM   11  C   UNK N   1      23.388  18.468   4.566  0.00  0.00     0.010 A 
HETATM   12  C   UNK N   1      22.146  18.768   4.001  0.00  0.00     0.037 A 
HETATM   13  C   UNK N   1      22.019  19.837   3.097  0.00  0.00     0.068 A 
HETATM   14  C   UNK N   1      23.142  20.613   2.792  0.00  0.00     0.037 A 
HETATM   15  C   UNK N   1      24.386  20.307   3.354  0.00  0.00     0.010 A 
BRANCH  13  16
HETATM   16  O   UNK N   1      20.837  20.123   2.502  0.00  0.00    -0.356 OA
HETATM   17  C   UNK N   1      20.741  20.625   1.222  0.00  0.00     0.210 C 
ENDBRANCH  13  16
ENDBRANCH   9  10
ENDBRANCH   7   9
ENDBRANCH   5   7
ENDBRANCH   4   5
ENDBRANCH   1   4
BRANCH   1  18
HETATM   18  C   UNK N   1      30.967  17.043   4.894  0.00  0.00    -0.026 A 
HETATM   19  C   UNK N   1      31.095  16.868   6.282  0.00  0.00     0.042 A 
HETATM   20  C   UNK N   1      32.317  17.107   6.931  0.00  0.00     0.068 A 
HETATM   21  C   UNK N   1      33.421  17.530   6.174  0.00  0.00     0.092 A 
HETATM   22  C   UNK N   1      33.299  17.708   4.793  0.00  0.00     0.039 A 
HETATM   23  C   UNK N   1      32.078  17.470   4.157  0.00  0.00     0.012 A 
BRANCH  20  24
HETATM   24  N   UNK N   1      32.467  16.938   8.341  0.00  0.00    -0.332 N 
HETATM   25  H   UNK N   1      32.089  17.642   8.917  0.00  0.00     0.168 HD
BRANCH  24  26
HETATM   26  C   UNK N   1      33.083  15.898   8.965  0.00  0.00     0.353 C 
HETATM   27  O   UNK N   1      34.253  15.954   9.309  0.00  0.00    -0.283 OA
ENDBRANCH  24  26
ENDBRANCH  20  24
BRANCH  21  28
HETATM   28  O   UNK N   1      34.601  17.772   6.770  0.00  0.00    -0.358 OA
HETATM   29  H   UNK N   1      34.670  18.091   7.647  0.00  0.00     0.217 HD
ENDBRANCH  21  28
ENDBRANCH   1  18
TORSDOF 11
ENDMDL
MODEL 9
REMARK VINA RESULT:      -6.2      2.316      7.419
REMARK  11 active torsions:
REMARK  status: ('A' for Active; 'I' for Inactive)
REMARK    1  A    between atoms: O_1  and  C_10 
REMARK    2  A    between atoms: O_2  and  C_23 
REMARK    3  A    between atoms: O_3  and  C_22 
REMARK    4  A    between atoms: N_5  and  C_7 
REMARK    5  A    between atoms: N_5  and  C_9 
REMARK    6  A    between atoms: N_6  and  C_18 
REMARK    7  A    between atoms: N_6  and  C_24 
REMARK    8  A    between atoms: C_7  and  C_8 
REMARK    9  A    between atoms: C_8  and  C_12 
REMARK   10  A    between atoms: C_9  and  C_10 
REMARK   11  A    between atoms: C_10  and  C_13 
ROOT
HETATM    1  C   UNK N   1      29.103  17.426   7.951  0.00  0.00     0.168 C 
ENDROOT
BRANCH   1   2
HETATM    2  O   UNK N   1      28.356  16.593   7.113  0.00  0.00    -0.389 OA
HETATM    3  H   UNK N   1      28.527  16.586   6.158  0.00  0.00     0.210 HD
ENDBRANCH   1   2
BRANCH   1   4
HETATM    4  C   UNK N   1      28.488  18.819   7.909  0.00  0.00     0.150 C 
BRANCH   4   5
HETATM    5  N   UNK N   1      27.425  18.910   6.918  0.00  0.00    -0.414 N 
HETATM    6  H   UNK N   1      26.680  18.234   6.746  0.00  0.00     0.153 HD
BRANCH   5   7
HETATM    7  C   UNK N   1      27.651  20.166   6.225  0.00  0.00     0.076 C 
HETATM    8  C   UNK N   1      26.543  21.167   6.509  0.00  0.00     0.032 C 
BRANCH   7   9
HETATM    9  C   UNK N   1      27.936  19.964   4.730  0.00  0.00     0.062 C 
BRANCH   9  10
HETATM   10  C   UNK N   1      27.478  18.680   4.091  0.00  0.00    -0.056 A 
HETATM   11  C   UNK N   1      26.121  18.551   3.779  0.00  0.00     0.010 A 
HETATM   12  C   UNK N   1      25.622  17.348   3.275  0.00  0.00     0.037 A 
HETATM   13  C   UNK N   1      26.481  16.253   3.075  0.00  0.00     0.068 A 
HETATM   14  C   UNK N   1      27.844  16.391   3.357  0.00  0.00     0.037 A 
HETATM   15  C   UNK N   1      28.342  17.596   3.866  0.00  0.00     0.010 A 
BRANCH  13  16
HETATM   16  O   UNK N   1      26.017  15.062   2.630  0.00  0.00    -0.356 OA
HETATM   17  C   UNK N   1      24.743  14.886   2.137  0.00  0.00     0.210 C 
ENDBRANCH  13  16
ENDBRANCH   9  10
ENDBRANCH   7   9
ENDBRANCH   5   7
ENDBRANCH   4   5
ENDBRANCH   1   4
BRANCH   1  18
HETATM   18  C   UNK N   1      30.562  17.419   7.555  0.00  0.00    -0.026 A 
HETATM   19  C   UNK N   1      31.572  17.571   8.519  0.00  0.00     0.042 A 
HETATM   20  C   UNK N   1      32.927  17.600   8.148  0.00  0.00     0.068 A 
HETATM   21  C   UNK N   1      33.266  17.478   6.792  0.00  0.00     0.092 A 
HETATM   22  C   UNK N   1      32.265  17.329   5.828  0.00  0.00     0.039 A 
HETATM   23  C   UNK N   1      30.920  17.304   6.206  0.00  0.00     0.012 A 
BRANCH  20  24
HETATM   24  N   UNK N   1      33.968  17.756   9.112  0.00  0.00    -0.332 N 
HETATM   25  H   UNK N   1      34.209  18.678   9.364  0.00  0.00     0.168 HD
BRANCH  24  26
HETATM   26  C   UNK N   1      34.661  16.753   9.717  0.00  0.00     0.353 C 
HETATM   27  O   UNK N   1      34.320  15.585   9.619  0.00  0.00    -0.283 OA
ENDBRANCH  24  26
ENDBRANCH  20  24
BRANCH  21  28
HETATM   28  O   UNK N   1      34.554  17.508   6.407  0.00  0.00    -0.358 OA
HETATM   29  H   UNK N   1      34.990  16.767   6.037  0.00  0.00     0.217 HD
ENDBRANCH  21  28
ENDBRANCH   1  18
TORSDOF 11
ENDMDL
