MODEL 1
REMARK VINA RESULT:      -5.7      0.000      0.000
REMARK  6 active torsions:
REMARK  status: ('A' for Active; 'I' for Inactive)
REMARK    1  A    between atoms: C_10  and  O_2 
REMARK    2  A    between atoms: C_11  and  O_3 
REMARK    3  A    between atoms: O_4  and  C_14 
REMARK    4  A    between atoms: C_12  and  N_6 
REMARK    5  A    between atoms: N_9  and  C_18 
REMARK    6  A    between atoms: C_13  and  C_14 
ROOT
HETATM    1  O   UNK N   1      21.511  19.363   3.287  0.00  0.00    -0.353 OA
HETATM    2  C   UNK N   1      20.083  17.526   3.169  0.00  0.00     0.198 C 
HETATM    3  C   UNK N   1      19.590  18.561   2.175  0.00  0.00     0.182 C 
HETATM    4  C   UNK N   1      20.973  18.344   4.087  0.00  0.00     0.263 C 
HETATM    5  C   UNK N   1      20.429  19.782   2.504  0.00  0.00     0.179 C 
ENDROOT
BRANCH   4   6
HETATM    6  N   UNK N   1      22.043  17.556   4.731  0.00  0.00    -0.280 N 
HETATM    7  C   UNK N   1      23.278  17.516   4.146  0.00  0.00     0.102 A 
HETATM    8  C   UNK N   1      24.336  16.840   4.746  0.00  0.00     0.065 A 
HETATM    9  C   UNK N   1      24.119  16.204   5.961  0.00  0.00     0.103 A 
HETATM   10  N   UNK N   1      22.889  16.243   6.536  0.00  0.00    -0.295 N 
HETATM   11  C   UNK N   1      21.852  16.910   5.939  0.00  0.00     0.330 A 
ATOM     12  HN  UNK N   1      22.736  15.769   7.425  1.00  0.00     0.172 HD
HETATM   13  O   UNK N   1      20.768  16.946   6.498  0.00  0.00    -0.246 OA
BRANCH   9  14
HETATM   14  N   UNK N   1      25.177  15.532   6.602  0.00  0.00    -0.385 N 
HETATM   15  H   UNK N   1      25.364  15.674   7.558  0.00  0.00     0.157 HD
HETATM   16  H   UNK N   1      25.738  14.909   6.086  0.00  0.00     0.157 HD
ENDBRANCH   9  14
ENDBRANCH   4   6
BRANCH   2  17
HETATM   17  O   UNK N   1      19.031  16.930   3.870  0.00  0.00    -0.388 OA
HETATM   18  H   UNK N   1      19.082  16.041   4.254  0.00  0.00     0.210 HD
ENDBRANCH   2  17
BRANCH   5  19
HETATM   19  C   UNK N   1      20.928  20.432   1.226  0.00  0.00     0.198 C 
BRANCH  19  20
HETATM   20  O   UNK N   1      20.548  19.665   0.124  0.00  0.00    -0.398 OA
HETATM   21  H   UNK N   1      20.713  18.717   0.003  0.00  0.00     0.209 HD
ENDBRANCH  19  20
ENDBRANCH   5  19
BRANCH   3  22
HETATM   22  O   UNK N   1      18.240  18.878   2.354  0.00  0.00    -0.390 OA
HETATM   23  H   UNK N   1      17.758  19.079   3.171  0.00  0.00     0.210 HD
ENDBRANCH   3  22
TORSDOF 6
ENDMDL
MODEL 2
REMARK VINA RESULT:      -5.6      1.866      1.998
REMARK  6 active torsions:
REMARK  status: ('A' for Active; 'I' for Inactive)
REMARK    1  A    between atoms: C_10  and  O_2 
REMARK    2  A    between atoms: C_11  and  O_3 
REMARK    3  A    between atoms: O_4  and  C_14 
REMARK    4  A    between atoms: C_12  and  N_6 
REMARK    5  A    between atoms: N_9  and  C_18 
REMARK    6  A    between atoms: C_13  and  C_14 
ROOT
HETATM    1  O   UNK N   1      21.814  20.450   2.911  0.00  0.00    -0.353 OA
HETATM    2  C   UNK N   1      21.194  18.206   2.841  0.00  0.00     0.198 C 
HETATM    3  C   UNK N   1      20.177  18.993   2.035  0.00  0.00     0.182 C 
HETATM    4  C   UNK N   1      21.853  19.282   3.685  0.00  0.00     0.263 C 
HETATM    5  C   UNK N   1      20.534  20.435   2.344  0.00  0.00     0.179 C 
ENDROOT
BRANCH   4   6
HETATM    6  N   UNK N   1      23.238  18.956   4.083  0.00  0.00    -0.280 N 
HETATM    7  C   UNK N   1      24.274  19.576   3.440  0.00  0.00     0.102 A 
HETATM    8  C   UNK N   1      25.593  19.351   3.821  0.00  0.00     0.065 A 
HETATM    9  C   UNK N   1      25.846  18.484   4.874  0.00  0.00     0.103 A 
HETATM   10  N   UNK N   1      24.815  17.867   5.506  0.00  0.00    -0.295 N 
HETATM   11  C   UNK N   1      23.517  18.093   5.126  0.00  0.00     0.330 A 
ATOM     12  HN  UNK N   1      25.009  17.226   6.275  1.00  0.00     0.172 HD
HETATM   13  O   UNK N   1      22.615  17.540   5.734  0.00  0.00    -0.246 OA
BRANCH   9  14
HETATM   14  N   UNK N   1      27.170  18.255   5.295  0.00  0.00    -0.385 N 
HETATM   15  H   UNK N   1      27.905  18.188   4.643  0.00  0.00     0.157 HD
HETATM   16  H   UNK N   1      27.363  18.160   6.255  0.00  0.00     0.157 HD
ENDBRANCH   9  14
ENDBRANCH   4   6
BRANCH   2  17
HETATM   17  O   UNK N   1      20.588  17.229   3.636  0.00  0.00    -0.388 OA
HETATM   18  H   UNK N   1      19.629  17.171   3.772  0.00  0.00     0.210 HD
ENDBRANCH   2  17
BRANCH   5  19
HETATM   19  C   UNK N   1      20.515  21.262   1.072  0.00  0.00     0.198 C 
BRANCH  19  20
HETATM   20  O   UNK N   1      20.621  20.425  -0.040  0.00  0.00    -0.398 OA
HETATM   21  H   UNK N   1      20.130  19.602  -0.184  0.00  0.00     0.209 HD
ENDBRANCH  19  20
ENDBRANCH   5  19
BRANCH   3  22
HETATM   22  O   UNK N   1      18.863  18.754   2.446  0.00  0.00    -0.390 OA
HETATM   23  H   UNK N   1      18.263  19.323   2.953  0.00  0.00     0.210 HD
ENDBRANCH   3  22
TORSDOF 6
ENDMDL
MODEL 3
REMARK VINA RESULT:      -5.6     13.544     16.214
REMARK  6 active torsions:
REMARK  status: ('A' for Active; 'I' for Inactive)
REMARK    1  A    between atoms: C_10  and  O_2 
REMARK    2  A    between atoms: C_11  and  O_3 
REMARK    3  A    between atoms: O_4  and  C_14 
REMARK    4  A    between atoms: C_12  and  N_6 
REMARK    5  A    between atoms: N_9  and  C_18 
REMARK    6  A    between atoms: C_13  and  C_14 
ROOT
HETATM    1  O   UNK N   1      34.490  13.987  12.120  0.00  0.00    -0.353 OA
HETATM    2  C   UNK N   1      36.346  13.995  10.712  0.00  0.00     0.198 C 
HETATM    3  C   UNK N   1      36.568  12.925  11.766  0.00  0.00     0.182 C 
HETATM    4  C   UNK N   1      35.263  14.856  11.336  0.00  0.00     0.263 C 
HETATM    5  C   UNK N   1      35.437  13.169  12.747  0.00  0.00     0.179 C 
ENDROOT
BRANCH   4   6
HETATM    6  N   UNK N   1      34.425  15.563  10.346  0.00  0.00    -0.280 N 
HETATM    7  C   UNK N   1      33.306  14.942   9.863  0.00  0.00     0.102 A 
HETATM    8  C   UNK N   1      32.451  15.590   8.977  0.00  0.00     0.065 A 
HETATM    9  C   UNK N   1      32.749  16.889   8.590  0.00  0.00     0.103 A 
HETATM   10  N   UNK N   1      33.864  17.499   9.069  0.00  0.00    -0.295 N 
HETATM   11  C   UNK N   1      34.703  16.855   9.941  0.00  0.00     0.330 A 
ATOM     12  HN  UNK N   1      34.080  18.452   8.775  1.00  0.00     0.172 HD
HETATM   13  O   UNK N   1      35.681  17.445  10.370  0.00  0.00    -0.246 OA
BRANCH   9  14
HETATM   14  N   UNK N   1      31.890  17.576   7.713  0.00  0.00    -0.385 N 
HETATM   15  H   UNK N   1      32.032  17.552   6.739  0.00  0.00     0.157 HD
HETATM   16  H   UNK N   1      31.134  18.091   8.079  0.00  0.00     0.157 HD
ENDBRANCH   9  14
ENDBRANCH   4   6
BRANCH   2  17
HETATM   17  O   UNK N   1      37.508  14.731  10.462  0.00  0.00    -0.388 OA
HETATM   18  H   UNK N   1      37.959  15.261  11.138  0.00  0.00     0.210 HD
ENDBRANCH   2  17
BRANCH   5  19
HETATM   19  C   UNK N   1      34.803  11.851  13.152  0.00  0.00     0.198 C 
BRANCH  19  20
HETATM   20  O   UNK N   1      34.090  11.317  12.077  0.00  0.00    -0.398 OA
HETATM   21  H   UNK N   1      34.465  11.027  11.231  0.00  0.00     0.209 HD
ENDBRANCH  19  20
ENDBRANCH   5  19
BRANCH   3  22
HETATM   22  O   UNK N   1      37.787  13.072  12.434  0.00  0.00    -0.390 OA
HETATM   23  H   UNK N   1      37.993  13.581  13.233  0.00  0.00     0.210 HD
ENDBRANCH   3  22
TORSDOF 6
ENDMDL
MODEL 4
REMARK VINA RESULT:      -5.5      6.775      9.471
REMARK  6 active torsions:
REMARK  status: ('A' for Active; 'I' for Inactive)
REMARK    1  A    between atoms: C_10  and  O_2 
REMARK    2  A    between atoms: C_11  and  O_3 
REMARK    3  A    between atoms: O_4  and  C_14 
REMARK    4  A    between atoms: C_12  and  N_6 
REMARK    5  A    between atoms: N_9  and  C_18 
REMARK    6  A    between atoms: C_13  and  C_14 
ROOT
HETATM    1  O   UNK N   1      29.953  17.640   6.954  0.00  0.00    -0.353 OA
HETATM    2  C   UNK N   1      28.584  18.574   8.591  0.00  0.00     0.198 C 
HETATM    3  C   UNK N   1      29.857  18.099   9.267  0.00  0.00     0.182 C 
HETATM    4  C   UNK N   1      28.599  17.810   7.280  0.00  0.00     0.263 C 
HETATM    5  C   UNK N   1      30.553  17.309   8.175  0.00  0.00     0.179 C 
ENDROOT
BRANCH   4   6
HETATM    6  N   UNK N   1      27.874  18.493   6.189  0.00  0.00    -0.280 N 
HETATM    7  C   UNK N   1      27.762  19.856   6.221  0.00  0.00     0.102 A 
HETATM    8  C   UNK N   1      27.144  20.551   5.186  0.00  0.00     0.065 A 
HETATM    9  C   UNK N   1      26.642  19.836   4.108  0.00  0.00     0.103 A 
HETATM   10  N   UNK N   1      26.751  18.482   4.083  0.00  0.00    -0.295 N 
HETATM   11  C   UNK N   1      27.360  17.804   5.106  0.00  0.00     0.330 A 
ATOM     12  HN  UNK N   1      26.374  17.963   3.291  1.00  0.00     0.172 HD
HETATM   13  O   UNK N   1      27.463  16.590   5.036  0.00  0.00    -0.246 OA
BRANCH   9  14
HETATM   14  N   UNK N   1      26.032  20.515   3.037  0.00  0.00    -0.385 N 
HETATM   15  H   UNK N   1      26.512  20.664   2.190  0.00  0.00     0.157 HD
HETATM   16  H   UNK N   1      25.110  20.846   3.135  0.00  0.00     0.157 HD
ENDBRANCH   9  14
ENDBRANCH   4   6
BRANCH   2  17
HETATM   17  O   UNK N   1      27.447  18.274   9.347  0.00  0.00    -0.388 OA
HETATM   18  H   UNK N   1      27.395  17.520   9.956  0.00  0.00     0.210 HD
ENDBRANCH   2  17
BRANCH   5  19
HETATM   19  C   UNK N   1      32.030  17.652   8.142  0.00  0.00     0.198 C 
BRANCH  19  20
HETATM   20  O   UNK N   1      32.656  17.165   9.291  0.00  0.00    -0.398 OA
HETATM   21  H   UNK N   1      33.609  17.032   9.409  0.00  0.00     0.209 HD
ENDBRANCH  19  20
ENDBRANCH   5  19
BRANCH   3  22
HETATM   22  O   UNK N   1      29.607  17.251  10.350  0.00  0.00    -0.390 OA
HETATM   23  H   UNK N   1      29.888  17.333  11.275  0.00  0.00     0.210 HD
ENDBRANCH   3  22
TORSDOF 6
ENDMDL
MODEL 5
REMARK VINA RESULT:      -5.5      2.873      5.352
REMARK  6 active torsions:
REMARK  status: ('A' for Active; 'I' for Inactive)
REMARK    1  A    between atoms: C_10  and  O_2 
REMARK    2  A    between atoms: C_11  and  O_3 
REMARK    3  A    between atoms: O_4  and  C_14 
REMARK    4  A    between atoms: C_12  and  N_6 
REMARK    5  A    between atoms: N_9  and  C_18 
REMARK    6  A    between atoms: C_13  and  C_14 
ROOT
HETATM    1  O   UNK N   1      20.965  17.655   5.505  0.00  0.00    -0.353 OA
HETATM    2  C   UNK N   1      19.215  16.435   4.571  0.00  0.00     0.198 C 
HETATM    3  C   UNK N   1      19.356  16.008   6.020  0.00  0.00     0.182 C 
HETATM    4  C   UNK N   1      20.552  17.095   4.288  0.00  0.00     0.263 C 
HETATM    5  C   UNK N   1      20.649  16.673   6.451  0.00  0.00     0.179 C 
ENDROOT
BRANCH   4   6
HETATM    6  N   UNK N   1      20.493  18.120   3.226  0.00  0.00    -0.280 N 
HETATM    7  C   UNK N   1      20.643  19.436   3.568  0.00  0.00     0.102 A 
HETATM    8  C   UNK N   1      20.658  20.433   2.599  0.00  0.00     0.065 A 
HETATM    9  C   UNK N   1      20.522  20.071   1.266  0.00  0.00     0.103 A 
HETATM   10  N   UNK N   1      20.368  18.764   0.931  0.00  0.00    -0.295 N 
HETATM   11  C   UNK N   1      20.354  17.787   1.891  0.00  0.00     0.330 A 
ATOM     12  HN  UNK N   1      20.263  18.507  -0.050  1.00  0.00     0.172 HD
HETATM   13  O   UNK N   1      20.240  16.620   1.551  0.00  0.00    -0.246 OA
BRANCH   9  14
HETATM   14  N   UNK N   1      20.556  21.057   0.262  0.00  0.00    -0.385 N 
HETATM   15  H   UNK N   1      19.814  21.695   0.150  0.00  0.00     0.157 HD
HETATM   16  H   UNK N   1      21.334  21.111  -0.339  0.00  0.00     0.157 HD
ENDBRANCH   9  14
ENDBRANCH   4   6
BRANCH   2  17
HETATM   17  O   UNK N   1      18.991  15.345   3.724  0.00  0.00    -0.388 OA
HETATM   18  H   UNK N   1      18.712  15.438   2.799  0.00  0.00     0.210 HD
ENDBRANCH   2  17
BRANCH   5  19
HETATM   19  C   UNK N   1      20.483  17.300   7.822  0.00  0.00     0.198 C 
BRANCH  19  20
HETATM   20  O   UNK N   1      20.608  18.687   7.728  0.00  0.00    -0.398 OA
HETATM   21  H   UNK N   1      20.081  19.271   7.159  0.00  0.00     0.209 HD
ENDBRANCH  19  20
ENDBRANCH   5  19
BRANCH   3  22
HETATM   22  O   UNK N   1      19.489  14.623   6.163  0.00  0.00    -0.390 OA
HETATM   23  H   UNK N   1      19.945  14.116   6.852  0.00  0.00     0.210 HD
ENDBRANCH   3  22
TORSDOF 6
ENDMDL
MODEL 6
REMARK VINA RESULT:      -5.5     11.500     12.626
REMARK  6 active torsions:
REMARK  status: ('A' for Active; 'I' for Inactive)
REMARK    1  A    between atoms: C_10  and  O_2 
REMARK    2  A    between atoms: C_11  and  O_3 
REMARK    3  A    between atoms: O_4  and  C_14 
REMARK    4  A    between atoms: C_12  and  N_6 
REMARK    5  A    between atoms: N_9  and  C_18 
REMARK    6  A    between atoms: C_13  and  C_14 
ROOT
HETATM    1  O   UNK N   1      29.288  25.177  -4.588  0.00  0.00    -0.353 OA
HETATM    2  C   UNK N   1      27.510  24.071  -3.566  0.00  0.00     0.198 C 
HETATM    3  C   UNK N   1      26.997  25.407  -4.070  0.00  0.00     0.182 C 
HETATM    4  C   UNK N   1      29.014  24.279  -3.546  0.00  0.00     0.263 C 
HETATM    5  C   UNK N   1      28.265  26.127  -4.490  0.00  0.00     0.179 C 
ENDROOT
BRANCH   4   6
HETATM    6  N   UNK N   1      29.786  23.030  -3.706  0.00  0.00    -0.280 N 
HETATM    7  C   UNK N   1      29.806  22.417  -4.929  0.00  0.00     0.102 A 
HETATM    8  C   UNK N   1      30.569  21.275  -5.148  0.00  0.00     0.065 A 
HETATM    9  C   UNK N   1      31.321  20.762  -4.100  0.00  0.00     0.103 A 
HETATM   10  N   UNK N   1      31.294  21.371  -2.886  0.00  0.00    -0.295 N 
HETATM   11  C   UNK N   1      30.540  22.497  -2.677  0.00  0.00     0.330 A 
ATOM     12  HN  UNK N   1      31.844  20.986  -2.119  1.00  0.00     0.172 HD
HETATM   13  O   UNK N   1      30.561  23.031  -1.581  0.00  0.00    -0.246 OA
BRANCH   9  14
HETATM   14  N   UNK N   1      32.119  19.621  -4.299  0.00  0.00    -0.385 N 
HETATM   15  H   UNK N   1      32.571  19.460  -5.159  0.00  0.00     0.157 HD
HETATM   16  H   UNK N   1      32.227  18.971  -3.567  0.00  0.00     0.157 HD
ENDBRANCH   9  14
ENDBRANCH   4   6
BRANCH   2  17
HETATM   17  O   UNK N   1      27.017  23.766  -2.294  0.00  0.00    -0.388 OA
HETATM   18  H   UNK N   1      26.407  24.342  -1.807  0.00  0.00     0.210 HD
ENDBRANCH   2  17
BRANCH   5  19
HETATM   19  C   UNK N   1      28.057  26.813  -5.827  0.00  0.00     0.198 C 
BRANCH  19  20
HETATM   20  O   UNK N   1      26.772  27.353  -5.889  0.00  0.00    -0.398 OA
HETATM   21  H   UNK N   1      26.550  28.283  -6.056  0.00  0.00     0.209 HD
ENDBRANCH  19  20
ENDBRANCH   5  19
BRANCH   3  22
HETATM   22  O   UNK N   1      26.364  26.151  -3.070  0.00  0.00    -0.390 OA
HETATM   23  H   UNK N   1      25.983  25.854  -2.229  0.00  0.00     0.210 HD
ENDBRANCH   3  22
TORSDOF 6
ENDMDL
MODEL 7
REMARK VINA RESULT:      -5.5      2.144      2.480
REMARK  6 active torsions:
REMARK  status: ('A' for Active; 'I' for Inactive)
REMARK    1  A    between atoms: C_10  and  O_2 
REMARK    2  A    between atoms: C_11  and  O_3 
REMARK    3  A    between atoms: O_4  and  C_14 
REMARK    4  A    between atoms: C_12  and  N_6 
REMARK    5  A    between atoms: N_9  and  C_18 
REMARK    6  A    between atoms: C_13  and  C_14 
ROOT
HETATM    1  O   UNK N   1      20.108  18.454   3.471  0.00  0.00    -0.353 OA
HETATM    2  C   UNK N   1      20.128  16.339   2.495  0.00  0.00     0.198 C 
HETATM    3  C   UNK N   1      20.147  17.365   1.377  0.00  0.00     0.182 C 
HETATM    4  C   UNK N   1      19.639  17.149   3.682  0.00  0.00     0.263 C 
HETATM    5  C   UNK N   1      19.892  18.671   2.105  0.00  0.00     0.179 C 
ENDROOT
BRANCH   4   6
HETATM    6  N   UNK N   1      20.098  16.626   4.985  0.00  0.00    -0.280 N 
HETATM    7  C   UNK N   1      21.406  16.800   5.344  0.00  0.00     0.102 A 
HETATM    8  C   UNK N   1      21.871  16.382   6.587  0.00  0.00     0.065 A 
HETATM    9  C   UNK N   1      20.981  15.784   7.467  0.00  0.00     0.103 A 
HETATM   10  N   UNK N   1      19.684  15.608   7.104  0.00  0.00    -0.295 N 
HETATM   11  C   UNK N   1      19.232  16.022   5.878  0.00  0.00     0.330 A 
ATOM     12  HN  UNK N   1      19.037  15.163   7.754  1.00  0.00     0.172 HD
HETATM   13  O   UNK N   1      18.054  15.871   5.597  0.00  0.00    -0.246 OA
BRANCH   9  14
HETATM   14  N   UNK N   1      21.420  15.372   8.739  0.00  0.00    -0.385 N 
HETATM   15  H   UNK N   1      20.952  15.661   9.557  0.00  0.00     0.157 HD
HETATM   16  H   UNK N   1      22.207  14.785   8.814  0.00  0.00     0.157 HD
ENDBRANCH   9  14
ENDBRANCH   4   6
BRANCH   2  17
HETATM   17  O   UNK N   1      19.269  15.272   2.212  0.00  0.00    -0.388 OA
HETATM   18  H   UNK N   1      19.349  14.720   1.419  0.00  0.00     0.210 HD
ENDBRANCH   2  17
BRANCH   5  19
HETATM   19  C   UNK N   1      20.830  19.747   1.591  0.00  0.00     0.198 C 
BRANCH  19  20
HETATM   20  O   UNK N   1      20.668  19.900   0.213  0.00  0.00    -0.398 OA
HETATM   21  H   UNK N   1      20.621  20.742  -0.266  0.00  0.00     0.209 HD
ENDBRANCH  19  20
ENDBRANCH   5  19
BRANCH   3  22
HETATM   22  O   UNK N   1      19.128  17.161   0.442  0.00  0.00    -0.390 OA
HETATM   23  H   UNK N   1      18.449  16.469   0.412  0.00  0.00     0.210 HD
ENDBRANCH   3  22
TORSDOF 6
ENDMDL
MODEL 8
REMARK VINA RESULT:      -5.4     11.391     14.161
REMARK  6 active torsions:
REMARK  status: ('A' for Active; 'I' for Inactive)
REMARK    1  A    between atoms: C_10  and  O_2 
REMARK    2  A    between atoms: C_11  and  O_3 
REMARK    3  A    between atoms: O_4  and  C_14 
REMARK    4  A    between atoms: C_12  and  N_6 
REMARK    5  A    between atoms: N_9  and  C_18 
REMARK    6  A    between atoms: C_13  and  C_14 
ROOT
HETATM    1  O   UNK N   1      35.203  14.868   8.500  0.00  0.00    -0.353 OA
HETATM    2  C   UNK N   1      33.411  15.526   9.834  0.00  0.00     0.198 C 
HETATM    3  C   UNK N   1      34.524  15.054  10.752  0.00  0.00     0.182 C 
HETATM    4  C   UNK N   1      33.802  14.918   8.499  0.00  0.00     0.263 C 
HETATM    5  C   UNK N   1      35.524  14.437   9.792  0.00  0.00     0.179 C 
ENDROOT
BRANCH   4   6
HETATM    6  N   UNK N   1      33.299  15.676   7.335  0.00  0.00    -0.280 N 
HETATM    7  C   UNK N   1      33.962  16.807   6.947  0.00  0.00     0.102 A 
HETATM    8  C   UNK N   1      33.566  17.520   5.820  0.00  0.00     0.065 A 
HETATM    9  C   UNK N   1      32.482  17.060   5.084  0.00  0.00     0.103 A 
HETATM   10  N   UNK N   1      31.825  15.938   5.477  0.00  0.00    -0.295 N 
HETATM   11  C   UNK N   1      32.220  15.241   6.588  0.00  0.00     0.330 A 
ATOM     12  HN  UNK N   1      31.026  15.610   4.935  1.00  0.00     0.172 HD
HETATM   13  O   UNK N   1      31.621  14.223   6.895  0.00  0.00    -0.246 OA
BRANCH   9  14
HETATM   14  N   UNK N   1      32.074  17.749   3.927  0.00  0.00    -0.385 N 
HETATM   15  H   UNK N   1      31.637  17.276   3.182  0.00  0.00     0.157 HD
HETATM   16  H   UNK N   1      32.228  18.719   3.861  0.00  0.00     0.157 HD
ENDBRANCH   9  14
ENDBRANCH   4   6
BRANCH   2  17
HETATM   17  O   UNK N   1      32.158  15.074  10.257  0.00  0.00    -0.388 OA
HETATM   18  H   UNK N   1      31.919  14.961  11.191  0.00  0.00     0.210 HD
ENDBRANCH   2  17
BRANCH   5  19
HETATM   19  C   UNK N   1      36.932  14.869  10.154  0.00  0.00     0.198 C 
BRANCH  19  20
HETATM   20  O   UNK N   1      36.894  16.087  10.836  0.00  0.00    -0.398 OA
HETATM   21  H   UNK N   1      36.945  16.968  10.433  0.00  0.00     0.209 HD
ENDBRANCH  19  20
ENDBRANCH   5  19
BRANCH   3  22
HETATM   22  O   UNK N   1      34.099  14.076  11.655  0.00  0.00    -0.390 OA
HETATM   23  H   UNK N   1      33.251  13.991  12.118  0.00  0.00     0.210 HD
ENDBRANCH   3  22
TORSDOF 6
ENDMDL
MODEL 9
REMARK VINA RESULT:      -5.2      2.860      4.139
REMARK  6 active torsions:
REMARK  status: ('A' for Active; 'I' for Inactive)
REMARK    1  A    between atoms: C_10  and  O_2 
REMARK    2  A    between atoms: C_11  and  O_3 
REMARK    3  A    between atoms: O_4  and  C_14 
REMARK    4  A    between atoms: C_12  and  N_6 
REMARK    5  A    between atoms: N_9  and  C_18 
REMARK    6  A    between atoms: C_13  and  C_14 
ROOT
HETATM    1  O   UNK N   1      22.349  17.865   3.381  0.00  0.00    -0.353 OA
HETATM    2  C   UNK N   1      21.656  20.088   3.454  0.00  0.00     0.198 C 
HETATM    3  C   UNK N   1      20.416  19.219   3.341  0.00  0.00     0.182 C 
HETATM    4  C   UNK N   1      22.761  19.151   3.000  0.00  0.00     0.263 C 
HETATM    5  C   UNK N   1      20.986  17.841   3.063  0.00  0.00     0.179 C 
ENDROOT
BRANCH   4   6
HETATM    6  N   UNK N   1      24.083  19.475   3.573  0.00  0.00    -0.280 N 
HETATM    7  C   UNK N   1      24.480  18.844   4.720  0.00  0.00     0.102 A 
HETATM    8  C   UNK N   1      25.740  19.067   5.264  0.00  0.00     0.065 A 
HETATM    9  C   UNK N   1      26.601  19.943   4.617  0.00  0.00     0.103 A 
HETATM   10  N   UNK N   1      26.202  20.571   3.481  0.00  0.00    -0.295 N 
HETATM   11  C   UNK N   1      24.958  20.347   2.951  0.00  0.00     0.330 A 
ATOM     12  HN  UNK N   1      26.837  21.217   3.015  1.00  0.00     0.172 HD
HETATM   13  O   UNK N   1      24.643  20.908   1.915  0.00  0.00    -0.246 OA
BRANCH   9  14
HETATM   14  N   UNK N   1      27.891  20.170   5.133  0.00  0.00    -0.385 N 
HETATM   15  H   UNK N   1      28.177  19.767   5.985  0.00  0.00     0.157 HD
HETATM   16  H   UNK N   1      28.518  20.742   4.634  0.00  0.00     0.157 HD
ENDBRANCH   9  14
ENDBRANCH   4   6
BRANCH   2  17
HETATM   17  O   UNK N   1      21.577  21.221   2.639  0.00  0.00    -0.388 OA
HETATM   18  H   UNK N   1      21.697  21.195   1.677  0.00  0.00     0.210 HD
ENDBRANCH   2  17
BRANCH   5  19
HETATM   19  C   UNK N   1      20.271  16.800   3.903  0.00  0.00     0.198 C 
BRANCH  19  20
HETATM   20  O   UNK N   1      18.893  17.022   3.862  0.00  0.00    -0.398 OA
HETATM   21  H   UNK N   1      18.214  16.359   3.664  0.00  0.00     0.209 HD
ENDBRANCH  19  20
ENDBRANCH   5  19
BRANCH   3  22
HETATM   22  O   UNK N   1      19.593  19.593   2.276  0.00  0.00    -0.390 OA
HETATM   23  H   UNK N   1      18.670  19.354   2.097  0.00  0.00     0.210 HD
ENDBRANCH   3  22
TORSDOF 6
ENDMDL
