MODEL 1
REMARK VINA RESULT:      -5.9      0.000      0.000
REMARK  5 active torsions:
REMARK  status: ('A' for Active; 'I' for Inactive)
REMARK    1  A    between atoms: O_1  and  C_12 
REMARK    2  A    between atoms: O_1  and  C_16 
REMARK    3  A    between atoms: C_5  and  N_3 
REMARK    4  A    between atoms: N_4  and  C_15 
REMARK       I    between atoms: N_4  and  C_16 
REMARK    5  A    between atoms: C_5  and  C_6 
ROOT
HETATM    1  C   UNK N   1      30.791  17.237   6.323  0.00  0.00    -0.023 A 
HETATM    2  C   UNK N   1      32.086  17.270   6.876  0.00  0.00     0.046 A 
HETATM    3  C   UNK N   1      30.653  17.406   4.938  0.00  0.00     0.009 A 
HETATM    4  C   UNK N   1      33.214  17.469   6.075  0.00  0.00     0.081 A 
HETATM    5  C   UNK N   1      31.775  17.573   4.122  0.00  0.00     0.003 A 
HETATM    6  C   UNK N   1      33.050  17.614   4.688  0.00  0.00     0.037 A 
ENDROOT
BRANCH   4   7
HETATM    7  O   UNK N   1      34.428  17.552   6.683  0.00  0.00    -0.261 OA
BRANCH   7   8
HETATM    8  C   UNK N   1      34.699  17.849   7.987  0.00  0.00     0.367 C 
HETATM    9  O   UNK N   1      34.751  19.014   8.364  0.00  0.00    -0.238 OA
HETATM   10  N   UNK N   1      34.896  16.838   8.877  0.00  0.00    -0.332 N 
HETATM   11  C   UNK N   1      34.818  15.467   8.417  0.00  0.00     0.155 C 
BRANCH  10  12
HETATM   12  C   UNK N   1      35.170  17.142  10.275  0.00  0.00     0.123 C 
HETATM   13  C   UNK N   1      35.859  16.009  11.027  0.00  0.00     0.026 C 
ENDBRANCH  10  12
ENDBRANCH   7   8
ENDBRANCH   4   7
BRANCH   1  14
HETATM   14  C   UNK N   1      29.558  17.116   7.220  0.00  0.00     0.251 C 
HETATM   15  C   UNK N   1      28.316  16.746   6.391  0.00  0.00     0.048 C 
BRANCH  14  16
HETATM   16  N   UNK N   1      29.314  18.317   8.045  0.00  0.00     0.088 N 
HETATM   17  C   UNK N   1      28.198  19.082   7.498  0.00  0.00     0.310 C 
HETATM   18  C   UNK N   1      28.838  17.899   9.357  0.00  0.00     0.310 C 
ENDBRANCH  14  16
ENDBRANCH   1  14
TORSDOF 5
ENDMDL
MODEL 2
REMARK VINA RESULT:      -5.8     13.474     15.468
REMARK  5 active torsions:
REMARK  status: ('A' for Active; 'I' for Inactive)
REMARK    1  A    between atoms: O_1  and  C_12 
REMARK    2  A    between atoms: O_1  and  C_16 
REMARK    3  A    between atoms: C_5  and  N_3 
REMARK    4  A    between atoms: N_4  and  C_15 
REMARK       I    between atoms: N_4  and  C_16 
REMARK    5  A    between atoms: C_5  and  C_6 
ROOT
HETATM    1  C   UNK N   1      26.225  27.957  -3.938  0.00  0.00    -0.023 A 
HETATM    2  C   UNK N   1      26.815  26.685  -3.813  0.00  0.00     0.046 A 
HETATM    3  C   UNK N   1      25.193  28.124  -4.873  0.00  0.00     0.009 A 
HETATM    4  C   UNK N   1      26.396  25.607  -4.599  0.00  0.00     0.081 A 
HETATM    5  C   UNK N   1      24.742  27.048  -5.641  0.00  0.00     0.003 A 
HETATM    6  C   UNK N   1      25.346  25.796  -5.512  0.00  0.00     0.037 A 
ENDROOT
BRANCH   4   7
HETATM    7  O   UNK N   1      27.052  24.423  -4.470  0.00  0.00    -0.261 OA
BRANCH   7   8
HETATM    8  C   UNK N   1      27.712  23.940  -3.377  0.00  0.00     0.367 C 
HETATM    9  O   UNK N   1      27.112  23.721  -2.331  0.00  0.00    -0.238 OA
HETATM   10  N   UNK N   1      29.047  23.685  -3.459  0.00  0.00    -0.332 N 
HETATM   11  C   UNK N   1      29.738  23.937  -4.707  0.00  0.00     0.155 C 
BRANCH  10  12
HETATM   12  C   UNK N   1      29.759  23.154  -2.305  0.00  0.00     0.123 C 
HETATM   13  C   UNK N   1      31.008  22.358  -2.667  0.00  0.00     0.026 C 
ENDBRANCH  10  12
ENDBRANCH   7   8
ENDBRANCH   4   7
BRANCH   1  14
HETATM   14  C   UNK N   1      26.757  29.151  -3.145  0.00  0.00     0.251 C 
HETATM   15  C   UNK N   1      26.513  30.465  -3.907  0.00  0.00     0.048 C 
BRANCH  14  16
HETATM   16  N   UNK N   1      28.176  29.012  -2.757  0.00  0.00     0.088 N 
HETATM   17  C   UNK N   1      29.030  29.690  -3.727  0.00  0.00     0.310 C 
HETATM   18  C   UNK N   1      28.402  29.749  -1.521  0.00  0.00     0.310 C 
ENDBRANCH  14  16
ENDBRANCH   1  14
TORSDOF 5
ENDMDL
MODEL 3
REMARK VINA RESULT:      -5.6     10.090     13.459
REMARK  5 active torsions:
REMARK  status: ('A' for Active; 'I' for Inactive)
REMARK    1  A    between atoms: O_1  and  C_12 
REMARK    2  A    between atoms: O_1  and  C_16 
REMARK    3  A    between atoms: C_5  and  N_3 
REMARK    4  A    between atoms: N_4  and  C_15 
REMARK       I    between atoms: N_4  and  C_16 
REMARK    5  A    between atoms: C_5  and  C_6 
ROOT
HETATM    1  C   UNK N   1      35.549  12.061  16.745  0.00  0.00    -0.023 A 
HETATM    2  C   UNK N   1      35.474  11.065  17.738  0.00  0.00     0.046 A 
HETATM    3  C   UNK N   1      35.393  13.400  17.131  0.00  0.00     0.009 A 
HETATM    4  C   UNK N   1      35.248  11.389  19.078  0.00  0.00     0.081 A 
HETATM    5  C   UNK N   1      35.200  13.740  18.472  0.00  0.00     0.003 A 
HETATM    6  C   UNK N   1      35.117  12.739  19.442  0.00  0.00     0.037 A 
ENDROOT
BRANCH   4   7
HETATM    7  O   UNK N   1      35.126  10.373  19.974  0.00  0.00    -0.261 OA
BRANCH   7   8
HETATM    8  C   UNK N   1      34.015   9.991  20.669  0.00  0.00     0.367 C 
HETATM    9  O   UNK N   1      33.608  10.659  21.613  0.00  0.00    -0.238 OA
HETATM   10  N   UNK N   1      33.346   8.865  20.296  0.00  0.00    -0.332 N 
HETATM   11  C   UNK N   1      33.832   8.095  19.170  0.00  0.00     0.155 C 
BRANCH  10  12
HETATM   12  C   UNK N   1      32.149   8.457  21.019  0.00  0.00     0.123 C 
HETATM   13  C   UNK N   1      30.969   8.124  20.115  0.00  0.00     0.026 C 
ENDBRANCH  10  12
ENDBRANCH   7   8
ENDBRANCH   4   7
BRANCH   1  14
HETATM   14  C   UNK N   1      35.699  11.689  15.269  0.00  0.00     0.251 C 
HETATM   15  C   UNK N   1      36.929  12.379  14.656  0.00  0.00     0.048 C 
BRANCH  14  16
HETATM   16  N   UNK N   1      34.483  11.951  14.472  0.00  0.00     0.088 N 
HETATM   17  C   UNK N   1      34.843  12.213  13.082  0.00  0.00     0.310 C 
HETATM   18  C   UNK N   1      33.693  10.730  14.402  0.00  0.00     0.310 C 
ENDBRANCH  14  16
ENDBRANCH   1  14
TORSDOF 5
ENDMDL
MODEL 4
REMARK VINA RESULT:      -5.4      5.617      9.259
REMARK  5 active torsions:
REMARK  status: ('A' for Active; 'I' for Inactive)
REMARK    1  A    between atoms: O_1  and  C_12 
REMARK    2  A    between atoms: O_1  and  C_16 
REMARK    3  A    between atoms: C_5  and  N_3 
REMARK    4  A    between atoms: N_4  and  C_15 
REMARK       I    between atoms: N_4  and  C_16 
REMARK    5  A    between atoms: C_5  and  C_6 
ROOT
HETATM    1  C   UNK N   1      27.712  18.980   6.302  0.00  0.00    -0.023 A 
HETATM    2  C   UNK N   1      26.827  18.692   5.245  0.00  0.00     0.046 A 
HETATM    3  C   UNK N   1      27.760  20.294   6.791  0.00  0.00     0.009 A 
HETATM    4  C   UNK N   1      26.014  19.682   4.686  0.00  0.00     0.081 A 
HETATM    5  C   UNK N   1      26.930  21.285   6.263  0.00  0.00     0.003 A 
HETATM    6  C   UNK N   1      26.066  20.984   5.208  0.00  0.00     0.037 A 
ENDROOT
BRANCH   4   7
HETATM    7  O   UNK N   1      25.229  19.348   3.627  0.00  0.00    -0.261 OA
BRANCH   7   8
HETATM    8  C   UNK N   1      24.242  20.087   3.043  0.00  0.00     0.367 C 
HETATM    9  O   UNK N   1      24.517  21.006   2.281  0.00  0.00    -0.238 OA
HETATM   10  N   UNK N   1      22.939  19.786   3.300  0.00  0.00    -0.332 N 
HETATM   11  C   UNK N   1      22.631  18.688   4.192  0.00  0.00     0.155 C 
BRANCH  10  12
HETATM   12  C   UNK N   1      21.876  20.557   2.669  0.00  0.00     0.123 C 
HETATM   13  C   UNK N   1      20.520  19.862   2.687  0.00  0.00     0.026 C 
ENDBRANCH  10  12
ENDBRANCH   7   8
ENDBRANCH   4   7
BRANCH   1  14
HETATM   14  C   UNK N   1      28.666  17.913   6.840  0.00  0.00     0.251 C 
HETATM   15  C   UNK N   1      28.086  16.505   6.625  0.00  0.00     0.048 C 
BRANCH  14  16
HETATM   16  N   UNK N   1      29.048  18.127   8.251  0.00  0.00     0.088 N 
HETATM   17  C   UNK N   1      28.086  17.476   9.135  0.00  0.00     0.310 C 
HETATM   18  C   UNK N   1      30.294  17.420   8.515  0.00  0.00     0.310 C 
ENDBRANCH  14  16
ENDBRANCH   1  14
TORSDOF 5
ENDMDL
MODEL 5
REMARK VINA RESULT:      -5.4      2.439      6.142
REMARK  5 active torsions:
REMARK  status: ('A' for Active; 'I' for Inactive)
REMARK    1  A    between atoms: O_1  and  C_12 
REMARK    2  A    between atoms: O_1  and  C_16 
REMARK    3  A    between atoms: C_5  and  N_3 
REMARK    4  A    between atoms: N_4  and  C_15 
REMARK       I    between atoms: N_4  and  C_16 
REMARK    5  A    between atoms: C_5  and  C_6 
ROOT
HETATM    1  C   UNK N   1      32.799  17.387   6.843  0.00  0.00    -0.023 A 
HETATM    2  C   UNK N   1      31.392  17.383   6.809  0.00  0.00     0.046 A 
HETATM    3  C   UNK N   1      33.495  17.404   5.625  0.00  0.00     0.009 A 
HETATM    4  C   UNK N   1      30.693  17.391   5.599  0.00  0.00     0.081 A 
HETATM    5  C   UNK N   1      32.809  17.447   4.410  0.00  0.00     0.003 A 
HETATM    6  C   UNK N   1      31.413  17.431   4.394  0.00  0.00     0.037 A 
ENDROOT
BRANCH   4   7
HETATM    7  O   UNK N   1      29.335  17.323   5.639  0.00  0.00    -0.261 OA
BRANCH   7   8
HETATM    8  C   UNK N   1      28.432  18.290   5.303  0.00  0.00     0.367 C 
HETATM    9  O   UNK N   1      28.163  18.512   4.128  0.00  0.00    -0.238 OA
HETATM   10  N   UNK N   1      27.815  19.001   6.286  0.00  0.00    -0.332 N 
HETATM   11  C   UNK N   1      28.135  18.718   7.670  0.00  0.00     0.155 C 
BRANCH  10  12
HETATM   12  C   UNK N   1      26.837  20.024   5.940  0.00  0.00     0.123 C 
HETATM   13  C   UNK N   1      27.312  21.446   6.216  0.00  0.00     0.026 C 
ENDBRANCH  10  12
ENDBRANCH   7   8
ENDBRANCH   4   7
BRANCH   1  14
HETATM   14  C   UNK N   1      33.553  17.278   8.169  0.00  0.00     0.251 C 
HETATM   15  C   UNK N   1      34.608  18.392   8.289  0.00  0.00     0.048 C 
BRANCH  14  16
HETATM   16  N   UNK N   1      34.150  15.947   8.397  0.00  0.00     0.088 N 
HETATM   17  C   UNK N   1      35.160  16.023   9.448  0.00  0.00     0.310 C 
HETATM   18  C   UNK N   1      33.135  15.064   8.956  0.00  0.00     0.310 C 
ENDBRANCH  14  16
ENDBRANCH   1  14
TORSDOF 5
ENDMDL
MODEL 6
REMARK VINA RESULT:      -5.3      3.480      7.297
REMARK  5 active torsions:
REMARK  status: ('A' for Active; 'I' for Inactive)
REMARK    1  A    between atoms: O_1  and  C_12 
REMARK    2  A    between atoms: O_1  and  C_16 
REMARK    3  A    between atoms: C_5  and  N_3 
REMARK    4  A    between atoms: N_4  and  C_15 
REMARK       I    between atoms: N_4  and  C_16 
REMARK    5  A    between atoms: C_5  and  C_6 
ROOT
HETATM    1  C   UNK N   1      30.726  17.450   7.777  0.00  0.00    -0.023 A 
HETATM    2  C   UNK N   1      29.826  17.460   6.694  0.00  0.00     0.046 A 
HETATM    3  C   UNK N   1      30.335  18.068   8.974  0.00  0.00     0.009 A 
HETATM    4  C   UNK N   1      28.572  18.070   6.795  0.00  0.00     0.081 A 
HETATM    5  C   UNK N   1      29.072  18.652   9.099  0.00  0.00     0.003 A 
HETATM    6  C   UNK N   1      28.197  18.662   8.012  0.00  0.00     0.037 A 
ENDROOT
BRANCH   4   7
HETATM    7  O   UNK N   1      27.779  18.097   5.691  0.00  0.00    -0.261 OA
BRANCH   7   8
HETATM    8  C   UNK N   1      27.506  19.156   4.874  0.00  0.00     0.367 C 
HETATM    9  O   UNK N   1      28.286  20.097   4.791  0.00  0.00    -0.238 OA
HETATM   10  N   UNK N   1      26.362  19.155   4.136  0.00  0.00    -0.332 N 
HETATM   11  C   UNK N   1      25.458  18.029   4.237  0.00  0.00     0.155 C 
BRANCH  10  12
HETATM   12  C   UNK N   1      26.069  20.272   3.248  0.00  0.00     0.123 C 
HETATM   13  C   UNK N   1      24.582  20.457   2.966  0.00  0.00     0.026 C 
ENDBRANCH  10  12
ENDBRANCH   7   8
ENDBRANCH   4   7
BRANCH   1  14
HETATM   14  C   UNK N   1      32.131  16.867   7.625  0.00  0.00     0.251 C 
HETATM   15  C   UNK N   1      32.084  15.329   7.610  0.00  0.00     0.048 C 
BRANCH  14  16
HETATM   16  N   UNK N   1      33.086  17.365   8.636  0.00  0.00     0.088 N 
HETATM   17  C   UNK N   1      33.884  16.260   9.159  0.00  0.00     0.310 C 
HETATM   18  C   UNK N   1      34.065  18.221   7.981  0.00  0.00     0.310 C 
ENDBRANCH  14  16
ENDBRANCH   1  14
TORSDOF 5
ENDMDL
MODEL 7
REMARK VINA RESULT:      -5.3      3.570      7.113
REMARK  5 active torsions:
REMARK  status: ('A' for Active; 'I' for Inactive)
REMARK    1  A    between atoms: O_1  and  C_12 
REMARK    2  A    between atoms: O_1  and  C_16 
REMARK    3  A    between atoms: C_5  and  N_3 
REMARK    4  A    between atoms: N_4  and  C_15 
REMARK       I    between atoms: N_4  and  C_16 
REMARK    5  A    between atoms: C_5  and  C_6 
ROOT
HETATM    1  C   UNK N   1      31.034  17.284   6.953  0.00  0.00    -0.023 A 
HETATM    2  C   UNK N   1      29.773  17.561   6.391  0.00  0.00     0.046 A 
HETATM    3  C   UNK N   1      31.267  17.658   8.285  0.00  0.00     0.009 A 
HETATM    4  C   UNK N   1      28.771  18.196   7.130  0.00  0.00     0.081 A 
HETATM    5  C   UNK N   1      30.263  18.263   9.044  0.00  0.00     0.003 A 
HETATM    6  C   UNK N   1      29.023  18.541   8.468  0.00  0.00     0.037 A 
ENDROOT
BRANCH   4   7
HETATM    7  O   UNK N   1      27.599  18.490   6.505  0.00  0.00    -0.261 OA
BRANCH   7   8
HETATM    8  C   UNK N   1      27.335  19.519   5.649  0.00  0.00     0.367 C 
HETATM    9  O   UNK N   1      27.464  20.682   6.011  0.00  0.00    -0.238 OA
HETATM   10  N   UNK N   1      26.940  19.245   4.375  0.00  0.00    -0.332 N 
HETATM   11  C   UNK N   1      26.804  17.865   3.959  0.00  0.00     0.155 C 
BRANCH  10  12
HETATM   12  C   UNK N   1      26.671  20.335   3.446  0.00  0.00     0.123 C 
HETATM   13  C   UNK N   1      25.239  20.357   2.924  0.00  0.00     0.026 C 
ENDBRANCH  10  12
ENDBRANCH   7   8
ENDBRANCH   4   7
BRANCH   1  14
HETATM   14  C   UNK N   1      32.155  16.678   6.107  0.00  0.00     0.251 C 
HETATM   15  C   UNK N   1      33.448  17.498   6.249  0.00  0.00     0.048 C 
BRANCH  14  16
HETATM   16  N   UNK N   1      31.786  16.498   4.688  0.00  0.00     0.088 N 
HETATM   17  C   UNK N   1      32.690  17.262   3.835  0.00  0.00     0.310 C 
HETATM   18  C   UNK N   1      32.036  15.114   4.307  0.00  0.00     0.310 C 
ENDBRANCH  14  16
ENDBRANCH   1  14
TORSDOF 5
ENDMDL
MODEL 8
REMARK VINA RESULT:      -5.2      4.016      5.839
REMARK  5 active torsions:
REMARK  status: ('A' for Active; 'I' for Inactive)
REMARK    1  A    between atoms: O_1  and  C_12 
REMARK    2  A    between atoms: O_1  and  C_16 
REMARK    3  A    between atoms: C_5  and  N_3 
REMARK    4  A    between atoms: N_4  and  C_15 
REMARK       I    between atoms: N_4  and  C_16 
REMARK    5  A    between atoms: C_5  and  C_6 
ROOT
HETATM    1  C   UNK N   1      26.038  19.540   4.739  0.00  0.00    -0.023 A 
HETATM    2  C   UNK N   1      26.857  18.499   5.216  0.00  0.00     0.046 A 
HETATM    3  C   UNK N   1      26.138  20.800   5.347  0.00  0.00     0.009 A 
HETATM    4  C   UNK N   1      27.751  18.703   6.272  0.00  0.00     0.081 A 
HETATM    5  C   UNK N   1      27.051  21.025   6.380  0.00  0.00     0.003 A 
HETATM    6  C   UNK N   1      27.848  19.979   6.848  0.00  0.00     0.037 A 
ENDROOT
BRANCH   4   7
HETATM    7  O   UNK N   1      28.467  17.638   6.723  0.00  0.00    -0.261 OA
BRANCH   7   8
HETATM    8  C   UNK N   1      29.790  17.368   6.527  0.00  0.00     0.367 C 
HETATM    9  O   UNK N   1      30.232  17.193   5.398  0.00  0.00    -0.238 OA
HETATM   10  N   UNK N   1      30.627  17.308   7.600  0.00  0.00    -0.332 N 
HETATM   11  C   UNK N   1      30.091  17.529   8.927  0.00  0.00     0.155 C 
BRANCH  10  12
HETATM   12  C   UNK N   1      32.045  17.037   7.402  0.00  0.00     0.123 C 
HETATM   13  C   UNK N   1      32.963  18.026   8.110  0.00  0.00     0.026 C 
ENDBRANCH  10  12
ENDBRANCH   7   8
ENDBRANCH   4   7
BRANCH   1  14
HETATM   14  C   UNK N   1      24.995  19.281   3.650  0.00  0.00     0.251 C 
HETATM   15  C   UNK N   1      24.902  20.479   2.690  0.00  0.00     0.048 C 
BRANCH  14  16
HETATM   16  N   UNK N   1      23.667  18.918   4.186  0.00  0.00     0.088 N 
HETATM   17  C   UNK N   1      22.617  19.554   3.395  0.00  0.00     0.310 C 
HETATM   18  C   UNK N   1      23.446  17.494   3.974  0.00  0.00     0.310 C 
ENDBRANCH  14  16
ENDBRANCH   1  14
TORSDOF 5
ENDMDL
MODEL 9
REMARK VINA RESULT:      -5.2      3.810      8.122
REMARK  5 active torsions:
REMARK  status: ('A' for Active; 'I' for Inactive)
REMARK    1  A    between atoms: O_1  and  C_12 
REMARK    2  A    between atoms: O_1  and  C_16 
REMARK    3  A    between atoms: C_5  and  N_3 
REMARK    4  A    between atoms: N_4  and  C_15 
REMARK       I    between atoms: N_4  and  C_16 
REMARK    5  A    between atoms: C_5  and  C_6 
ROOT
HETATM    1  C   UNK N   1      36.554  13.180  12.790  0.00  0.00    -0.023 A 
HETATM    2  C   UNK N   1      35.685  14.234  12.447  0.00  0.00     0.046 A 
HETATM    3  C   UNK N   1      37.499  12.759  11.843  0.00  0.00     0.009 A 
HETATM    4  C   UNK N   1      35.750  14.851  11.194  0.00  0.00     0.081 A 
HETATM    5  C   UNK N   1      37.596  13.389  10.600  0.00  0.00     0.003 A 
HETATM    6  C   UNK N   1      36.719  14.425  10.272  0.00  0.00     0.037 A 
ENDROOT
BRANCH   4   7
HETATM    7  O   UNK N   1      34.840  15.820  10.907  0.00  0.00    -0.261 OA
BRANCH   7   8
HETATM    8  C   UNK N   1      34.944  16.831   9.996  0.00  0.00     0.367 C 
HETATM    9  O   UNK N   1      35.727  17.757  10.177  0.00  0.00    -0.238 OA
HETATM   10  N   UNK N   1      34.181  16.798   8.869  0.00  0.00    -0.332 N 
HETATM   11  C   UNK N   1      33.271  15.691   8.665  0.00  0.00     0.155 C 
BRANCH  10  12
HETATM   12  C   UNK N   1      34.295  17.863   7.882  0.00  0.00     0.123 C 
HETATM   13  C   UNK N   1      33.785  17.475   6.499  0.00  0.00     0.026 C 
ENDBRANCH  10  12
ENDBRANCH   7   8
ENDBRANCH   4   7
BRANCH   1  14
HETATM   14  C   UNK N   1      36.410  12.447  14.125  0.00  0.00     0.251 C 
HETATM   15  C   UNK N   1      37.306  11.198  14.160  0.00  0.00     0.048 C 
BRANCH  14  16
HETATM   16  N   UNK N   1      35.011  12.114  14.463  0.00  0.00     0.088 N 
HETATM   17  C   UNK N   1      34.869  10.673  14.643  0.00  0.00     0.310 C 
HETATM   18  C   UNK N   1      34.700  12.660  15.777  0.00  0.00     0.310 C 
ENDBRANCH  14  16
ENDBRANCH   1  14
TORSDOF 5
ENDMDL
