REMARK  0 active torsions:
REMARK  status: ('A' for Active; 'I' for Inactive)
ROOT
HETATM    1  O   UNK N   1       8.301   3.582   0.419  0.00  0.00    -0.297 OA
HETATM    2  O   UNK N   1      -0.210  -2.895  -0.427  0.00  0.00    -0.289 OA
HETATM    3  C   UNK N   1       6.798   0.458   0.242  0.00  0.00     0.006 C 
HETATM    4  C   UNK N   1       5.616  -0.376  -0.268  0.00  0.00     0.000 C 
HETATM    5  C   UNK N   1       6.656   1.937  -0.120  0.00  0.00     0.021 C 
HETATM    6  C   UNK N   1       4.298   0.194   0.344  0.00  0.00     0.007 C 
HETATM    7  C   UNK N   1       5.440   2.479   0.629  0.00  0.00     0.018 C 
HETATM    8  C   UNK N   1       4.184   1.728   0.141  0.00  0.00     0.007 C 
HETATM    9  C   UNK N   1       3.076  -0.554  -0.256  0.00  0.00     0.006 C 
HETATM   10  C   UNK N   1       8.213   0.100  -0.192  0.00  0.00     0.013 C 
HETATM   11  C   UNK N   1       5.811  -1.839   0.148  0.00  0.00     0.043 C 
HETATM   12  C   UNK N   1       8.004   2.404   0.291  0.00  0.00     0.135 C 
HETATM   13  C   UNK N   1       9.025   1.309   0.302  0.00  0.00     0.079 C 
HETATM   14  C   UNK N   1       6.516   2.209  -1.622  0.00  0.00     0.024 C 
HETATM   15  C   UNK N   1       3.220  -2.070  -0.095  0.00  0.00    -0.036 C 
HETATM   16  C   UNK N   1       4.571  -2.686   0.079  0.00  0.00    -0.060 C 
HETATM   17  C   UNK N   1       2.975  -0.278  -1.759  0.00  0.00     0.025 C 
HETATM   18  C   UNK N   1       1.765  -0.066   0.338  0.00  0.00    -0.008 C 
HETATM   19  C   UNK N   1       2.119  -2.850  -0.162  0.00  0.00     0.063 C 
HETATM   20  C   UNK N   1       0.657  -0.820   0.245  0.00  0.00     0.052 C 
HETATM   21  C   UNK N   1       4.700  -3.995   0.303  0.00  0.00     0.019 C 
HETATM   22  C   UNK N   1       0.782  -2.226  -0.188  0.00  0.00     0.172 C 
ENDROOT
TORSDOF 0
