MODEL 1
REMARK VINA RESULT:      -8.2      0.000      0.000
REMARK  0 active torsions:
REMARK  status: ('A' for Active; 'I' for Inactive)
ROOT
HETATM    1  O   UNK N   1      34.696  11.566  10.495  0.00  0.00    -0.297 OA
HETATM    2  O   UNK N   1      35.290   9.825  21.065  0.00  0.00    -0.289 OA
HETATM    3  C   UNK N   1      35.052  12.612  13.786  0.00  0.00     0.006 C 
HETATM    4  C   UNK N   1      35.515  12.262  15.206  0.00  0.00     0.000 C 
HETATM    5  C   UNK N   1      35.226  11.439  12.820  0.00  0.00     0.021 C 
HETATM    6  C   UNK N   1      34.695  11.034  15.713  0.00  0.00     0.007 C 
HETATM    7  C   UNK N   1      34.286  10.324  13.276  0.00  0.00     0.018 C 
HETATM    8  C   UNK N   1      34.709   9.869  14.688  0.00  0.00     0.007 C 
HETATM    9  C   UNK N   1      35.232  10.582  17.098  0.00  0.00     0.006 C 
HETATM   10  C   UNK N   1      35.683  13.792  13.060  0.00  0.00     0.013 C 
HETATM   11  C   UNK N   1      35.292  13.470  16.124  0.00  0.00     0.043 C 
HETATM   12  C   UNK N   1      34.922  12.142  11.548  0.00  0.00     0.135 C 
HETATM   13  C   UNK N   1      35.152  13.620  11.627  0.00  0.00     0.079 C 
HETATM   14  C   UNK N   1      36.661  10.911  12.719  0.00  0.00     0.024 C 
HETATM   15  C   UNK N   1      35.261  11.749  18.089  0.00  0.00    -0.036 C 
HETATM   16  C   UNK N   1      35.314  13.159  17.594  0.00  0.00    -0.060 C 
HETATM   17  C   UNK N   1      36.673  10.079  16.967  0.00  0.00     0.025 C 
HETATM   18  C   UNK N   1      34.440   9.412  17.659  0.00  0.00    -0.008 C 
HETATM   19  C   UNK N   1      35.290  11.491  19.415  0.00  0.00     0.063 C 
HETATM   20  C   UNK N   1      34.491   9.127  18.971  0.00  0.00     0.052 C 
HETATM   21  C   UNK N   1      35.256  14.184  18.447  0.00  0.00     0.019 C 
HETATM   22  C   UNK N   1      35.092  10.110  19.895  0.00  0.00     0.172 C 
ENDROOT
TORSDOF 0
ENDMDL
MODEL 2
REMARK VINA RESULT:      -7.8     21.875     25.337
REMARK  0 active torsions:
REMARK  status: ('A' for Active; 'I' for Inactive)
ROOT
HETATM    1  O   UNK N   1      32.819  21.283  -2.410  0.00  0.00    -0.297 OA
HETATM    2  O   UNK N   1      24.562  27.164  -5.925  0.00  0.00    -0.289 OA
HETATM    3  C   UNK N   1      30.189  21.935  -4.580  0.00  0.00     0.006 C 
HETATM    4  C   UNK N   1      29.302  22.994  -5.248  0.00  0.00     0.000 C 
HETATM    5  C   UNK N   1      31.198  22.558  -3.615  0.00  0.00     0.021 C 
HETATM    6  C   UNK N   1      28.549  23.792  -4.138  0.00  0.00     0.007 C 
HETATM    7  C   UNK N   1      30.409  23.190  -2.469  0.00  0.00     0.018 C 
HETATM    8  C   UNK N   1      29.518  24.311  -3.043  0.00  0.00     0.007 C 
HETATM    9  C   UNK N   1      27.742  24.951  -4.783  0.00  0.00     0.006 C 
HETATM   10  C   UNK N   1      31.024  21.000  -5.444  0.00  0.00     0.013 C 
HETATM   11  C   UNK N   1      28.302  22.301  -6.182  0.00  0.00     0.043 C 
HETATM   12  C   UNK N   1      32.015  21.352  -3.328  0.00  0.00     0.135 C 
HETATM   13  C   UNK N   1      31.934  20.319  -4.408  0.00  0.00     0.079 C 
HETATM   14  C   UNK N   1      32.126  23.597  -4.254  0.00  0.00     0.024 C 
HETATM   15  C   UNK N   1      26.824  24.436  -5.896  0.00  0.00    -0.036 C 
HETATM   16  C   UNK N   1      27.127  23.146  -6.587  0.00  0.00    -0.060 C 
HETATM   17  C   UNK N   1      28.695  25.961  -5.430  0.00  0.00     0.025 C 
HETATM   18  C   UNK N   1      26.954  25.738  -3.749  0.00  0.00    -0.008 C 
HETATM   19  C   UNK N   1      25.767  25.184  -6.281  0.00  0.00     0.063 C 
HETATM   20  C   UNK N   1      25.923  26.511  -4.127  0.00  0.00     0.052 C 
HETATM   21  C   UNK N   1      26.289  22.648  -7.499  0.00  0.00     0.019 C 
HETATM   22  C   UNK N   1      25.394  26.379  -5.500  0.00  0.00     0.172 C 
ENDROOT
TORSDOF 0
ENDMDL
MODEL 3
REMARK VINA RESULT:      -7.5      1.703      3.453
REMARK  0 active torsions:
REMARK  status: ('A' for Active; 'I' for Inactive)
ROOT
HETATM    1  O   UNK N   1      37.043  14.827   9.900  0.00  0.00    -0.297 OA
HETATM    2  O   UNK N   1      34.917  10.722  19.581  0.00  0.00    -0.289 OA
HETATM    3  C   UNK N   1      37.272  12.360  12.331  0.00  0.00     0.006 C 
HETATM    4  C   UNK N   1      36.620  11.678  13.540  0.00  0.00     0.000 C 
HETATM    5  C   UNK N   1      36.435  13.528  11.809  0.00  0.00     0.021 C 
HETATM    6  C   UNK N   1      36.428  12.737  14.671  0.00  0.00     0.007 C 
HETATM    7  C   UNK N   1      36.411  14.599  12.899  0.00  0.00     0.018 C 
HETATM    8  C   UNK N   1      35.721  14.016  14.149  0.00  0.00     0.007 C 
HETATM    9  C   UNK N   1      35.655  12.101  15.858  0.00  0.00     0.006 C 
HETATM   10  C   UNK N   1      37.588  11.541  11.086  0.00  0.00     0.013 C 
HETATM   11  C   UNK N   1      37.520  10.534  14.024  0.00  0.00     0.043 C 
HETATM   12  C   UNK N   1      37.186  13.809  10.560  0.00  0.00     0.135 C 
HETATM   13  C   UNK N   1      37.958  12.627  10.062  0.00  0.00     0.079 C 
HETATM   14  C   UNK N   1      35.005  13.151  11.408  0.00  0.00     0.024 C 
HETATM   15  C   UNK N   1      36.333  10.812  16.334  0.00  0.00    -0.036 C 
HETATM   16  C   UNK N   1      37.226  10.044  15.414  0.00  0.00    -0.060 C 
HETATM   17  C   UNK N   1      34.239  11.718  15.420  0.00  0.00     0.025 C 
HETATM   18  C   UNK N   1      35.477  13.079  17.008  0.00  0.00    -0.008 C 
HETATM   19  C   UNK N   1      36.076  10.350  17.577  0.00  0.00     0.063 C 
HETATM   20  C   UNK N   1      35.187  12.630  18.240  0.00  0.00     0.052 C 
HETATM   21  C   UNK N   1      37.886   8.968  15.845  0.00  0.00     0.019 C 
HETATM   22  C   UNK N   1      35.313  11.186  18.524  0.00  0.00     0.172 C 
ENDROOT
TORSDOF 0
ENDMDL
MODEL 4
REMARK VINA RESULT:      -7.2     24.741     27.061
REMARK  0 active torsions:
REMARK  status: ('A' for Active; 'I' for Inactive)
ROOT
HETATM    1  O   UNK N   1      27.308  20.856 -10.718  0.00  0.00    -0.297 OA
HETATM    2  O   UNK N   1      25.495  28.015  -2.935  0.00  0.00    -0.289 OA
HETATM    3  C   UNK N   1      28.097  22.449  -7.736  0.00  0.00     0.006 C 
HETATM    4  C   UNK N   1      27.583  23.191  -6.496  0.00  0.00     0.000 C 
HETATM    5  C   UNK N   1      26.965  22.078  -8.695  0.00  0.00     0.021 C 
HETATM    6  C   UNK N   1      26.835  24.481  -6.957  0.00  0.00     0.007 C 
HETATM    7  C   UNK N   1      26.372  23.379  -9.232  0.00  0.00     0.018 C 
HETATM    8  C   UNK N   1      25.780  24.177  -8.052  0.00  0.00     0.007 C 
HETATM    9  C   UNK N   1      26.196  25.184  -5.727  0.00  0.00     0.006 C 
HETATM   10  C   UNK N   1      28.884  21.156  -7.566  0.00  0.00     0.013 C 
HETATM   11  C   UNK N   1      28.768  23.552  -5.593  0.00  0.00     0.043 C 
HETATM   12  C   UNK N   1      27.729  21.212  -9.627  0.00  0.00     0.135 C 
HETATM   13  C   UNK N   1      28.958  20.624  -9.007  0.00  0.00     0.079 C 
HETATM   14  C   UNK N   1      25.864  21.215  -8.067  0.00  0.00     0.024 C 
HETATM   15  C   UNK N   1      27.235  25.436  -4.631  0.00  0.00    -0.036 C 
HETATM   16  C   UNK N   1      28.480  24.611  -4.566  0.00  0.00    -0.060 C 
HETATM   17  C   UNK N   1      25.116  24.290  -5.113  0.00  0.00     0.025 C 
HETATM   18  C   UNK N   1      25.489  26.472  -6.114  0.00  0.00    -0.008 C 
HETATM   19  C   UNK N   1      26.992  26.378  -3.694  0.00  0.00     0.063 C 
HETATM   20  C   UNK N   1      25.213  27.399  -5.182  0.00  0.00     0.052 C 
HETATM   21  C   UNK N   1      29.429  24.878  -3.667  0.00  0.00     0.019 C 
HETATM   22  C   UNK N   1      25.836  27.282  -3.849  0.00  0.00     0.172 C 
ENDROOT
TORSDOF 0
ENDMDL
MODEL 5
REMARK VINA RESULT:      -7.2     24.596     27.927
REMARK  0 active torsions:
REMARK  status: ('A' for Active; 'I' for Inactive)
ROOT
HETATM    1  O   UNK N   1      26.759  22.905 -11.208  0.00  0.00    -0.297 OA
HETATM    2  O   UNK N   1      26.364  29.324  -2.620  0.00  0.00    -0.289 OA
HETATM    3  C   UNK N   1      26.755  23.498  -7.787  0.00  0.00     0.006 C 
HETATM    4  C   UNK N   1      26.305  24.408  -6.638  0.00  0.00     0.000 C 
HETATM    5  C   UNK N   1      26.326  24.040  -9.151  0.00  0.00     0.021 C 
HETATM    6  C   UNK N   1      26.912  25.830  -6.857  0.00  0.00     0.007 C 
HETATM    7  C   UNK N   1      27.069  25.355  -9.378  0.00  0.00     0.018 C 
HETATM    8  C   UNK N   1      26.638  26.359  -8.289  0.00  0.00     0.007 C 
HETATM    9  C   UNK N   1      26.368  26.803  -5.775  0.00  0.00     0.006 C 
HETATM   10  C   UNK N   1      26.315  22.040  -7.808  0.00  0.00     0.013 C 
HETATM   11  C   UNK N   1      26.787  23.819  -5.307  0.00  0.00     0.043 C 
HETATM   12  C   UNK N   1      26.692  22.869  -9.989  0.00  0.00     0.135 C 
HETATM   13  C   UNK N   1      26.738  21.588  -9.216  0.00  0.00     0.079 C 
HETATM   14  C   UNK N   1      24.816  24.253  -9.299  0.00  0.00     0.024 C 
HETATM   15  C   UNK N   1      26.599  26.249  -4.365  0.00  0.00    -0.036 C 
HETATM   16  C   UNK N   1      26.779  24.781  -4.151  0.00  0.00    -0.060 C 
HETATM   17  C   UNK N   1      24.856  26.980  -5.937  0.00  0.00     0.025 C 
HETATM   18  C   UNK N   1      26.961  28.195  -5.915  0.00  0.00    -0.008 C 
HETATM   19  C   UNK N   1      26.587  27.095  -3.312  0.00  0.00     0.063 C 
HETATM   20  C   UNK N   1      26.922  29.055  -4.884  0.00  0.00     0.052 C 
HETATM   21  C   UNK N   1      27.062  24.298  -2.940  0.00  0.00     0.019 C 
HETATM   22  C   UNK N   1      26.554  28.552  -3.546  0.00  0.00     0.172 C 
ENDROOT
TORSDOF 0
ENDMDL
MODEL 6
REMARK VINA RESULT:      -6.9      2.423      4.287
REMARK  0 active torsions:
REMARK  status: ('A' for Active; 'I' for Inactive)
ROOT
HETATM    1  O   UNK N   1      37.332   7.438  12.297  0.00  0.00    -0.297 OA
HETATM    2  O   UNK N   1      35.093  15.670  18.804  0.00  0.00    -0.289 OA
HETATM    3  C   UNK N   1      36.294   8.799  15.317  0.00  0.00     0.006 C 
HETATM    4  C   UNK N   1      35.631   9.980  16.039  0.00  0.00     0.000 C 
HETATM    5  C   UNK N   1      36.421   9.043  13.813  0.00  0.00     0.021 C 
HETATM    6  C   UNK N   1      36.479  11.265  15.781  0.00  0.00     0.007 C 
HETATM    7  C   UNK N   1      37.382  10.214  13.617  0.00  0.00     0.018 C 
HETATM    8  C   UNK N   1      36.772  11.470  14.271  0.00  0.00     0.007 C 
HETATM    9  C   UNK N   1      35.760  12.497  16.396  0.00  0.00     0.006 C 
HETATM   10  C   UNK N   1      35.675   7.412  15.421  0.00  0.00     0.013 C 
HETATM   11  C   UNK N   1      35.557   9.679  17.540  0.00  0.00     0.043 C 
HETATM   12  C   UNK N   1      36.864   7.688  13.398  0.00  0.00     0.135 C 
HETATM   13  C   UNK N   1      36.464   6.619  14.366  0.00  0.00     0.079 C 
HETATM   14  C   UNK N   1      35.091   9.326  13.105  0.00  0.00     0.024 C 
HETATM   15  C   UNK N   1      35.431  12.267  17.874  0.00  0.00    -0.036 C 
HETATM   16  C   UNK N   1      35.312  10.878  18.413  0.00  0.00    -0.060 C 
HETATM   17  C   UNK N   1      34.428  12.742  15.681  0.00  0.00     0.025 C 
HETATM   18  C   UNK N   1      36.565  13.773  16.210  0.00  0.00    -0.008 C 
HETATM   19  C   UNK N   1      35.200  13.331  18.673  0.00  0.00     0.063 C 
HETATM   20  C   UNK N   1      36.317  14.848  16.978  0.00  0.00     0.052 C 
HETATM   21  C   UNK N   1      35.108  10.667  19.715  0.00  0.00     0.019 C 
HETATM   22  C   UNK N   1      35.460  14.694  18.170  0.00  0.00     0.172 C 
ENDROOT
TORSDOF 0
ENDMDL
MODEL 7
REMARK VINA RESULT:      -6.9      6.744      9.946
REMARK  0 active torsions:
REMARK  status: ('A' for Active; 'I' for Inactive)
ROOT
HETATM    1  O   UNK N   1      32.500  16.899   2.532  0.00  0.00    -0.297 OA
HETATM    2  O   UNK N   1      36.143  15.243  12.486  0.00  0.00    -0.289 OA
HETATM    3  C   UNK N   1      34.381  15.182   4.890  0.00  0.00     0.006 C 
HETATM    4  C   UNK N   1      34.543  14.773   6.360  0.00  0.00     0.000 C 
HETATM    5  C   UNK N   1      33.165  16.083   4.675  0.00  0.00     0.021 C 
HETATM    6  C   UNK N   1      34.680  16.063   7.228  0.00  0.00     0.007 C 
HETATM    7  C   UNK N   1      33.423  17.391   5.422  0.00  0.00     0.018 C 
HETATM    8  C   UNK N   1      33.551  17.083   6.928  0.00  0.00     0.007 C 
HETATM    9  C   UNK N   1      34.718  15.679   8.733  0.00  0.00     0.006 C 
HETATM   10  C   UNK N   1      34.244  14.106   3.821  0.00  0.00     0.013 C 
HETATM   11  C   UNK N   1      35.790  13.893   6.507  0.00  0.00     0.043 C 
HETATM   12  C   UNK N   1      33.157  16.108   3.191  0.00  0.00     0.135 C 
HETATM   13  C   UNK N   1      33.840  14.923   2.582  0.00  0.00     0.079 C 
HETATM   14  C   UNK N   1      31.836  15.470   5.130  0.00  0.00     0.024 C 
HETATM   15  C   UNK N   1      35.803  14.635   9.012  0.00  0.00    -0.036 C 
HETATM   16  C   UNK N   1      36.301  13.751   7.913  0.00  0.00    -0.060 C 
HETATM   17  C   UNK N   1      33.385  15.052   9.151  0.00  0.00     0.025 C 
HETATM   18  C   UNK N   1      34.894  16.897   9.624  0.00  0.00    -0.008 C 
HETATM   19  C   UNK N   1      36.270  14.486  10.271  0.00  0.00     0.063 C 
HETATM   20  C   UNK N   1      35.324  16.755  10.889  0.00  0.00     0.052 C 
HETATM   21  C   UNK N   1      37.303  12.897   8.127  0.00  0.00     0.019 C 
HETATM   22  C   UNK N   1      35.881  15.455  11.313  0.00  0.00     0.172 C 
ENDROOT
TORSDOF 0
ENDMDL
MODEL 8
REMARK VINA RESULT:      -6.9      2.329      7.017
REMARK  0 active torsions:
REMARK  status: ('A' for Active; 'I' for Inactive)
ROOT
HETATM    1  O   UNK N   1      36.407  10.341  17.542  0.00  0.00    -0.297 OA
HETATM    2  O   UNK N   1      37.735  13.677   7.432  0.00  0.00    -0.289 OA
HETATM    3  C   UNK N   1      36.012  12.632  14.965  0.00  0.00     0.006 C 
HETATM    4  C   UNK N   1      35.892  12.863  13.453  0.00  0.00     0.000 C 
HETATM    5  C   UNK N   1      36.233  11.158  15.305  0.00  0.00     0.021 C 
HETATM    6  C   UNK N   1      37.194  12.351  12.762  0.00  0.00     0.007 C 
HETATM    7  C   UNK N   1      37.592  10.754  14.736  0.00  0.00     0.018 C 
HETATM    8  C   UNK N   1      37.550  10.906  13.202  0.00  0.00     0.007 C 
HETATM    9  C   UNK N   1      37.045  12.458  11.220  0.00  0.00     0.006 C 
HETATM   10  C   UNK N   1      34.876  13.063  15.883  0.00  0.00     0.013 C 
HETATM   11  C   UNK N   1      35.695  14.360  13.183  0.00  0.00     0.043 C 
HETATM   12  C   UNK N   1      36.080  11.238  16.780  0.00  0.00     0.135 C 
HETATM   13  C   UNK N   1      35.272  12.418  17.222  0.00  0.00     0.079 C 
HETATM   14  C   UNK N   1      35.140  10.219  14.782  0.00  0.00     0.024 C 
HETATM   15  C   UNK N   1      36.645  13.875  10.798  0.00  0.00    -0.036 C 
HETATM   16  C   UNK N   1      35.963  14.787  11.767  0.00  0.00    -0.060 C 
HETATM   17  C   UNK N   1      35.934  11.523  10.731  0.00  0.00     0.025 C 
HETATM   18  C   UNK N   1      38.304  12.010  10.496  0.00  0.00    -0.008 C 
HETATM   19  C   UNK N   1      36.870  14.275   9.528  0.00  0.00     0.063 C 
HETATM   20  C   UNK N   1      38.518  12.374   9.221  0.00  0.00     0.052 C 
HETATM   21  C   UNK N   1      35.686  16.049  11.436  0.00  0.00     0.019 C 
HETATM   22  C   UNK N   1      37.670  13.426   8.625  0.00  0.00     0.172 C 
ENDROOT
TORSDOF 0
ENDMDL
MODEL 9
REMARK VINA RESULT:      -6.8      8.490     11.449
REMARK  0 active torsions:
REMARK  status: ('A' for Active; 'I' for Inactive)
ROOT
HETATM    1  O   UNK N   1      28.726  15.412   2.231  0.00  0.00    -0.297 OA
HETATM    2  O   UNK N   1      35.500  17.554  10.270  0.00  0.00    -0.289 OA
HETATM    3  C   UNK N   1      30.930  14.485   4.748  0.00  0.00     0.006 C 
HETATM    4  C   UNK N   1      31.557  14.833   6.104  0.00  0.00     0.000 C 
HETATM    5  C   UNK N   1      29.971  15.574   4.262  0.00  0.00     0.021 C 
HETATM    6  C   UNK N   1      32.319  16.188   5.972  0.00  0.00     0.007 C 
HETATM    7  C   UNK N   1      30.798  16.832   4.002  0.00  0.00     0.018 C 
HETATM    8  C   UNK N   1      31.433  17.289   5.332  0.00  0.00     0.007 C 
HETATM    9  C   UNK N   1      32.856  16.624   7.362  0.00  0.00     0.006 C 
HETATM   10  C   UNK N   1      30.138  13.193   4.595  0.00  0.00     0.013 C 
HETATM   11  C   UNK N   1      32.520  13.714   6.518  0.00  0.00     0.043 C 
HETATM   12  C   UNK N   1      29.386  14.861   3.099  0.00  0.00     0.135 C 
HETATM   13  C   UNK N   1      29.480  13.371   3.217  0.00  0.00     0.079 C 
HETATM   14  C   UNK N   1      28.826  15.885   5.232  0.00  0.00     0.024 C 
HETATM   15  C   UNK N   1      33.690  15.514   8.008  0.00  0.00    -0.036 C 
HETATM   16  C   UNK N   1      33.495  14.089   7.599  0.00  0.00    -0.060 C 
HETATM   17  C   UNK N   1      31.690  16.909   8.313  0.00  0.00     0.025 C 
HETATM   18  C   UNK N   1      33.645  17.921   7.284  0.00  0.00    -0.008 C 
HETATM   19  C   UNK N   1      34.566  15.828   8.987  0.00  0.00     0.063 C 
HETATM   20  C   UNK N   1      34.493  18.258   8.270  0.00  0.00     0.052 C 
HETATM   21  C   UNK N   1      34.273  13.125   8.095  0.00  0.00     0.019 C 
HETATM   22  C   UNK N   1      34.855  17.245   9.282  0.00  0.00     0.172 C 
ENDROOT
TORSDOF 0
ENDMDL
