MODEL 1
REMARK VINA RESULT:      -4.8      0.000      0.000
REMARK  5 active torsions:
REMARK  status: ('A' for Active; 'I' for Inactive)
REMARK    1  A    between atoms: O_1  and  C_12 
REMARK    2  A    between atoms: N_3  and  C_11 
REMARK    3  A    between atoms: C_4  and  C_10 
REMARK    4  A    between atoms: C_4  and  C_11 
REMARK    5  A    between atoms: C_10  and  C_12 
ROOT
HETATM    1  C   UNK N   1      32.063  16.782   8.204  0.00  0.00    -0.016 C 
HETATM    2  C   UNK N   1      31.925  16.270   6.760  0.00  0.00     0.011 C 
HETATM    3  C   UNK N   1      30.665  16.825   8.846  0.00  0.00     0.011 C 
HETATM    4  C   UNK N   1      30.939  17.108   5.945  0.00  0.00     0.001 C 
HETATM    5  C   UNK N   1      29.688  17.671   8.030  0.00  0.00     0.001 C 
HETATM    6  C   UNK N   1      29.571  17.109   6.620  0.00  0.00     0.000 C 
ENDROOT
BRANCH   1   7
HETATM    7  C   UNK N   1      32.741  18.169   8.204  0.00  0.00     0.121 C 
BRANCH   7   8
HETATM    8  C   UNK N   1      34.219  18.126   7.937  0.00  0.00     0.140 C 
HETATM    9  O   UNK N   1      34.629  17.927   6.806  0.00  0.00    -0.650 OA
BRANCH   8  10
HETATM   10  O   UNK N   1      35.092  18.274   8.950  0.00  0.00    -0.776 OA
HETATM   11  H   UNK N   1      35.815  17.684   9.037  0.00  0.00     0.167 HD
ENDBRANCH   8  10
ENDBRANCH   7   8
ENDBRANCH   1   7
BRANCH   1  12
HETATM   12  C   UNK N   1      32.907  15.785   8.999  0.00  0.00     0.121 C 
BRANCH  12  13
HETATM   13  N   UNK N   1      32.158  15.214  10.110  0.00  0.00    -0.429 N 
HETATM   14  H   UNK N   1      31.670  15.662  10.886  0.00  0.00     0.149 HD
HETATM   15  H   UNK N   1      32.113  14.196  10.112  0.00  0.00     0.149 HD
ENDBRANCH  12  13
ENDBRANCH   1  12
TORSDOF 5
ENDMDL
MODEL 2
REMARK VINA RESULT:      -4.7      8.661     10.313
REMARK  5 active torsions:
REMARK  status: ('A' for Active; 'I' for Inactive)
REMARK    1  A    between atoms: O_1  and  C_12 
REMARK    2  A    between atoms: N_3  and  C_11 
REMARK    3  A    between atoms: C_4  and  C_10 
REMARK    4  A    between atoms: C_4  and  C_11 
REMARK    5  A    between atoms: C_10  and  C_12 
ROOT
HETATM    1  C   UNK N   1      35.211  12.057  15.759  0.00  0.00    -0.016 C 
HETATM    2  C   UNK N   1      34.599  13.189  16.602  0.00  0.00     0.011 C 
HETATM    3  C   UNK N   1      35.159  10.753  16.574  0.00  0.00     0.011 C 
HETATM    4  C   UNK N   1      35.285  13.328  17.962  0.00  0.00     0.001 C 
HETATM    5  C   UNK N   1      35.854  10.898  17.928  0.00  0.00     0.001 C 
HETATM    6  C   UNK N   1      35.195  12.013  18.730  0.00  0.00     0.000 C 
ENDROOT
BRANCH   1   7
HETATM    7  C   UNK N   1      36.654  12.428  15.356  0.00  0.00     0.121 C 
BRANCH   7   8
HETATM    8  C   UNK N   1      36.814  13.851  14.899  0.00  0.00     0.140 C 
HETATM    9  O   UNK N   1      36.295  14.220  13.859  0.00  0.00    -0.650 OA
BRANCH   8  10
HETATM   10  O   UNK N   1      37.560  14.710  15.618  0.00  0.00    -0.776 OA
HETATM   11  H   UNK N   1      37.187  15.514  15.923  0.00  0.00     0.167 HD
ENDBRANCH   8  10
ENDBRANCH   7   8
ENDBRANCH   1   7
BRANCH   1  12
HETATM   12  C   UNK N   1      34.352  11.856  14.510  0.00  0.00     0.121 C 
BRANCH  12  13
HETATM   13  N   UNK N   1      33.460  10.713  14.650  0.00  0.00    -0.429 N 
HETATM   14  H   UNK N   1      32.951  10.359  15.460  0.00  0.00     0.149 HD
HETATM   15  H   UNK N   1      33.320  10.177  13.795  0.00  0.00     0.149 HD
ENDBRANCH  12  13
ENDBRANCH   1  12
TORSDOF 5
ENDMDL
MODEL 3
REMARK VINA RESULT:      -4.7      9.157     10.401
REMARK  5 active torsions:
REMARK  status: ('A' for Active; 'I' for Inactive)
REMARK    1  A    between atoms: O_1  and  C_12 
REMARK    2  A    between atoms: N_3  and  C_11 
REMARK    3  A    between atoms: C_4  and  C_10 
REMARK    4  A    between atoms: C_4  and  C_11 
REMARK    5  A    between atoms: C_10  and  C_12 
ROOT
HETATM    1  C   UNK N   1      35.624  12.755  15.724  0.00  0.00    -0.016 C 
HETATM    2  C   UNK N   1      34.892  12.433  14.410  0.00  0.00     0.011 C 
HETATM    3  C   UNK N   1      36.303  11.473  16.236  0.00  0.00     0.011 C 
HETATM    4  C   UNK N   1      33.903  11.278  14.572  0.00  0.00     0.001 C 
HETATM    5  C   UNK N   1      35.306  10.327  16.403  0.00  0.00     0.001 C 
HETATM    6  C   UNK N   1      34.629  10.033  15.071  0.00  0.00     0.000 C 
ENDROOT
BRANCH   1   7
HETATM    7  C   UNK N   1      34.625  13.329  16.752  0.00  0.00     0.121 C 
BRANCH   7   8
HETATM    8  C   UNK N   1      35.239  13.664  18.081  0.00  0.00     0.140 C 
HETATM    9  O   UNK N   1      35.259  12.832  18.972  0.00  0.00    -0.650 OA
BRANCH   8  10
HETATM   10  O   UNK N   1      35.737  14.895  18.303  0.00  0.00    -0.776 OA
HETATM   11  H   UNK N   1      36.523  15.001  18.800  0.00  0.00     0.167 HD
ENDBRANCH   8  10
ENDBRANCH   7   8
ENDBRANCH   1   7
BRANCH   1  12
HETATM   12  C   UNK N   1      36.724  13.778  15.435  0.00  0.00     0.121 C 
BRANCH  12  13
HETATM   13  N   UNK N   1      36.815  14.080  14.013  0.00  0.00    -0.429 N 
HETATM   14  H   UNK N   1      37.586  14.451  13.458  0.00  0.00     0.149 HD
HETATM   15  H   UNK N   1      35.965  13.889  13.484  0.00  0.00     0.149 HD
ENDBRANCH  12  13
ENDBRANCH   1  12
TORSDOF 5
ENDMDL
MODEL 4
REMARK VINA RESULT:      -4.6      8.757     10.630
REMARK  5 active torsions:
REMARK  status: ('A' for Active; 'I' for Inactive)
REMARK    1  A    between atoms: O_1  and  C_12 
REMARK    2  A    between atoms: N_3  and  C_11 
REMARK    3  A    between atoms: C_4  and  C_10 
REMARK    4  A    between atoms: C_4  and  C_11 
REMARK    5  A    between atoms: C_10  and  C_12 
ROOT
HETATM    1  C   UNK N   1      35.788  11.516  15.912  0.00  0.00    -0.016 C 
HETATM    2  C   UNK N   1      36.131  10.726  17.187  0.00  0.00     0.011 C 
HETATM    3  C   UNK N   1      35.826  13.018  16.238  0.00  0.00     0.011 C 
HETATM    4  C   UNK N   1      35.209  11.089  18.352  0.00  0.00     0.001 C 
HETATM    5  C   UNK N   1      34.896  13.374  17.398  0.00  0.00     0.001 C 
HETATM    6  C   UNK N   1      35.294  12.585  18.639  0.00  0.00     0.000 C 
ENDROOT
BRANCH   1   7
HETATM    7  C   UNK N   1      34.407  11.075  15.381  0.00  0.00     0.121 C 
BRANCH   7   8
HETATM    8  C   UNK N   1      34.214  11.312  13.910  0.00  0.00     0.140 C 
HETATM    9  O   UNK N   1      33.977  10.374  13.166  0.00  0.00    -0.650 OA
BRANCH   8  10
HETATM   10  O   UNK N   1      34.337  12.553  13.404  0.00  0.00    -0.776 OA
HETATM   11  H   UNK N   1      33.577  13.085  13.277  0.00  0.00     0.167 HD
ENDBRANCH   8  10
ENDBRANCH   7   8
ENDBRANCH   1   7
BRANCH   1  12
HETATM   12  C   UNK N   1      36.866  11.243  14.861  0.00  0.00     0.121 C 
BRANCH  12  13
HETATM   13  N   UNK N   1      37.482  12.477  14.392  0.00  0.00    -0.429 N 
HETATM   14  H   UNK N   1      38.097  12.656  13.598  0.00  0.00     0.149 HD
HETATM   15  H   UNK N   1      37.261  13.300  14.951  0.00  0.00     0.149 HD
ENDBRANCH  12  13
ENDBRANCH   1  12
TORSDOF 5
ENDMDL
MODEL 5
REMARK VINA RESULT:      -4.5      2.243      2.962
REMARK  5 active torsions:
REMARK  status: ('A' for Active; 'I' for Inactive)
REMARK    1  A    between atoms: O_1  and  C_12 
REMARK    2  A    between atoms: N_3  and  C_11 
REMARK    3  A    between atoms: C_4  and  C_10 
REMARK    4  A    between atoms: C_4  and  C_11 
REMARK    5  A    between atoms: C_10  and  C_12 
ROOT
HETATM    1  C   UNK N   1      33.562  15.590   8.375  0.00  0.00    -0.016 C 
HETATM    2  C   UNK N   1      33.559  15.163   6.897  0.00  0.00     0.011 C 
HETATM    3  C   UNK N   1      32.868  16.958   8.493  0.00  0.00     0.011 C 
HETATM    4  C   UNK N   1      34.200  16.217   5.994  0.00  0.00     0.001 C 
HETATM    5  C   UNK N   1      33.520  18.008   7.593  0.00  0.00     0.001 C 
HETATM    6  C   UNK N   1      33.469  17.547   6.142  0.00  0.00     0.000 C 
ENDROOT
BRANCH   1   7
HETATM    7  C   UNK N   1      35.011  15.631   8.905  0.00  0.00     0.121 C 
BRANCH   7   8
HETATM    8  C   UNK N   1      35.155  16.298  10.243  0.00  0.00     0.140 C 
HETATM    9  O   UNK N   1      34.805  15.715  11.256  0.00  0.00    -0.650 OA
BRANCH   8  10
HETATM   10  O   UNK N   1      35.637  17.552  10.325  0.00  0.00    -0.776 OA
HETATM   11  H   UNK N   1      36.550  17.695  10.473  0.00  0.00     0.167 HD
ENDBRANCH   8  10
ENDBRANCH   7   8
ENDBRANCH   1   7
BRANCH   1  12
HETATM   12  C   UNK N   1      32.737  14.583   9.179  0.00  0.00     0.121 C 
BRANCH  12  13
HETATM   13  N   UNK N   1      31.876  15.246  10.149  0.00  0.00    -0.429 N 
HETATM   14  H   UNK N   1      31.398  16.146  10.110  0.00  0.00     0.149 HD
HETATM   15  H   UNK N   1      31.726  14.723  11.010  0.00  0.00     0.149 HD
ENDBRANCH  12  13
ENDBRANCH   1  12
TORSDOF 5
ENDMDL
MODEL 6
REMARK VINA RESULT:      -4.4      9.169     10.291
REMARK  5 active torsions:
REMARK  status: ('A' for Active; 'I' for Inactive)
REMARK    1  A    between atoms: O_1  and  C_12 
REMARK    2  A    between atoms: N_3  and  C_11 
REMARK    3  A    between atoms: C_4  and  C_10 
REMARK    4  A    between atoms: C_4  and  C_11 
REMARK    5  A    between atoms: C_10  and  C_12 
ROOT
HETATM    1  C   UNK N   1      35.476  12.186  16.152  0.00  0.00    -0.016 C 
HETATM    2  C   UNK N   1      35.839  11.120  17.201  0.00  0.00     0.011 C 
HETATM    3  C   UNK N   1      34.363  11.629  15.249  0.00  0.00     0.011 C 
HETATM    4  C   UNK N   1      36.228   9.789  16.556  0.00  0.00     0.001 C 
HETATM    5  C   UNK N   1      34.763  10.303  14.602  0.00  0.00     0.001 C 
HETATM    6  C   UNK N   1      35.088   9.279  15.682  0.00  0.00     0.000 C 
ENDROOT
BRANCH   1   7
HETATM    7  C   UNK N   1      36.734  12.574  15.346  0.00  0.00     0.121 C 
BRANCH   7   8
HETATM    8  C   UNK N   1      36.786  14.024  14.955  0.00  0.00     0.140 C 
HETATM    9  O   UNK N   1      36.119  14.428  14.018  0.00  0.00    -0.650 OA
BRANCH   8  10
HETATM   10  O   UNK N   1      37.596  14.872  15.615  0.00  0.00    -0.776 OA
HETATM   11  H   UNK N   1      38.482  14.629  15.798  0.00  0.00     0.167 HD
ENDBRANCH   8  10
ENDBRANCH   7   8
ENDBRANCH   1   7
BRANCH   1  12
HETATM   12  C   UNK N   1      34.916  13.413  16.874  0.00  0.00     0.121 C 
BRANCH  12  13
HETATM   13  N   UNK N   1      35.150  13.345  18.310  0.00  0.00    -0.429 N 
HETATM   14  H   UNK N   1      35.281  12.543  18.926  0.00  0.00     0.149 HD
HETATM   15  H   UNK N   1      35.189  14.250  18.776  0.00  0.00     0.149 HD
ENDBRANCH  12  13
ENDBRANCH   1  12
TORSDOF 5
ENDMDL
MODEL 7
REMARK VINA RESULT:      -4.4      1.269      1.698
REMARK  5 active torsions:
REMARK  status: ('A' for Active; 'I' for Inactive)
REMARK    1  A    between atoms: O_1  and  C_12 
REMARK    2  A    between atoms: N_3  and  C_11 
REMARK    3  A    between atoms: C_4  and  C_10 
REMARK    4  A    between atoms: C_4  and  C_11 
REMARK    5  A    between atoms: C_10  and  C_12 
ROOT
HETATM    1  C   UNK N   1      32.968  16.374   7.587  0.00  0.00    -0.016 C 
HETATM    2  C   UNK N   1      33.823  16.418   6.309  0.00  0.00     0.011 C 
HETATM    3  C   UNK N   1      31.508  16.088   7.194  0.00  0.00     0.011 C 
HETATM    4  C   UNK N   1      33.287  17.430   5.295  0.00  0.00     0.001 C 
HETATM    5  C   UNK N   1      30.978  17.108   6.186  0.00  0.00     0.001 C 
HETATM    6  C   UNK N   1      31.844  17.094   4.933  0.00  0.00     0.000 C 
ENDROOT
BRANCH   1   7
HETATM    7  C   UNK N   1      33.108  17.705   8.355  0.00  0.00     0.121 C 
BRANCH   7   8
HETATM    8  C   UNK N   1      34.530  18.105   8.631  0.00  0.00     0.140 C 
HETATM    9  O   UNK N   1      35.087  18.916   7.911  0.00  0.00    -0.650 OA
BRANCH   8  10
HETATM   10  O   UNK N   1      35.202  17.543   9.653  0.00  0.00    -0.776 OA
HETATM   11  H   UNK N   1      35.486  16.652   9.596  0.00  0.00     0.167 HD
ENDBRANCH   8  10
ENDBRANCH   7   8
ENDBRANCH   1   7
BRANCH   1  12
HETATM   12  C   UNK N   1      33.448  15.212   8.459  0.00  0.00     0.121 C 
BRANCH  12  13
HETATM   13  N   UNK N   1      32.449  14.836   9.450  0.00  0.00    -0.429 N 
HETATM   14  H   UNK N   1      31.786  14.062   9.469  0.00  0.00     0.149 HD
HETATM   15  H   UNK N   1      32.407  15.451  10.262  0.00  0.00     0.149 HD
ENDBRANCH  12  13
ENDBRANCH   1  12
TORSDOF 5
ENDMDL
MODEL 8
REMARK VINA RESULT:      -4.4     10.331     11.624
REMARK  5 active torsions:
REMARK  status: ('A' for Active; 'I' for Inactive)
REMARK    1  A    between atoms: O_1  and  C_12 
REMARK    2  A    between atoms: N_3  and  C_11 
REMARK    3  A    between atoms: C_4  and  C_10 
REMARK    4  A    between atoms: C_4  and  C_11 
REMARK    5  A    between atoms: C_10  and  C_12 
ROOT
HETATM    1  C   UNK N   1      22.458  12.726   9.054  0.00  0.00    -0.016 C 
HETATM    2  C   UNK N   1      22.365  11.694  10.192  0.00  0.00     0.011 C 
HETATM    3  C   UNK N   1      23.927  12.841   8.612  0.00  0.00     0.011 C 
HETATM    4  C   UNK N   1      23.295  12.038  11.356  0.00  0.00     0.001 C 
HETATM    5  C   UNK N   1      24.848  13.192   9.780  0.00  0.00     0.001 C 
HETATM    6  C   UNK N   1      24.736  12.129  10.865  0.00  0.00     0.000 C 
ENDROOT
BRANCH   1   7
HETATM    7  C   UNK N   1      21.891  14.081   9.531  0.00  0.00     0.121 C 
BRANCH   7   8
HETATM    8  C   UNK N   1      20.395  14.185   9.438  0.00  0.00     0.140 C 
HETATM    9  O   UNK N   1      19.691  13.580  10.229  0.00  0.00    -0.650 OA
BRANCH   8  10
HETATM   10  O   UNK N   1      19.829  14.916   8.460  0.00  0.00    -0.776 OA
HETATM   11  H   UNK N   1      19.824  14.599   7.579  0.00  0.00     0.167 HD
ENDBRANCH   8  10
ENDBRANCH   7   8
ENDBRANCH   1   7
BRANCH   1  12
HETATM   12  C   UNK N   1      21.653  12.212   7.859  0.00  0.00     0.121 C 
BRANCH  12  13
HETATM   13  N   UNK N   1      22.521  11.664   6.825  0.00  0.00    -0.429 N 
HETATM   14  H   UNK N   1      23.318  11.032   6.890  0.00  0.00     0.149 HD
HETATM   15  H   UNK N   1      22.291  11.961   5.878  0.00  0.00     0.149 HD
ENDBRANCH  12  13
ENDBRANCH   1  12
TORSDOF 5
ENDMDL
MODEL 9
REMARK VINA RESULT:      -4.4     15.405     16.771
REMARK  5 active torsions:
REMARK  status: ('A' for Active; 'I' for Inactive)
REMARK    1  A    between atoms: O_1  and  C_12 
REMARK    2  A    between atoms: N_3  and  C_11 
REMARK    3  A    between atoms: C_4  and  C_10 
REMARK    4  A    between atoms: C_4  and  C_11 
REMARK    5  A    between atoms: C_10  and  C_12 
ROOT
HETATM    1  C   UNK N   1      26.399  26.419  -4.563  0.00  0.00    -0.016 C 
HETATM    2  C   UNK N   1      25.326  26.973  -5.518  0.00  0.00     0.011 C 
HETATM    3  C   UNK N   1      27.782  26.870  -5.063  0.00  0.00     0.011 C 
HETATM    4  C   UNK N   1      25.580  26.560  -6.968  0.00  0.00     0.001 C 
HETATM    5  C   UNK N   1      28.031  26.447  -6.511  0.00  0.00     0.001 C 
HETATM    6  C   UNK N   1      26.957  27.040  -7.414  0.00  0.00     0.000 C 
ENDROOT
BRANCH   1   7
HETATM    7  C   UNK N   1      26.286  24.882  -4.486  0.00  0.00     0.121 C 
BRANCH   7   8
HETATM    8  C   UNK N   1      27.306  24.238  -3.592  0.00  0.00     0.140 C 
HETATM    9  O   UNK N   1      28.415  23.969  -4.024  0.00  0.00    -0.650 OA
BRANCH   8  10
HETATM   10  O   UNK N   1      26.989  23.924  -2.322  0.00  0.00    -0.776 OA
HETATM   11  H   UNK N   1      26.172  23.509  -2.131  0.00  0.00     0.167 HD
ENDBRANCH   8  10
ENDBRANCH   7   8
ENDBRANCH   1   7
BRANCH   1  12
HETATM   12  C   UNK N   1      26.186  27.031  -3.178  0.00  0.00     0.121 C 
BRANCH  12  13
HETATM   13  N   UNK N   1      25.692  28.399  -3.266  0.00  0.00    -0.429 N 
HETATM   14  H   UNK N   1      25.979  29.245  -2.773  0.00  0.00     0.149 HD
HETATM   15  H   UNK N   1      24.933  28.533  -3.933  0.00  0.00     0.149 HD
ENDBRANCH  12  13
ENDBRANCH   1  12
TORSDOF 5
ENDMDL
