MODEL 1
REMARK VINA RESULT:      -8.0      0.000      0.000
REMARK  11 active torsions:
REMARK  status: ('A' for Active; 'I' for Inactive)
REMARK    1  A    between atoms: C_13  and  O_1 
REMARK    2  A    between atoms: C_19  and  O_1 
REMARK    3  A    between atoms: C_14  and  O_3 
REMARK    4  A    between atoms: C_22  and  O_4 
REMARK    5  A    between atoms: O_5  and  C_24 
REMARK    6  A    between atoms: O_6  and  C_26 
REMARK    7  A    between atoms: O_8  and  C_30 
REMARK    8  A    between atoms: O_11  and  C_35 
REMARK    9  A    between atoms: C_21  and  N_12 
REMARK   10  A    between atoms: C_14  and  C_25 
REMARK   11  A    between atoms: C_25  and  C_30 
ROOT
HETATM    1  O   UNK N   1      31.252  16.453   9.487  0.00  0.00    -0.286 OA
HETATM    2  O   UNK N   1      33.681  16.616   4.753  0.00  0.00    -0.286 OA
HETATM    3  C   UNK N   1      35.442  13.369  10.125  0.00  0.00     0.164 C 
HETATM    4  C   UNK N   1      36.993  12.395   8.347  0.00  0.00     0.127 C 
HETATM    5  C   UNK N   1      35.832  12.128   9.320  0.00  0.00     0.083 C 
HETATM    6  C   UNK N   1      36.953  13.829   7.771  0.00  0.00     0.088 C 
HETATM    7  C   UNK N   1      34.901  14.357   9.107  0.00  0.00     0.014 A 
HETATM    8  C   UNK N   1      35.611  14.508   7.906  0.00  0.00    -0.009 A 
HETATM    9  C   UNK N   1      33.675  15.023   9.283  0.00  0.00     0.090 A 
HETATM   10  C   UNK N   1      35.061  15.238   6.842  0.00  0.00     0.088 A 
HETATM   11  C   UNK N   1      33.112  15.762   8.222  0.00  0.00     0.066 A 
HETATM   12  C   UNK N   1      33.786  15.838   6.982  0.00  0.00     0.066 A 
HETATM   13  C   UNK N   1      31.771  16.394   8.384  0.00  0.00     0.200 C 
HETATM   14  C   UNK N   1      33.111  16.507   5.827  0.00  0.00     0.197 C 
HETATM   15  C   UNK N   1      31.037  16.888   7.194  0.00  0.00     0.062 A 
HETATM   16  C   UNK N   1      31.696  16.939   5.949  0.00  0.00     0.032 A 
HETATM   17  C   UNK N   1      29.675  17.271   7.284  0.00  0.00     0.083 A 
HETATM   18  C   UNK N   1      31.000  17.370   4.812  0.00  0.00     0.017 A 
HETATM   19  C   UNK N   1      28.999  17.688   6.125  0.00  0.00     0.038 A 
HETATM   20  C   UNK N   1      29.659  17.737   4.899  0.00  0.00     0.004 A 
ENDROOT
BRANCH   3  21
HETATM   21  O   UNK N   1      34.435  12.933  10.996  0.00  0.00    -0.351 OA
BRANCH  21  22
HETATM   22  C   UNK N   1      35.031  12.569  12.203  0.00  0.00     0.263 C 
HETATM   23  O   UNK N   1      34.050  12.090  13.094  0.00  0.00    -0.354 OA
HETATM   24  C   UNK N   1      34.740  11.545  14.188  0.00  0.00     0.151 C 
HETATM   25  C   UNK N   1      35.329  12.696  15.014  0.00  0.00     0.169 C 
HETATM   26  C   UNK N   1      33.775  10.715  15.013  0.00  0.00     0.042 C 
HETATM   27  C   UNK N   1      36.313  13.496  14.147  0.00  0.00     0.110 C 
HETATM   28  C   UNK N   1      35.667  13.831  12.804  0.00  0.00     0.088 C 
BRANCH  25  29
HETATM   29  O   UNK N   1      35.969  12.221  16.161  0.00  0.00    -0.391 OA
HETATM   30  H   UNK N   1      36.849  12.392  16.532  0.00  0.00     0.210 HD
ENDBRANCH  25  29
BRANCH  27  31
HETATM   31  N   UNK N   1      37.534  12.736  13.914  0.00  0.00    -0.423 N 
HETATM   32  H   UNK N   1      38.439  12.279  14.018  0.00  0.00     0.150 HD
HETATM   33  H   UNK N   1      37.351  12.469  12.947  0.00  0.00     0.150 HD
ENDBRANCH  27  31
ENDBRANCH  21  22
ENDBRANCH   3  21
BRANCH   4  34
HETATM   34  O   UNK N   1      36.890  11.483   7.295  0.00  0.00    -0.382 OA
HETATM   35  H   UNK N   1      36.421  10.725   6.913  0.00  0.00     0.211 HD
ENDBRANCH   4  34
BRANCH   4  36
HETATM   36  C   UNK N   1      38.315  12.180   9.054  0.00  0.00     0.184 C 
HETATM   37  O   UNK N   1      38.836  11.072   9.072  0.00  0.00    -0.292 OA
BRANCH  36  38
HETATM   38  C   UNK N   1      39.000  13.333   9.729  0.00  0.00     0.245 C 
BRANCH  38  39
HETATM   39  O   UNK N   1      38.675  13.379  11.087  0.00  0.00    -0.393 OA
HETATM   40  H   UNK N   1      38.297  12.633  11.581  0.00  0.00     0.209 HD
ENDBRANCH  38  39
ENDBRANCH  36  38
ENDBRANCH   4  36
BRANCH   9  41
HETATM   41  O   UNK N   1      33.015  14.919  10.451  0.00  0.00    -0.359 OA
HETATM   42  H   UNK N   1      32.113  14.663  10.459  0.00  0.00     0.217 HD
ENDBRANCH   9  41
BRANCH  10  43
HETATM   43  O   UNK N   1      35.739  15.322   5.683  0.00  0.00    -0.359 OA
HETATM   44  H   UNK N   1      35.276  15.317   4.868  0.00  0.00     0.217 HD
ENDBRANCH  10  43
BRANCH  17  45
HETATM   45  O   UNK N   1      29.028  17.205   8.476  0.00  0.00    -0.355 OA
HETATM   46  C   UNK N   1      28.200  18.195   8.953  0.00  0.00     0.210 C 
ENDBRANCH  17  45
TORSDOF 11
ENDMDL
MODEL 2
REMARK VINA RESULT:      -7.4      3.900      7.650
REMARK  11 active torsions:
REMARK  status: ('A' for Active; 'I' for Inactive)
REMARK    1  A    between atoms: C_13  and  O_1 
REMARK    2  A    between atoms: C_19  and  O_1 
REMARK    3  A    between atoms: C_14  and  O_3 
REMARK    4  A    between atoms: C_22  and  O_4 
REMARK    5  A    between atoms: O_5  and  C_24 
REMARK    6  A    between atoms: O_6  and  C_26 
REMARK    7  A    between atoms: O_8  and  C_30 
REMARK    8  A    between atoms: O_11  and  C_35 
REMARK    9  A    between atoms: C_21  and  N_12 
REMARK   10  A    between atoms: C_14  and  C_25 
REMARK   11  A    between atoms: C_25  and  C_30 
ROOT
HETATM    1  O   UNK N   1      28.472  17.854   3.918  0.00  0.00    -0.286 OA
HETATM    2  O   UNK N   1      28.809  18.770   9.152  0.00  0.00    -0.286 OA
HETATM    3  C   UNK N   1      32.773  15.234   5.372  0.00  0.00     0.164 C 
HETATM    4  C   UNK N   1      34.084  15.402   7.556  0.00  0.00     0.127 C 
HETATM    5  C   UNK N   1      34.022  15.780   6.067  0.00  0.00     0.083 C 
HETATM    6  C   UNK N   1      32.680  15.349   8.203  0.00  0.00     0.088 C 
HETATM    7  C   UNK N   1      31.603  15.950   6.022  0.00  0.00     0.014 A 
HETATM    8  C   UNK N   1      31.615  16.080   7.419  0.00  0.00    -0.009 A 
HETATM    9  C   UNK N   1      30.590  16.572   5.271  0.00  0.00     0.090 A 
HETATM   10  C   UNK N   1      30.684  16.905   8.065  0.00  0.00     0.088 A 
HETATM   11  C   UNK N   1      29.646  17.404   5.908  0.00  0.00     0.066 A 
HETATM   12  C   UNK N   1      29.715  17.606   7.305  0.00  0.00     0.066 A 
HETATM   13  C   UNK N   1      28.627  18.131   5.097  0.00  0.00     0.200 C 
HETATM   14  C   UNK N   1      28.795  18.597   7.943  0.00  0.00     0.197 C 
HETATM   15  C   UNK N   1      27.851  19.239   5.704  0.00  0.00     0.062 A 
HETATM   16  C   UNK N   1      27.939  19.462   7.093  0.00  0.00     0.032 A 
HETATM   17  C   UNK N   1      27.057  20.098   4.904  0.00  0.00     0.083 A 
HETATM   18  C   UNK N   1      27.238  20.529   7.671  0.00  0.00     0.017 A 
HETATM   19  C   UNK N   1      26.375  21.167   5.508  0.00  0.00     0.038 A 
HETATM   20  C   UNK N   1      26.465  21.379   6.882  0.00  0.00     0.004 A 
ENDROOT
BRANCH   3  21
HETATM   21  O   UNK N   1      32.914  15.606   4.029  0.00  0.00    -0.351 OA
BRANCH  21  22
HETATM   22  C   UNK N   1      33.506  14.546   3.343  0.00  0.00     0.263 C 
HETATM   23  O   UNK N   1      34.075  15.012   2.141  0.00  0.00    -0.354 OA
HETATM   24  C   UNK N   1      34.831  13.950   1.622  0.00  0.00     0.151 C 
HETATM   25  C   UNK N   1      33.867  12.887   1.079  0.00  0.00     0.169 C 
HETATM   26  C   UNK N   1      35.735  14.482   0.526  0.00  0.00     0.042 C 
HETATM   27  C   UNK N   1      32.987  12.364   2.224  0.00  0.00     0.110 C 
HETATM   28  C   UNK N   1      32.398  13.538   3.003  0.00  0.00     0.088 C 
BRANCH  25  29
HETATM   29  O   UNK N   1      34.561  11.833   0.480  0.00  0.00    -0.391 OA
HETATM   30  H   UNK N   1      34.768  11.635  -0.447  0.00  0.00     0.210 HD
ENDBRANCH  25  29
BRANCH  27  31
HETATM   31  N   UNK N   1      33.760  11.528   3.131  0.00  0.00    -0.423 N 
HETATM   32  H   UNK N   1      34.052  10.812   3.797  0.00  0.00     0.150 HD
HETATM   33  H   UNK N   1      34.659  11.997   3.025  0.00  0.00     0.150 HD
ENDBRANCH  27  31
ENDBRANCH  21  22
ENDBRANCH   3  21
BRANCH   4  34
HETATM   34  O   UNK N   1      34.847  16.368   8.213  0.00  0.00    -0.382 OA
HETATM   35  H   UNK N   1      34.979  17.308   8.415  0.00  0.00     0.211 HD
ENDBRANCH   4  34
BRANCH   4  36
HETATM   36  C   UNK N   1      34.755  14.055   7.716  0.00  0.00     0.184 C 
HETATM   37  O   UNK N   1      34.085  13.030   7.762  0.00  0.00    -0.292 OA
BRANCH  36  38
HETATM   38  C   UNK N   1      36.251  13.967   7.809  0.00  0.00     0.245 C 
BRANCH  38  39
HETATM   39  O   UNK N   1      36.691  14.316   9.089  0.00  0.00    -0.393 OA
HETATM   40  H   UNK N   1      36.129  14.299   9.880  0.00  0.00     0.209 HD
ENDBRANCH  38  39
ENDBRANCH  36  38
ENDBRANCH   4  36
BRANCH   9  41
HETATM   41  O   UNK N   1      30.547  16.410   3.936  0.00  0.00    -0.359 OA
HETATM   42  H   UNK N   1      30.603  17.157   3.371  0.00  0.00     0.217 HD
ENDBRANCH   9  41
BRANCH  10  43
HETATM   43  O   UNK N   1      30.751  17.055   9.401  0.00  0.00    -0.359 OA
HETATM   44  H   UNK N   1      31.543  16.844   9.857  0.00  0.00     0.217 HD
ENDBRANCH  10  43
BRANCH  17  45
HETATM   45  O   UNK N   1      26.984  19.902   3.562  0.00  0.00    -0.355 OA
HETATM   46  C   UNK N   1      25.873  20.196   2.804  0.00  0.00     0.210 C 
ENDBRANCH  17  45
TORSDOF 11
ENDMDL
MODEL 3
REMARK VINA RESULT:      -7.3      2.773      3.967
REMARK  11 active torsions:
REMARK  status: ('A' for Active; 'I' for Inactive)
REMARK    1  A    between atoms: C_13  and  O_1 
REMARK    2  A    between atoms: C_19  and  O_1 
REMARK    3  A    between atoms: C_14  and  O_3 
REMARK    4  A    between atoms: C_22  and  O_4 
REMARK    5  A    between atoms: O_5  and  C_24 
REMARK    6  A    between atoms: O_6  and  C_26 
REMARK    7  A    between atoms: O_8  and  C_30 
REMARK    8  A    between atoms: O_11  and  C_35 
REMARK    9  A    between atoms: C_21  and  N_12 
REMARK   10  A    between atoms: C_14  and  C_25 
REMARK   11  A    between atoms: C_25  and  C_30 
ROOT
HETATM    1  O   UNK N   1      31.568  13.634   6.442  0.00  0.00    -0.286 OA
HETATM    2  O   UNK N   1      34.401  18.075   7.218  0.00  0.00    -0.286 OA
HETATM    3  C   UNK N   1      34.593  12.485  10.566  0.00  0.00     0.164 C 
HETATM    4  C   UNK N   1      36.636  13.735  11.446  0.00  0.00     0.127 C 
HETATM    5  C   UNK N   1      36.119  12.521  10.657  0.00  0.00     0.083 C 
HETATM    6  C   UNK N   1      35.746  14.983  11.245  0.00  0.00     0.088 C 
HETATM    7  C   UNK N   1      34.208  13.699   9.741  0.00  0.00     0.014 A 
HETATM    8  C   UNK N   1      34.854  14.912  10.028  0.00  0.00    -0.009 A 
HETATM    9  C   UNK N   1      33.327  13.618   8.648  0.00  0.00     0.090 A 
HETATM   10  C   UNK N   1      34.705  16.016   9.176  0.00  0.00     0.088 A 
HETATM   11  C   UNK N   1      33.167  14.722   7.785  0.00  0.00     0.066 A 
HETATM   12  C   UNK N   1      33.888  15.913   8.023  0.00  0.00     0.066 A 
HETATM   13  C   UNK N   1      32.300  14.602   6.577  0.00  0.00     0.200 C 
HETATM   14  C   UNK N   1      33.815  17.022   7.023  0.00  0.00     0.197 C 
HETATM   15  C   UNK N   1      32.377  15.625   5.506  0.00  0.00     0.062 A 
HETATM   16  C   UNK N   1      33.119  16.803   5.730  0.00  0.00     0.032 A 
HETATM   17  C   UNK N   1      31.750  15.418   4.252  0.00  0.00     0.083 A 
HETATM   18  C   UNK N   1      33.228  17.759   4.711  0.00  0.00     0.017 A 
HETATM   19  C   UNK N   1      31.886  16.388   3.245  0.00  0.00     0.038 A 
HETATM   20  C   UNK N   1      32.620  17.549   3.475  0.00  0.00     0.004 A 
ENDROOT
BRANCH   3  21
HETATM   21  O   UNK N   1      34.298  11.295   9.887  0.00  0.00    -0.351 OA
BRANCH  21  22
HETATM   22  C   UNK N   1      34.883  10.239  10.586  0.00  0.00     0.263 C 
HETATM   23  O   UNK N   1      34.629   9.025   9.917  0.00  0.00    -0.354 OA
HETATM   24  C   UNK N   1      35.422   8.052  10.545  0.00  0.00     0.151 C 
HETATM   25  C   UNK N   1      34.814   7.745  11.921  0.00  0.00     0.169 C 
HETATM   26  C   UNK N   1      35.459   6.812   9.673  0.00  0.00     0.042 C 
HETATM   27  C   UNK N   1      34.815   9.022  12.775  0.00  0.00     0.110 C 
HETATM   28  C   UNK N   1      34.229  10.182  11.973  0.00  0.00     0.088 C 
BRANCH  25  29
HETATM   29  O   UNK N   1      35.518   6.727  12.570  0.00  0.00    -0.391 OA
HETATM   30  H   UNK N   1      35.300   5.799  12.748  0.00  0.00     0.210 HD
ENDBRANCH  25  29
BRANCH  27  31
HETATM   31  N   UNK N   1      36.166   9.365  13.195  0.00  0.00    -0.423 N 
HETATM   32  H   UNK N   1      37.013   9.524  13.741  0.00  0.00     0.150 HD
HETATM   33  H   UNK N   1      36.526   9.656  12.286  0.00  0.00     0.150 HD
ENDBRANCH  27  31
ENDBRANCH  21  22
ENDBRANCH   3  21
BRANCH   4  34
HETATM   34  O   UNK N   1      37.925  14.023  10.995  0.00  0.00    -0.382 OA
HETATM   35  H   UNK N   1      38.708  14.591  11.065  0.00  0.00     0.211 HD
ENDBRANCH   4  34
BRANCH   4  36
HETATM   36  C   UNK N   1      36.696  13.401  12.921  0.00  0.00     0.184 C 
HETATM   37  O   UNK N   1      36.968  12.265  13.290  0.00  0.00    -0.292 OA
BRANCH  36  38
HETATM   38  C   UNK N   1      36.430  14.469  13.944  0.00  0.00     0.245 C 
BRANCH  38  39
HETATM   39  O   UNK N   1      37.238  14.292  15.070  0.00  0.00    -0.393 OA
HETATM   40  H   UNK N   1      36.913  14.335  15.984  0.00  0.00     0.209 HD
ENDBRANCH  38  39
ENDBRANCH  36  38
ENDBRANCH   4  36
BRANCH   9  41
HETATM   41  O   UNK N   1      32.669  12.471   8.398  0.00  0.00    -0.359 OA
HETATM   42  H   UNK N   1      31.894  12.261   8.882  0.00  0.00     0.217 HD
ENDBRANCH   9  41
BRANCH  10  43
HETATM   43  O   UNK N   1      35.379  17.149   9.445  0.00  0.00    -0.359 OA
HETATM   44  H   UNK N   1      34.911  17.944   9.614  0.00  0.00     0.217 HD
ENDBRANCH  10  43
BRANCH  17  45
HETATM   45  O   UNK N   1      31.050  14.277   4.023  0.00  0.00    -0.355 OA
HETATM   46  C   UNK N   1      31.185  13.510   2.888  0.00  0.00     0.210 C 
ENDBRANCH  17  45
TORSDOF 11
ENDMDL
MODEL 4
REMARK VINA RESULT:      -7.2      7.510     11.165
REMARK  11 active torsions:
REMARK  status: ('A' for Active; 'I' for Inactive)
REMARK    1  A    between atoms: C_13  and  O_1 
REMARK    2  A    between atoms: C_19  and  O_1 
REMARK    3  A    between atoms: C_14  and  O_3 
REMARK    4  A    between atoms: C_22  and  O_4 
REMARK    5  A    between atoms: O_5  and  C_24 
REMARK    6  A    between atoms: O_6  and  C_26 
REMARK    7  A    between atoms: O_8  and  C_30 
REMARK    8  A    between atoms: O_11  and  C_35 
REMARK    9  A    between atoms: C_21  and  N_12 
REMARK   10  A    between atoms: C_14  and  C_25 
REMARK   11  A    between atoms: C_25  and  C_30 
ROOT
HETATM    1  O   UNK N   1      22.264  17.098   5.414  0.00  0.00    -0.286 OA
HETATM    2  O   UNK N   1      24.380  21.076   2.578  0.00  0.00    -0.286 OA
HETATM    3  C   UNK N   1      27.419  16.168   5.607  0.00  0.00     0.164 C 
HETATM    4  C   UNK N   1      29.281  17.193   4.193  0.00  0.00     0.127 C 
HETATM    5  C   UNK N   1      28.386  15.966   4.439  0.00  0.00     0.083 C 
HETATM    6  C   UNK N   1      28.547  18.519   4.497  0.00  0.00     0.088 C 
HETATM    7  C   UNK N   1      26.478  17.275   5.166  0.00  0.00     0.014 A 
HETATM    8  C   UNK N   1      27.042  18.394   4.535  0.00  0.00    -0.009 A 
HETATM    9  C   UNK N   1      25.080  17.159   5.267  0.00  0.00     0.090 A 
HETATM   10  C   UNK N   1      26.223  19.350   3.917  0.00  0.00     0.088 A 
HETATM   11  C   UNK N   1      24.246  18.114   4.652  0.00  0.00     0.066 A 
HETATM   12  C   UNK N   1      24.815  19.193   3.939  0.00  0.00     0.066 A 
HETATM   13  C   UNK N   1      22.764  17.940   4.686  0.00  0.00     0.200 C 
HETATM   14  C   UNK N   1      23.919  20.116   3.177  0.00  0.00     0.197 C 
HETATM   15  C   UNK N   1      21.903  18.744   3.785  0.00  0.00     0.062 A 
HETATM   16  C   UNK N   1      22.474  19.803   3.050  0.00  0.00     0.032 A 
HETATM   17  C   UNK N   1      20.529  18.437   3.623  0.00  0.00     0.083 A 
HETATM   18  C   UNK N   1      21.676  20.544   2.168  0.00  0.00     0.017 A 
HETATM   19  C   UNK N   1      19.757  19.189   2.723  0.00  0.00     0.038 A 
HETATM   20  C   UNK N   1      20.327  20.235   2.002  0.00  0.00     0.004 A 
ENDROOT
BRANCH   3  21
HETATM   21  O   UNK N   1      26.743  14.946   5.732  0.00  0.00    -0.351 OA
BRANCH  21  22
HETATM   22  C   UNK N   1      26.918  14.228   4.549  0.00  0.00     0.263 C 
HETATM   23  O   UNK N   1      25.718  14.224   3.812  0.00  0.00    -0.354 OA
HETATM   24  C   UNK N   1      26.026  13.683   2.554  0.00  0.00     0.151 C 
HETATM   25  C   UNK N   1      26.258  12.175   2.717  0.00  0.00     0.169 C 
HETATM   26  C   UNK N   1      24.877  13.962   1.605  0.00  0.00     0.042 C 
HETATM   27  C   UNK N   1      27.441  11.941   3.670  0.00  0.00     0.110 C 
HETATM   28  C   UNK N   1      27.265  12.783   4.932  0.00  0.00     0.088 C 
BRANCH  25  29
HETATM   29  O   UNK N   1      26.499  11.563   1.485  0.00  0.00    -0.391 OA
HETATM   30  H   UNK N   1      27.135  11.755   0.778  0.00  0.00     0.210 HD
ENDBRANCH  25  29
BRANCH  27  31
HETATM   31  N   UNK N   1      28.700  12.296   3.030  0.00  0.00    -0.423 N 
HETATM   32  H   UNK N   1      29.486  12.807   2.627  0.00  0.00     0.150 HD
HETATM   33  H   UNK N   1      29.044  11.351   2.861  0.00  0.00     0.150 HD
ENDBRANCH  27  31
ENDBRANCH  21  22
ENDBRANCH   3  21
BRANCH   4  34
HETATM   34  O   UNK N   1      29.660  17.184   2.850  0.00  0.00    -0.382 OA
HETATM   35  H   UNK N   1      29.654  17.644   1.996  0.00  0.00     0.211 HD
ENDBRANCH   4  34
BRANCH   4  36
HETATM   36  C   UNK N   1      30.522  17.104   5.055  0.00  0.00     0.184 C 
HETATM   37  O   UNK N   1      30.442  17.213   6.272  0.00  0.00    -0.292 OA
BRANCH  36  38
HETATM   38  C   UNK N   1      31.863  16.870   4.419  0.00  0.00     0.245 C 
BRANCH  38  39
HETATM   39  O   UNK N   1      32.209  17.936   3.584  0.00  0.00    -0.393 OA
HETATM   40  H   UNK N   1      32.838  17.867   2.848  0.00  0.00     0.209 HD
ENDBRANCH  38  39
ENDBRANCH  36  38
ENDBRANCH   4  36
BRANCH   9  41
HETATM   41  O   UNK N   1      24.537  16.111   5.913  0.00  0.00    -0.359 OA
HETATM   42  H   UNK N   1      24.492  15.274   5.494  0.00  0.00     0.217 HD
ENDBRANCH   9  41
BRANCH  10  43
HETATM   43  O   UNK N   1      26.791  20.386   3.273  0.00  0.00    -0.359 OA
HETATM   44  H   UNK N   1      27.685  20.611   3.444  0.00  0.00     0.217 HD
ENDBRANCH  10  43
BRANCH  17  45
HETATM   45  O   UNK N   1      19.977  17.405   4.313  0.00  0.00    -0.355 OA
HETATM   46  C   UNK N   1      19.549  16.235   3.729  0.00  0.00     0.210 C 
ENDBRANCH  17  45
TORSDOF 11
ENDMDL
MODEL 5
REMARK VINA RESULT:      -7.2      5.819     11.989
REMARK  11 active torsions:
REMARK  status: ('A' for Active; 'I' for Inactive)
REMARK    1  A    between atoms: C_13  and  O_1 
REMARK    2  A    between atoms: C_19  and  O_1 
REMARK    3  A    between atoms: C_14  and  O_3 
REMARK    4  A    between atoms: C_22  and  O_4 
REMARK    5  A    between atoms: O_5  and  C_24 
REMARK    6  A    between atoms: O_6  and  C_26 
REMARK    7  A    between atoms: O_8  and  C_30 
REMARK    8  A    between atoms: O_11  and  C_35 
REMARK    9  A    between atoms: C_21  and  N_12 
REMARK   10  A    between atoms: C_14  and  C_25 
REMARK   11  A    between atoms: C_25  and  C_30 
ROOT
HETATM    1  O   UNK N   1      30.481  15.546   4.186  0.00  0.00    -0.286 OA
HETATM    2  O   UNK N   1      29.317  18.702   8.313  0.00  0.00    -0.286 OA
HETATM    3  C   UNK N   1      25.720  17.410   3.032  0.00  0.00     0.164 C 
HETATM    4  C   UNK N   1      24.067  18.621   4.554  0.00  0.00     0.127 C 
HETATM    5  C   UNK N   1      24.437  17.301   3.859  0.00  0.00     0.083 C 
HETATM    6  C   UNK N   1      25.316  19.422   4.988  0.00  0.00     0.088 C 
HETATM    7  C   UNK N   1      26.828  17.665   4.038  0.00  0.00     0.014 A 
HETATM    8  C   UNK N   1      26.581  18.598   5.056  0.00  0.00    -0.009 A 
HETATM    9  C   UNK N   1      28.023  16.924   4.044  0.00  0.00     0.090 A 
HETATM   10  C   UNK N   1      27.469  18.728   6.133  0.00  0.00     0.088 A 
HETATM   11  C   UNK N   1      28.926  17.046   5.120  0.00  0.00     0.066 A 
HETATM   12  C   UNK N   1      28.632  17.921   6.191  0.00  0.00     0.066 A 
HETATM   13  C   UNK N   1      30.149  16.194   5.166  0.00  0.00     0.200 C 
HETATM   14  C   UNK N   1      29.528  17.934   7.387  0.00  0.00     0.197 C 
HETATM   15  C   UNK N   1      30.925  16.080   6.425  0.00  0.00     0.062 A 
HETATM   16  C   UNK N   1      30.616  16.931   7.505  0.00  0.00     0.032 A 
HETATM   17  C   UNK N   1      31.942  15.103   6.569  0.00  0.00     0.083 A 
HETATM   18  C   UNK N   1      31.319  16.805   8.711  0.00  0.00     0.017 A 
HETATM   19  C   UNK N   1      32.622  14.992   7.793  0.00  0.00     0.038 A 
HETATM   20  C   UNK N   1      32.312  15.838   8.855  0.00  0.00     0.004 A 
ENDROOT
BRANCH   3  21
HETATM   21  O   UNK N   1      25.865  16.158   2.421  0.00  0.00    -0.351 OA
BRANCH  21  22
HETATM   22  C   UNK N   1      24.970  15.274   3.022  0.00  0.00     0.263 C 
HETATM   23  O   UNK N   1      25.677  14.309   3.765  0.00  0.00    -0.354 OA
HETATM   24  C   UNK N   1      24.721  13.600   4.510  0.00  0.00     0.151 C 
HETATM   25  C   UNK N   1      23.936  12.693   3.552  0.00  0.00     0.169 C 
HETATM   26  C   UNK N   1      25.432  12.788   5.575  0.00  0.00     0.042 C 
HETATM   27  C   UNK N   1      23.218  13.558   2.504  0.00  0.00     0.110 C 
HETATM   28  C   UNK N   1      24.199  14.562   1.902  0.00  0.00     0.088 C 
BRANCH  25  29
HETATM   29  O   UNK N   1      23.014  11.904   4.244  0.00  0.00    -0.391 OA
HETATM   30  H   UNK N   1      22.402  12.106   4.969  0.00  0.00     0.210 HD
ENDBRANCH  25  29
BRANCH  27  31
HETATM   31  N   UNK N   1      22.103  14.277   3.102  0.00  0.00    -0.423 N 
HETATM   32  H   UNK N   1      21.300  14.886   3.259  0.00  0.00     0.150 HD
HETATM   33  H   UNK N   1      22.181  13.899   4.046  0.00  0.00     0.150 HD
ENDBRANCH  27  31
ENDBRANCH  21  22
ENDBRANCH   3  21
BRANCH   4  34
HETATM   34  O   UNK N   1      23.313  18.312   5.687  0.00  0.00    -0.382 OA
HETATM   35  H   UNK N   1      22.997  17.628   6.298  0.00  0.00     0.211 HD
ENDBRANCH   4  34
BRANCH   4  36
HETATM   36  C   UNK N   1      23.229  19.474   3.625  0.00  0.00     0.184 C 
HETATM   37  O   UNK N   1      23.734  20.411   3.019  0.00  0.00    -0.292 OA
BRANCH  36  38
HETATM   38  C   UNK N   1      21.772  19.167   3.434  0.00  0.00     0.245 C 
BRANCH  38  39
HETATM   39  O   UNK N   1      20.996  19.812   4.400  0.00  0.00    -0.393 OA
HETATM   40  H   UNK N   1      21.293  19.987   5.307  0.00  0.00     0.209 HD
ENDBRANCH  38  39
ENDBRANCH  36  38
ENDBRANCH   4  36
BRANCH   9  41
HETATM   41  O   UNK N   1      28.286  16.063   3.044  0.00  0.00    -0.359 OA
HETATM   42  H   UNK N   1      28.924  15.387   3.162  0.00  0.00     0.217 HD
ENDBRANCH   9  41
BRANCH  10  43
HETATM   43  O   UNK N   1      27.180  19.592   7.124  0.00  0.00    -0.359 OA
HETATM   44  H   UNK N   1      27.856  19.882   7.705  0.00  0.00     0.217 HD
ENDBRANCH  10  43
BRANCH  17  45
HETATM   45  O   UNK N   1      32.232  14.267   5.539  0.00  0.00    -0.355 OA
HETATM   46  C   UNK N   1      33.512  13.972   5.129  0.00  0.00     0.210 C 
ENDBRANCH  17  45
TORSDOF 11
ENDMDL
MODEL 6
REMARK VINA RESULT:      -6.9     16.093     19.633
REMARK  11 active torsions:
REMARK  status: ('A' for Active; 'I' for Inactive)
REMARK    1  A    between atoms: C_13  and  O_1 
REMARK    2  A    between atoms: C_19  and  O_1 
REMARK    3  A    between atoms: C_14  and  O_3 
REMARK    4  A    between atoms: C_22  and  O_4 
REMARK    5  A    between atoms: O_5  and  C_24 
REMARK    6  A    between atoms: O_6  and  C_26 
REMARK    7  A    between atoms: O_8  and  C_30 
REMARK    8  A    between atoms: O_11  and  C_35 
REMARK    9  A    between atoms: C_21  and  N_12 
REMARK   10  A    between atoms: C_14  and  C_25 
REMARK   11  A    between atoms: C_25  and  C_30 
ROOT
HETATM    1  O   UNK N   1      32.966  21.239  -4.022  0.00  0.00    -0.286 OA
HETATM    2  O   UNK N   1      31.992  18.669  -8.581  0.00  0.00    -0.286 OA
HETATM    3  C   UNK N   1      28.357  23.180  -5.591  0.00  0.00     0.164 C 
HETATM    4  C   UNK N   1      27.232  22.977  -7.874  0.00  0.00     0.127 C 
HETATM    5  C   UNK N   1      28.026  23.876  -6.913  0.00  0.00     0.083 C 
HETATM    6  C   UNK N   1      27.640  21.490  -7.751  0.00  0.00     0.088 C 
HETATM    7  C   UNK N   1      29.297  22.046  -5.957  0.00  0.00     0.014 A 
HETATM    8  C   UNK N   1      28.978  21.273  -7.083  0.00  0.00    -0.009 A 
HETATM    9  C   UNK N   1      30.511  21.827  -5.280  0.00  0.00     0.090 A 
HETATM   10  C   UNK N   1      29.901  20.353  -7.600  0.00  0.00     0.088 A 
HETATM   11  C   UNK N   1      31.447  20.903  -5.788  0.00  0.00     0.066 A 
HETATM   12  C   UNK N   1      31.162  20.191  -6.975  0.00  0.00     0.066 A 
HETATM   13  C   UNK N   1      32.769  20.738  -5.117  0.00  0.00     0.200 C 
HETATM   14  C   UNK N   1      32.220  19.321  -7.575  0.00  0.00     0.197 C 
HETATM   15  C   UNK N   1      33.868  20.025  -5.812  0.00  0.00     0.062 A 
HETATM   16  C   UNK N   1      33.594  19.337  -7.011  0.00  0.00     0.032 A 
HETATM   17  C   UNK N   1      35.193  20.058  -5.309  0.00  0.00     0.083 A 
HETATM   18  C   UNK N   1      34.632  18.690  -7.694  0.00  0.00     0.017 A 
HETATM   19  C   UNK N   1      36.216  19.411  -6.021  0.00  0.00     0.038 A 
HETATM   20  C   UNK N   1      35.936  18.732  -7.204  0.00  0.00     0.004 A 
ENDROOT
BRANCH   3  21
HETATM   21  O   UNK N   1      29.009  24.153  -4.822  0.00  0.00    -0.351 OA
BRANCH  21  22
HETATM   22  C   UNK N   1      28.177  25.269  -4.736  0.00  0.00     0.263 C 
HETATM   23  O   UNK N   1      28.783  26.257  -3.936  0.00  0.00    -0.354 OA
HETATM   24  C   UNK N   1      28.004  27.416  -4.074  0.00  0.00     0.151 C 
HETATM   25  C   UNK N   1      26.688  27.209  -3.312  0.00  0.00     0.169 C 
HETATM   26  C   UNK N   1      28.778  28.597  -3.523  0.00  0.00     0.042 C 
HETATM   27  C   UNK N   1      25.930  26.017  -3.917  0.00  0.00     0.110 C 
HETATM   28  C   UNK N   1      26.872  24.824  -4.062  0.00  0.00     0.088 C 
BRANCH  25  29
HETATM   29  O   UNK N   1      25.895  28.358  -3.351  0.00  0.00    -0.391 OA
HETATM   30  H   UNK N   1      25.295  28.755  -2.700  0.00  0.00     0.210 HD
ENDBRANCH  25  29
BRANCH  27  31
HETATM   31  N   UNK N   1      25.385  26.358  -5.223  0.00  0.00    -0.423 N 
HETATM   32  H   UNK N   1      25.012  26.858  -6.030  0.00  0.00     0.150 HD
HETATM   33  H   UNK N   1      25.348  25.415  -5.611  0.00  0.00     0.150 HD
ENDBRANCH  27  31
ENDBRANCH  21  22
ENDBRANCH   3  21
BRANCH   4  34
HETATM   34  O   UNK N   1      27.488  23.408  -9.176  0.00  0.00    -0.382 OA
HETATM   35  H   UNK N   1      28.139  23.528  -9.885  0.00  0.00     0.211 HD
ENDBRANCH   4  34
BRANCH   4  36
HETATM   36  C   UNK N   1      25.750  23.109  -7.595  0.00  0.00     0.184 C 
HETATM   37  O   UNK N   1      25.242  24.214  -7.450  0.00  0.00    -0.292 OA
BRANCH  36  38
HETATM   38  C   UNK N   1      24.891  21.881  -7.502  0.00  0.00     0.245 C 
BRANCH  38  39
HETATM   39  O   UNK N   1      23.687  22.063  -8.187  0.00  0.00    -0.393 OA
HETATM   40  H   UNK N   1      23.627  22.278  -9.132  0.00  0.00     0.209 HD
ENDBRANCH  38  39
ENDBRANCH  36  38
ENDBRANCH   4  36
BRANCH   9  41
HETATM   41  O   UNK N   1      30.799  22.532  -4.171  0.00  0.00    -0.359 OA
HETATM   42  H   UNK N   1      30.979  22.087  -3.366  0.00  0.00     0.217 HD
ENDBRANCH   9  41
BRANCH  10  43
HETATM   43  O   UNK N   1      29.590  19.664  -8.714  0.00  0.00    -0.359 OA
HETATM   44  H   UNK N   1      29.023  18.920  -8.662  0.00  0.00     0.217 HD
ENDBRANCH  10  43
BRANCH  17  45
HETATM   45  O   UNK N   1      35.468  20.736  -4.165  0.00  0.00    -0.355 OA
HETATM   46  C   UNK N   1      36.456  21.687  -4.056  0.00  0.00     0.210 C 
ENDBRANCH  17  45
TORSDOF 11
ENDMDL
MODEL 7
REMARK VINA RESULT:      -6.9      2.603      4.887
REMARK  11 active torsions:
REMARK  status: ('A' for Active; 'I' for Inactive)
REMARK    1  A    between atoms: C_13  and  O_1 
REMARK    2  A    between atoms: C_19  and  O_1 
REMARK    3  A    between atoms: C_14  and  O_3 
REMARK    4  A    between atoms: C_22  and  O_4 
REMARK    5  A    between atoms: O_5  and  C_24 
REMARK    6  A    between atoms: O_6  and  C_26 
REMARK    7  A    between atoms: O_8  and  C_30 
REMARK    8  A    between atoms: O_11  and  C_35 
REMARK    9  A    between atoms: C_21  and  N_12 
REMARK   10  A    between atoms: C_14  and  C_25 
REMARK   11  A    between atoms: C_25  and  C_30 
ROOT
HETATM    1  O   UNK N   1      32.104  13.092   6.013  0.00  0.00    -0.286 OA
HETATM    2  O   UNK N   1      33.626  17.874   7.789  0.00  0.00    -0.286 OA
HETATM    3  C   UNK N   1      34.483  12.038  10.563  0.00  0.00     0.164 C 
HETATM    4  C   UNK N   1      35.976  13.554  11.974  0.00  0.00     0.127 C 
HETATM    5  C   UNK N   1      35.914  12.380  10.982  0.00  0.00     0.083 C 
HETATM    6  C   UNK N   1      34.873  14.603  11.704  0.00  0.00     0.088 C 
HETATM    7  C   UNK N   1      33.988  13.248   9.792  0.00  0.00     0.014 A 
HETATM    8  C   UNK N   1      34.267  14.516  10.323  0.00  0.00    -0.009 A 
HETATM    9  C   UNK N   1      33.371  13.137   8.533  0.00  0.00     0.090 A 
HETATM   10  C   UNK N   1      34.028  15.673   9.566  0.00  0.00     0.088 A 
HETATM   11  C   UNK N   1      33.124  14.292   7.762  0.00  0.00     0.066 A 
HETATM   12  C   UNK N   1      33.490  15.563   8.260  0.00  0.00     0.066 A 
HETATM   13  C   UNK N   1      32.551  14.163   6.391  0.00  0.00     0.200 C 
HETATM   14  C   UNK N   1      33.349  16.760   7.375  0.00  0.00     0.197 C 
HETATM   15  C   UNK N   1      32.587  15.318   5.462  0.00  0.00     0.062 A 
HETATM   16  C   UNK N   1      32.979  16.582   5.948  0.00  0.00     0.032 A 
HETATM   17  C   UNK N   1      32.273  15.160   4.089  0.00  0.00     0.083 A 
HETATM   18  C   UNK N   1      33.051  17.671   5.070  0.00  0.00     0.017 A 
HETATM   19  C   UNK N   1      32.366  16.268   3.230  0.00  0.00     0.038 A 
HETATM   20  C   UNK N   1      32.752  17.514   3.719  0.00  0.00     0.004 A 
ENDROOT
BRANCH   3  21
HETATM   21  O   UNK N   1      34.608  10.919   9.729  0.00  0.00    -0.351 OA
BRANCH  21  22
HETATM   22  C   UNK N   1      35.953  10.775   9.391  0.00  0.00     0.263 C 
HETATM   23  O   UNK N   1      36.136  11.062   8.024  0.00  0.00    -0.354 OA
HETATM   24  C   UNK N   1      37.522  11.112   7.810  0.00  0.00     0.151 C 
HETATM   25  C   UNK N   1      38.076   9.682   7.872  0.00  0.00     0.169 C 
HETATM   26  C   UNK N   1      37.788  11.746   6.458  0.00  0.00     0.042 C 
HETATM   27  C   UNK N   1      37.802   9.089   9.262  0.00  0.00     0.110 C 
HETATM   28  C   UNK N   1      36.340   9.311   9.642  0.00  0.00     0.088 C 
BRANCH  25  29
HETATM   29  O   UNK N   1      39.444   9.656   7.594  0.00  0.00    -0.391 OA
HETATM   30  H   UNK N   1      40.210   9.391   8.126  0.00  0.00     0.210 HD
ENDBRANCH  25  29
BRANCH  27  31
HETATM   31  N   UNK N   1      38.657   9.706  10.266  0.00  0.00    -0.423 N 
HETATM   32  H   UNK N   1      39.394   9.893  10.946  0.00  0.00     0.150 HD
HETATM   33  H   UNK N   1      38.155  10.590  10.354  0.00  0.00     0.150 HD
ENDBRANCH  27  31
ENDBRANCH  21  22
ENDBRANCH   3  21
BRANCH   4  34
HETATM   34  O   UNK N   1      37.223  14.165  11.838  0.00  0.00    -0.382 OA
HETATM   35  H   UNK N   1      38.072  14.391  12.249  0.00  0.00     0.211 HD
ENDBRANCH   4  34
BRANCH   4  36
HETATM   36  C   UNK N   1      35.834  13.038  13.390  0.00  0.00     0.184 C 
HETATM   37  O   UNK N   1      35.012  13.533  14.151  0.00  0.00    -0.292 OA
BRANCH  36  38
HETATM   38  C   UNK N   1      36.697  11.904  13.866  0.00  0.00     0.245 C 
BRANCH  38  39
HETATM   39  O   UNK N   1      37.981  12.355  14.182  0.00  0.00    -0.393 OA
HETATM   40  H   UNK N   1      38.185  13.263  14.456  0.00  0.00     0.209 HD
ENDBRANCH  38  39
ENDBRANCH  36  38
ENDBRANCH   4  36
BRANCH   9  41
HETATM   41  O   UNK N   1      33.058  11.924   8.042  0.00  0.00    -0.359 OA
HETATM   42  H   UNK N   1      32.842  11.827   7.135  0.00  0.00     0.217 HD
ENDBRANCH   9  41
BRANCH  10  43
HETATM   43  O   UNK N   1      34.356  16.873  10.077  0.00  0.00    -0.359 OA
HETATM   44  H   UNK N   1      35.090  16.952  10.655  0.00  0.00     0.217 HD
ENDBRANCH  10  43
BRANCH  17  45
HETATM   45  O   UNK N   1      31.914  13.942   3.609  0.00  0.00    -0.355 OA
HETATM   46  C   UNK N   1      32.436  13.385   2.464  0.00  0.00     0.210 C 
ENDBRANCH  17  45
TORSDOF 11
ENDMDL
MODEL 8
REMARK VINA RESULT:      -6.9      3.963      8.970
REMARK  11 active torsions:
REMARK  status: ('A' for Active; 'I' for Inactive)
REMARK    1  A    between atoms: C_13  and  O_1 
REMARK    2  A    between atoms: C_19  and  O_1 
REMARK    3  A    between atoms: C_14  and  O_3 
REMARK    4  A    between atoms: C_22  and  O_4 
REMARK    5  A    between atoms: O_5  and  C_24 
REMARK    6  A    between atoms: O_6  and  C_26 
REMARK    7  A    between atoms: O_8  and  C_30 
REMARK    8  A    between atoms: O_11  and  C_35 
REMARK    9  A    between atoms: C_21  and  N_12 
REMARK   10  A    between atoms: C_14  and  C_25 
REMARK   11  A    between atoms: C_25  and  C_30 
ROOT
HETATM    1  O   UNK N   1      35.198  11.974   9.280  0.00  0.00    -0.286 OA
HETATM    2  O   UNK N   1      35.267  16.974  11.107  0.00  0.00    -0.286 OA
HETATM    3  C   UNK N   1      32.107  14.571   5.937  0.00  0.00     0.164 C 
HETATM    4  C   UNK N   1      31.094  16.901   6.179  0.00  0.00     0.127 C 
HETATM    5  C   UNK N   1      30.850  15.385   6.250  0.00  0.00     0.083 C 
HETATM    6  C   UNK N   1      32.519  17.285   6.642  0.00  0.00     0.088 C 
HETATM    7  C   UNK N   1      33.079  14.879   7.060  0.00  0.00     0.014 A 
HETATM    8  C   UNK N   1      33.206  16.218   7.461  0.00  0.00    -0.009 A 
HETATM    9  C   UNK N   1      33.754  13.870   7.770  0.00  0.00     0.090 A 
HETATM   10  C   UNK N   1      33.920  16.548   8.623  0.00  0.00     0.088 A 
HETATM   11  C   UNK N   1      34.476  14.189   8.938  0.00  0.00     0.066 A 
HETATM   12  C   UNK N   1      34.528  15.526   9.392  0.00  0.00     0.066 A 
HETATM   13  C   UNK N   1      35.117  13.103   9.736  0.00  0.00     0.200 C 
HETATM   14  C   UNK N   1      35.179  15.825  10.705  0.00  0.00     0.197 C 
HETATM   15  C   UNK N   1      35.594  13.380  11.113  0.00  0.00     0.062 A 
HETATM   16  C   UNK N   1      35.620  14.710  11.580  0.00  0.00     0.032 A 
HETATM   17  C   UNK N   1      35.984  12.325  11.976  0.00  0.00     0.083 A 
HETATM   18  C   UNK N   1      36.034  14.977  12.891  0.00  0.00     0.017 A 
HETATM   19  C   UNK N   1      36.384  12.622  13.289  0.00  0.00     0.038 A 
HETATM   20  C   UNK N   1      36.408  13.939  13.742  0.00  0.00     0.004 A 
ENDROOT
BRANCH   3  21
HETATM   21  O   UNK N   1      31.691  13.233   5.977  0.00  0.00    -0.351 OA
BRANCH  21  22
HETATM   22  C   UNK N   1      30.765  13.034   4.953  0.00  0.00     0.263 C 
HETATM   23  O   UNK N   1      30.189  11.754   5.072  0.00  0.00    -0.354 OA
HETATM   24  C   UNK N   1      29.125  11.710   4.157  0.00  0.00     0.151 C 
HETATM   25  C   UNK N   1      29.707  11.623   2.740  0.00  0.00     0.169 C 
HETATM   26  C   UNK N   1      28.259  10.505   4.470  0.00  0.00     0.042 C 
HETATM   27  C   UNK N   1      30.559  12.871   2.461  0.00  0.00     0.110 C 
HETATM   28  C   UNK N   1      31.524  13.109   3.621  0.00  0.00     0.088 C 
BRANCH  25  29
HETATM   29  O   UNK N   1      28.696  11.503   1.784  0.00  0.00    -0.391 OA
HETATM   30  H   UNK N   1      27.877  12.001   1.639  0.00  0.00     0.210 HD
ENDBRANCH  25  29
BRANCH  27  31
HETATM   31  N   UNK N   1      29.717  14.046   2.289  0.00  0.00    -0.423 N 
HETATM   32  H   UNK N   1      29.369  14.980   2.075  0.00  0.00     0.150 HD
HETATM   33  H   UNK N   1      28.843  13.643   2.627  0.00  0.00     0.150 HD
ENDBRANCH  27  31
ENDBRANCH  21  22
ENDBRANCH   3  21
BRANCH   4  34
HETATM   34  O   UNK N   1      30.165  17.525   7.012  0.00  0.00    -0.382 OA
HETATM   35  H   UNK N   1      30.009  18.068   7.801  0.00  0.00     0.211 HD
ENDBRANCH   4  34
BRANCH   4  36
HETATM   36  C   UNK N   1      30.887  17.388   4.760  0.00  0.00     0.184 C 
HETATM   37  O   UNK N   1      31.814  17.884   4.132  0.00  0.00    -0.292 OA
BRANCH  36  38
HETATM   38  C   UNK N   1      29.539  17.257   4.111  0.00  0.00     0.245 C 
BRANCH  38  39
HETATM   39  O   UNK N   1      29.667  16.915   2.763  0.00  0.00    -0.393 OA
HETATM   40  H   UNK N   1      28.946  16.551   2.224  0.00  0.00     0.209 HD
ENDBRANCH  38  39
ENDBRANCH  36  38
ENDBRANCH   4  36
BRANCH   9  41
HETATM   41  O   UNK N   1      33.674  12.591   7.360  0.00  0.00    -0.359 OA
HETATM   42  H   UNK N   1      33.914  12.364   6.483  0.00  0.00     0.217 HD
ENDBRANCH   9  41
BRANCH  10  43
HETATM   43  O   UNK N   1      33.980  17.834   9.014  0.00  0.00    -0.359 OA
HETATM   44  H   UNK N   1      33.643  18.510   8.459  0.00  0.00     0.217 HD
ENDBRANCH  10  43
BRANCH  17  45
HETATM   45  O   UNK N   1      35.943  11.040  11.540  0.00  0.00    -0.355 OA
HETATM   46  C   UNK N   1      36.334   9.960  12.298  0.00  0.00     0.210 C 
ENDBRANCH  17  45
TORSDOF 11
ENDMDL
MODEL 9
REMARK VINA RESULT:      -6.8     16.061     20.304
REMARK  11 active torsions:
REMARK  status: ('A' for Active; 'I' for Inactive)
REMARK    1  A    between atoms: C_13  and  O_1 
REMARK    2  A    between atoms: C_19  and  O_1 
REMARK    3  A    between atoms: C_14  and  O_3 
REMARK    4  A    between atoms: C_22  and  O_4 
REMARK    5  A    between atoms: O_5  and  C_24 
REMARK    6  A    between atoms: O_6  and  C_26 
REMARK    7  A    between atoms: O_8  and  C_30 
REMARK    8  A    between atoms: O_11  and  C_35 
REMARK    9  A    between atoms: C_21  and  N_12 
REMARK   10  A    between atoms: C_14  and  C_25 
REMARK   11  A    between atoms: C_25  and  C_30 
ROOT
HETATM    1  O   UNK N   1      31.079  28.707  -4.722  0.00  0.00    -0.286 OA
HETATM    2  O   UNK N   1      26.080  29.260  -2.978  0.00  0.00    -0.286 OA
HETATM    3  C   UNK N   1      28.432  24.999  -7.314  0.00  0.00     0.164 C 
HETATM    4  C   UNK N   1      26.084  24.104  -6.865  0.00  0.00     0.127 C 
HETATM    5  C   UNK N   1      27.596  23.856  -6.735  0.00  0.00     0.083 C 
HETATM    6  C   UNK N   1      25.725  25.601  -6.729  0.00  0.00     0.088 C 
HETATM    7  C   UNK N   1      28.139  26.200  -6.434  0.00  0.00     0.014 A 
HETATM    8  C   UNK N   1      26.803  26.434  -6.076  0.00  0.00    -0.009 A 
HETATM    9  C   UNK N   1      29.160  26.998  -5.886  0.00  0.00     0.090 A 
HETATM   10  C   UNK N   1      26.484  27.392  -5.102  0.00  0.00     0.088 A 
HETATM   11  C   UNK N   1      28.853  27.965  -4.906  0.00  0.00     0.066 A 
HETATM   12  C   UNK N   1      27.516  28.138  -4.481  0.00  0.00     0.066 A 
HETATM   13  C   UNK N   1      29.948  28.748  -4.264  0.00  0.00     0.200 C 
HETATM   14  C   UNK N   1      27.227  29.067  -3.346  0.00  0.00     0.197 C 
HETATM   15  C   UNK N   1      29.679  29.521  -3.028  0.00  0.00     0.062 A 
HETATM   16  C   UNK N   1      28.350  29.671  -2.584  0.00  0.00     0.032 A 
HETATM   17  C   UNK N   1      30.740  30.074  -2.267  0.00  0.00     0.083 A 
HETATM   18  C   UNK N   1      28.088  30.368  -1.397  0.00  0.00     0.017 A 
HETATM   19  C   UNK N   1      30.449  30.758  -1.076  0.00  0.00     0.038 A 
HETATM   20  C   UNK N   1      29.132  30.903  -0.645  0.00  0.00     0.004 A 
ENDROOT
BRANCH   3  21
HETATM   21  O   UNK N   1      29.762  24.580  -7.178  0.00  0.00    -0.351 OA
BRANCH  21  22
HETATM   22  C   UNK N   1      29.782  23.453  -6.357  0.00  0.00     0.263 C 
HETATM   23  O   UNK N   1      30.148  23.822  -5.048  0.00  0.00    -0.354 OA
HETATM   24  C   UNK N   1      29.934  22.693  -4.242  0.00  0.00     0.151 C 
HETATM   25  C   UNK N   1      31.024  21.659  -4.555  0.00  0.00     0.169 C 
HETATM   26  C   UNK N   1      29.979  23.114  -2.785  0.00  0.00     0.042 C 
HETATM   27  C   UNK N   1      30.928  21.248  -6.033  0.00  0.00     0.110 C 
HETATM   28  C   UNK N   1      30.844  22.494  -6.912  0.00  0.00     0.088 C 
BRANCH  25  29
HETATM   29  O   UNK N   1      30.909  20.537  -3.731  0.00  0.00    -0.391 OA
HETATM   30  H   UNK N   1      30.958  20.430  -2.768  0.00  0.00     0.210 HD
ENDBRANCH  25  29
BRANCH  27  31
HETATM   31  N   UNK N   1      29.754  20.418  -6.264  0.00  0.00    -0.423 N 
HETATM   32  H   UNK N   1      29.026  19.847  -6.693  0.00  0.00     0.150 HD
HETATM   33  H   UNK N   1      29.415  20.382  -5.303  0.00  0.00     0.150 HD
ENDBRANCH  27  31
ENDBRANCH  21  22
ENDBRANCH   3  21
BRANCH   4  34
HETATM   34  O   UNK N   1      25.444  23.392  -5.851  0.00  0.00    -0.382 OA
HETATM   35  H   UNK N   1      25.458  23.089  -4.929  0.00  0.00     0.211 HD
ENDBRANCH   4  34
BRANCH   4  36
HETATM   36  C   UNK N   1      25.594  23.597  -8.205  0.00  0.00     0.184 C 
HETATM   37  O   UNK N   1      25.513  24.355  -9.164  0.00  0.00    -0.292 OA
BRANCH  36  38
HETATM   38  C   UNK N   1      25.214  22.153  -8.368  0.00  0.00     0.245 C 
BRANCH  38  39
HETATM   39  O   UNK N   1      23.853  21.965  -8.114  0.00  0.00    -0.393 OA
HETATM   40  H   UNK N   1      23.493  21.700  -7.253  0.00  0.00     0.209 HD
ENDBRANCH  38  39
ENDBRANCH  36  38
ENDBRANCH   4  36
BRANCH   9  41
HETATM   41  O   UNK N   1      30.437  26.808  -6.263  0.00  0.00    -0.359 OA
HETATM   42  H   UNK N   1      31.119  26.793  -5.619  0.00  0.00     0.217 HD
ENDBRANCH   9  41
BRANCH  10  43
HETATM   43  O   UNK N   1      25.199  27.558  -4.739  0.00  0.00    -0.359 OA
HETATM   44  H   UNK N   1      24.977  27.653  -3.833  0.00  0.00     0.217 HD
ENDBRANCH  10  43
BRANCH  17  45
HETATM   45  O   UNK N   1      32.025  29.916  -2.678  0.00  0.00    -0.355 OA
HETATM   46  C   UNK N   1      33.113  30.007  -1.841  0.00  0.00     0.210 C 
ENDBRANCH  17  45
TORSDOF 11
ENDMDL
