MODEL 1
REMARK VINA RESULT:      -6.9      0.000      0.000
REMARK  2 active torsions:
REMARK  status: ('A' for Active; 'I' for Inactive)
REMARK    1  A    between atoms: C_5  and  N_3 
REMARK       I    between atoms: N_4  and  C_18 
REMARK    2  A    between atoms: C_15  and  C_18 
ROOT
HETATM    1  N   UNK N   1      27.177  24.166  -6.644  0.00  0.00    -0.358 N 
HETATM    2  C   UNK N   1      26.174  27.647  -4.526  0.00  0.00     0.080 C 
HETATM    3  C   UNK N   1      26.933  26.521  -3.819  0.00  0.00     0.066 C 
HETATM    4  C   UNK N   1      25.073  27.100  -5.458  0.00  0.00     0.031 C 
HETATM    5  C   UNK N   1      27.248  25.423  -4.775  0.00  0.00    -0.021 A 
HETATM    6  C   UNK N   1      25.626  26.180  -6.566  0.00  0.00     0.059 C 
HETATM    7  C   UNK N   1      26.671  25.257  -6.017  0.00  0.00     0.017 A 
HETATM    8  C   UNK N   1      28.134  24.399  -4.629  0.00  0.00    -0.000 A 
HETATM    9  C   UNK N   1      28.074  23.650  -5.773  0.00  0.00     0.043 A 
HETATM   10  C   UNK N   1      28.983  24.092  -3.580  0.00  0.00     0.031 A 
HETATM   11  C   UNK N   1      28.870  22.520  -5.941  0.00  0.00     0.031 A 
HETATM   12  C   UNK N   1      29.810  22.962  -3.708  0.00  0.00     0.032 A 
HETATM   13  C   UNK N   1      29.749  22.175  -4.891  0.00  0.00     0.019 A 
HETATM   14  H   UNK N   1      26.942  23.825  -7.537  0.00  0.00     0.166 HD
ENDROOT
BRANCH  12  15
HETATM   15  C   UNK N   1      30.739  22.621  -2.611  0.00  0.00     0.249 C 
HETATM   16  O   UNK N   1      30.502  22.992  -1.471  0.00  0.00    -0.268 OA
HETATM   17  N   UNK N   1      31.856  21.908  -2.858  0.00  0.00    -0.366 N 
HETATM   18  H   UNK N   1      32.519  21.765  -2.143  0.00  0.00     0.159 HD
HETATM   19  H   UNK N   1      32.010  21.529  -3.754  0.00  0.00     0.159 HD
ENDBRANCH  12  15
BRANCH   2  20
HETATM   20  N   UNK N   1      25.596  28.514  -3.509  0.00  0.00    -0.421 N 
HETATM   21  C   UNK N   1      26.385  29.732  -3.454  0.00  0.00     0.140 C 
HETATM   22  H   UNK N   1      24.780  28.302  -2.936  0.00  0.00     0.153 HD
ENDBRANCH   2  20
TORSDOF 2
ENDMDL
MODEL 2
REMARK VINA RESULT:      -6.4     20.748     24.301
REMARK  2 active torsions:
REMARK  status: ('A' for Active; 'I' for Inactive)
REMARK    1  A    between atoms: C_5  and  N_3 
REMARK       I    between atoms: N_4  and  C_18 
REMARK    2  A    between atoms: C_15  and  C_18 
ROOT
HETATM    1  N   UNK N   1      35.318  10.604  13.994  0.00  0.00    -0.358 N 
HETATM    2  C   UNK N   1      36.588  14.026  11.922  0.00  0.00     0.080 C 
HETATM    3  C   UNK N   1      36.041  14.159  13.346  0.00  0.00     0.066 C 
HETATM    4  C   UNK N   1      35.776  13.011  11.090  0.00  0.00     0.031 C 
HETATM    5  C   UNK N   1      35.724  12.819  13.913  0.00  0.00    -0.021 A 
HETATM    6  C   UNK N   1      35.781  11.594  11.698  0.00  0.00     0.059 C 
HETATM    7  C   UNK N   1      35.607  11.653  13.185  0.00  0.00     0.017 A 
HETATM    8  C   UNK N   1      35.496  12.479  15.211  0.00  0.00    -0.000 A 
HETATM    9  C   UNK N   1      35.251  11.133  15.238  0.00  0.00     0.043 A 
HETATM   10  C   UNK N   1      35.499  13.259  16.356  0.00  0.00     0.031 A 
HETATM   11  C   UNK N   1      34.982  10.468  16.431  0.00  0.00     0.031 A 
HETATM   12  C   UNK N   1      35.237  12.630  17.585  0.00  0.00     0.032 A 
HETATM   13  C   UNK N   1      34.976  11.231  17.619  0.00  0.00     0.019 A 
HETATM   14  H   UNK N   1      35.186   9.664  13.734  0.00  0.00     0.166 HD
ENDROOT
BRANCH  12  15
HETATM   15  C   UNK N   1      35.251  13.434  18.824  0.00  0.00     0.249 C 
HETATM   16  O   UNK N   1      35.251  14.654  18.761  0.00  0.00    -0.268 OA
HETATM   17  N   UNK N   1      35.271  12.832  20.030  0.00  0.00    -0.366 N 
HETATM   18  H   UNK N   1      35.377  13.369  20.849  0.00  0.00     0.159 HD
HETATM   19  H   UNK N   1      35.181  11.854  20.093  0.00  0.00     0.159 HD
ENDBRANCH  12  15
BRANCH   2  20
HETATM   20  N   UNK N   1      36.555  15.339  11.298  0.00  0.00    -0.421 N 
HETATM   21  C   UNK N   1      35.182  15.812  11.313  0.00  0.00     0.140 C 
HETATM   22  H   UNK N   1      37.357  15.841  10.916  0.00  0.00     0.153 HD
ENDBRANCH   2  20
TORSDOF 2
ENDMDL
MODEL 3
REMARK VINA RESULT:      -6.3     20.043     23.800
REMARK  2 active torsions:
REMARK  status: ('A' for Active; 'I' for Inactive)
REMARK    1  A    between atoms: C_5  and  N_3 
REMARK       I    between atoms: N_4  and  C_18 
REMARK    2  A    between atoms: C_15  and  C_18 
ROOT
HETATM    1  N   UNK N   1      34.917  10.935  13.678  0.00  0.00    -0.358 N 
HETATM    2  C   UNK N   1      34.952  12.817  17.429  0.00  0.00     0.080 C 
HETATM    3  C   UNK N   1      35.503  13.553  16.205  0.00  0.00     0.066 C 
HETATM    4  C   UNK N   1      35.356  11.328  17.432  0.00  0.00     0.031 C 
HETATM    5  C   UNK N   1      35.322  12.733  14.975  0.00  0.00    -0.021 A 
HETATM    6  C   UNK N   1      34.846  10.564  16.192  0.00  0.00     0.059 C 
HETATM    7  C   UNK N   1      35.022  11.386  14.952  0.00  0.00     0.017 A 
HETATM    8  C   UNK N   1      35.409  13.124  13.674  0.00  0.00    -0.000 A 
HETATM    9  C   UNK N   1      35.160  12.019  12.905  0.00  0.00     0.043 A 
HETATM   10  C   UNK N   1      35.677  14.368  13.128  0.00  0.00     0.031 A 
HETATM   11  C   UNK N   1      35.171  12.087  11.514  0.00  0.00     0.031 A 
HETATM   12  C   UNK N   1      35.693  14.485  11.727  0.00  0.00     0.032 A 
HETATM   13  C   UNK N   1      35.441  13.340  10.921  0.00  0.00     0.019 A 
HETATM   14  H   UNK N   1      34.709  10.020  13.380  0.00  0.00     0.166 HD
ENDROOT
BRANCH  12  15
HETATM   15  C   UNK N   1      35.958  15.804  11.117  0.00  0.00     0.249 C 
HETATM   16  O   UNK N   1      37.061  16.052  10.653  0.00  0.00    -0.268 OA
HETATM   17  N   UNK N   1      34.994  16.744  11.074  0.00  0.00    -0.366 N 
HETATM   18  H   UNK N   1      35.202  17.652  10.754  0.00  0.00     0.159 HD
HETATM   19  H   UNK N   1      34.079  16.524  11.363  0.00  0.00     0.159 HD
ENDBRANCH  12  15
BRANCH   2  20
HETATM   20  N   UNK N   1      35.450  13.483  18.623  0.00  0.00    -0.421 N 
HETATM   21  C   UNK N   1      35.338  12.556  19.736  0.00  0.00     0.140 C 
HETATM   22  H   UNK N   1      35.816  14.434  18.669  0.00  0.00     0.153 HD
ENDBRANCH   2  20
TORSDOF 2
ENDMDL
MODEL 4
REMARK VINA RESULT:      -6.2     12.115     13.561
REMARK  2 active torsions:
REMARK  status: ('A' for Active; 'I' for Inactive)
REMARK    1  A    between atoms: C_5  and  N_3 
REMARK       I    between atoms: N_4  and  C_18 
REMARK    2  A    between atoms: C_15  and  C_18 
ROOT
HETATM    1  N   UNK N   1      30.394  16.924   3.379  0.00  0.00    -0.358 N 
HETATM    2  C   UNK N   1      27.031  16.718   5.882  0.00  0.00     0.080 C 
HETATM    3  C   UNK N   1      28.435  16.629   6.487  0.00  0.00     0.066 C 
HETATM    4  C   UNK N   1      26.924  15.924   4.563  0.00  0.00     0.031 C 
HETATM    5  C   UNK N   1      29.472  16.801   5.431  0.00  0.00    -0.021 A 
HETATM    6  C   UNK N   1      27.903  16.422   3.481  0.00  0.00     0.059 C 
HETATM    7  C   UNK N   1      29.248  16.714   4.073  0.00  0.00     0.017 A 
HETATM    8  C   UNK N   1      30.798  17.068   5.580  0.00  0.00    -0.000 A 
HETATM    9  C   UNK N   1      31.338  17.138   4.324  0.00  0.00     0.043 A 
HETATM   10  C   UNK N   1      31.550  17.262   6.727  0.00  0.00     0.031 A 
HETATM   11  C   UNK N   1      32.690  17.405   4.130  0.00  0.00     0.031 A 
HETATM   12  C   UNK N   1      32.921  17.539   6.579  0.00  0.00     0.032 A 
HETATM   13  C   UNK N   1      33.490  17.607   5.277  0.00  0.00     0.019 A 
HETATM   14  H   UNK N   1      30.512  16.922   2.402  0.00  0.00     0.166 HD
ENDROOT
BRANCH  12  15
HETATM   15  C   UNK N   1      33.744  17.767   7.785  0.00  0.00     0.249 C 
HETATM   16  O   UNK N   1      34.768  18.429   7.709  0.00  0.00    -0.268 OA
HETATM   17  N   UNK N   1      33.378  17.244   8.972  0.00  0.00    -0.366 N 
HETATM   18  H   UNK N   1      33.977  17.317   9.750  0.00  0.00     0.159 HD
HETATM   19  H   UNK N   1      32.511  16.786   9.061  0.00  0.00     0.159 HD
ENDBRANCH  12  15
BRANCH   2  20
HETATM   20  N   UNK N   1      26.082  16.211   6.861  0.00  0.00    -0.421 N 
HETATM   21  C   UNK N   1      25.920  14.785   6.636  0.00  0.00     0.140 C 
HETATM   22  H   UNK N   1      25.612  16.761   7.580  0.00  0.00     0.153 HD
ENDBRANCH   2  20
TORSDOF 2
ENDMDL
MODEL 5
REMARK VINA RESULT:      -6.2     18.865     22.839
REMARK  2 active torsions:
REMARK  status: ('A' for Active; 'I' for Inactive)
REMARK    1  A    between atoms: C_5  and  N_3 
REMARK       I    between atoms: N_4  and  C_18 
REMARK    2  A    between atoms: C_15  and  C_18 
ROOT
HETATM    1  N   UNK N   1      37.848  12.055  12.240  0.00  0.00    -0.358 N 
HETATM    2  C   UNK N   1      35.357  11.897  15.613  0.00  0.00     0.080 C 
HETATM    3  C   UNK N   1      35.372  13.153  14.738  0.00  0.00     0.066 C 
HETATM    4  C   UNK N   1      36.774  11.319  15.809  0.00  0.00     0.031 C 
HETATM    5  C   UNK N   1      36.264  12.961  13.561  0.00  0.00    -0.021 A 
HETATM    6  C   UNK N   1      37.451  10.922  14.481  0.00  0.00     0.059 C 
HETATM    7  C   UNK N   1      37.204  11.960  13.429  0.00  0.00     0.017 A 
HETATM    8  C   UNK N   1      36.335  13.701  12.421  0.00  0.00    -0.000 A 
HETATM    9  C   UNK N   1      37.302  13.134  11.634  0.00  0.00     0.043 A 
HETATM   10  C   UNK N   1      35.612  14.814  12.028  0.00  0.00     0.031 A 
HETATM   11  C   UNK N   1      37.618  13.659  10.384  0.00  0.00     0.031 A 
HETATM   12  C   UNK N   1      35.894  15.375  10.770  0.00  0.00     0.032 A 
HETATM   13  C   UNK N   1      36.902  14.796   9.949  0.00  0.00     0.019 A 
HETATM   14  H   UNK N   1      38.558  11.467  11.893  0.00  0.00     0.166 HD
ENDROOT
BRANCH  12  15
HETATM   15  C   UNK N   1      35.126  16.554  10.318  0.00  0.00     0.249 C 
HETATM   16  O   UNK N   1      35.652  17.656  10.296  0.00  0.00    -0.268 OA
HETATM   17  N   UNK N   1      33.840  16.425   9.934  0.00  0.00    -0.366 N 
HETATM   18  H   UNK N   1      33.305  17.225   9.725  0.00  0.00     0.159 HD
HETATM   19  H   UNK N   1      33.435  15.531   9.862  0.00  0.00     0.159 HD
ENDBRANCH  12  15
BRANCH   2  20
HETATM   20  N   UNK N   1      34.765  12.244  16.896  0.00  0.00    -0.421 N 
HETATM   21  C   UNK N   1      35.277  13.544  17.292  0.00  0.00     0.140 C 
HETATM   22  H   UNK N   1      34.106  11.673  17.425  0.00  0.00     0.153 HD
ENDBRANCH   2  20
TORSDOF 2
ENDMDL
MODEL 6
REMARK VINA RESULT:      -6.1     11.936     13.544
REMARK  2 active torsions:
REMARK  status: ('A' for Active; 'I' for Inactive)
REMARK    1  A    between atoms: C_5  and  N_3 
REMARK       I    between atoms: N_4  and  C_18 
REMARK    2  A    between atoms: C_15  and  C_18 
ROOT
HETATM    1  N   UNK N   1      30.129  17.567   3.780  0.00  0.00    -0.358 N 
HETATM    2  C   UNK N   1      28.339  18.700   7.403  0.00  0.00     0.080 C 
HETATM    3  C   UNK N   1      29.578  17.801   7.417  0.00  0.00     0.066 C 
HETATM    4  C   UNK N   1      27.361  18.311   6.275  0.00  0.00     0.031 C 
HETATM    5  C   UNK N   1      30.087  17.590   6.033  0.00  0.00    -0.021 A 
HETATM    6  C   UNK N   1      27.992  18.409   4.871  0.00  0.00     0.059 C 
HETATM    7  C   UNK N   1      29.387  17.862   4.876  0.00  0.00     0.017 A 
HETATM    8  C   UNK N   1      31.297  17.107   5.639  0.00  0.00    -0.000 A 
HETATM    9  C   UNK N   1      31.301  17.101   4.270  0.00  0.00     0.043 A 
HETATM   10  C   UNK N   1      32.383  16.689   6.389  0.00  0.00     0.031 A 
HETATM   11  C   UNK N   1      32.409  16.662   3.550  0.00  0.00     0.031 A 
HETATM   12  C   UNK N   1      33.526  16.242   5.705  0.00  0.00     0.032 A 
HETATM   13  C   UNK N   1      33.536  16.227   4.282  0.00  0.00     0.019 A 
HETATM   14  H   UNK N   1      29.871  17.669   2.836  0.00  0.00     0.166 HD
ENDROOT
BRANCH  12  15
HETATM   15  C   UNK N   1      34.706  15.806   6.480  0.00  0.00     0.249 C 
HETATM   16  O   UNK N   1      35.730  15.473   5.901  0.00  0.00    -0.268 OA
HETATM   17  N   UNK N   1      34.663  15.764   7.826  0.00  0.00    -0.366 N 
HETATM   18  H   UNK N   1      35.416  15.384   8.334  0.00  0.00     0.159 HD
HETATM   19  H   UNK N   1      33.876  16.115   8.304  0.00  0.00     0.159 HD
ENDBRANCH  12  15
BRANCH   2  20
HETATM   20  N   UNK N   1      27.688  18.598   8.701  0.00  0.00    -0.421 N 
HETATM   21  C   UNK N   1      28.193  17.409   9.365  0.00  0.00     0.140 C 
HETATM   22  H   UNK N   1      26.998  19.247   9.077  0.00  0.00     0.153 HD
ENDBRANCH   2  20
TORSDOF 2
ENDMDL
MODEL 7
REMARK VINA RESULT:      -6.0      4.289      6.193
REMARK  2 active torsions:
REMARK  status: ('A' for Active; 'I' for Inactive)
REMARK    1  A    between atoms: C_5  and  N_3 
REMARK       I    between atoms: N_4  and  C_18 
REMARK    2  A    between atoms: C_15  and  C_18 
ROOT
HETATM    1  N   UNK N   1      28.018  26.838  -8.696  0.00  0.00    -0.358 N 
HETATM    2  C   UNK N   1      25.327  23.625  -8.480  0.00  0.00     0.080 C 
HETATM    3  C   UNK N   1      25.568  24.498  -7.246  0.00  0.00     0.066 C 
HETATM    4  C   UNK N   1      26.636  23.341  -9.246  0.00  0.00     0.031 C 
HETATM    5  C   UNK N   1      26.496  25.617  -7.569  0.00  0.00    -0.021 A 
HETATM    6  C   UNK N   1      27.332  24.625  -9.743  0.00  0.00     0.059 C 
HETATM    7  C   UNK N   1      27.295  25.691  -8.691  0.00  0.00     0.017 A 
HETATM    8  C   UNK N   1      26.738  26.751  -6.857  0.00  0.00    -0.000 A 
HETATM    9  C   UNK N   1      27.664  27.476  -7.557  0.00  0.00     0.043 A 
HETATM   10  C   UNK N   1      26.201  27.188  -5.657  0.00  0.00     0.031 A 
HETATM   11  C   UNK N   1      28.125  28.705  -7.092  0.00  0.00     0.031 A 
HETATM   12  C   UNK N   1      26.633  28.426  -5.151  0.00  0.00     0.032 A 
HETATM   13  C   UNK N   1      27.600  29.183  -5.871  0.00  0.00     0.019 A 
HETATM   14  H   UNK N   1      28.660  27.140  -9.379  0.00  0.00     0.166 HD
ENDROOT
BRANCH  12  15
HETATM   15  C   UNK N   1      26.064  28.925  -3.883  0.00  0.00     0.249 C 
HETATM   16  O   UNK N   1      25.481  28.159  -3.131  0.00  0.00    -0.268 OA
HETATM   17  N   UNK N   1      26.175  30.226  -3.548  0.00  0.00    -0.366 N 
HETATM   18  H   UNK N   1      25.712  30.572  -2.751  0.00  0.00     0.159 HD
HETATM   19  H   UNK N   1      26.719  30.832  -4.102  0.00  0.00     0.159 HD
ENDBRANCH  12  15
BRANCH   2  20
HETATM   20  N   UNK N   1      24.712  22.380  -8.044  0.00  0.00    -0.421 N 
HETATM   21  C   UNK N   1      25.537  21.281  -8.514  0.00  0.00     0.140 C 
HETATM   22  H   UNK N   1      23.851  22.296  -7.503  0.00  0.00     0.153 HD
ENDBRANCH   2  20
TORSDOF 2
ENDMDL
MODEL 8
REMARK VINA RESULT:      -5.9     12.473     14.436
REMARK  2 active torsions:
REMARK  status: ('A' for Active; 'I' for Inactive)
REMARK    1  A    between atoms: C_5  and  N_3 
REMARK       I    between atoms: N_4  and  C_18 
REMARK    2  A    between atoms: C_15  and  C_18 
ROOT
HETATM    1  N   UNK N   1      32.296  17.533   8.717  0.00  0.00    -0.358 N 
HETATM    2  C   UNK N   1      28.286  17.589   7.481  0.00  0.00     0.080 C 
HETATM    3  C   UNK N   1      29.395  17.364   6.450  0.00  0.00     0.066 C 
HETATM    4  C   UNK N   1      28.674  18.666   8.515  0.00  0.00     0.031 C 
HETATM    5  C   UNK N   1      30.726  17.306   7.117  0.00  0.00    -0.021 A 
HETATM    6  C   UNK N   1      29.947  18.305   9.309  0.00  0.00     0.059 C 
HETATM    7  C   UNK N   1      30.990  17.723   8.405  0.00  0.00     0.017 A 
HETATM    8  C   UNK N   1      31.906  16.849   6.617  0.00  0.00    -0.000 A 
HETATM    9  C   UNK N   1      32.844  16.996   7.603  0.00  0.00     0.043 A 
HETATM   10  C   UNK N   1      32.206  16.311   5.377  0.00  0.00     0.031 A 
HETATM   11  C   UNK N   1      34.169  16.614   7.407  0.00  0.00     0.031 A 
HETATM   12  C   UNK N   1      33.530  15.906   5.135  0.00  0.00     0.032 A 
HETATM   13  C   UNK N   1      34.512  16.061   6.153  0.00  0.00     0.019 A 
HETATM   14  H   UNK N   1      32.746  17.739   9.569  0.00  0.00     0.166 HD
ENDROOT
BRANCH  12  15
HETATM   15  C   UNK N   1      33.875  15.313   3.827  0.00  0.00     0.249 C 
HETATM   16  O   UNK N   1      34.631  14.354   3.770  0.00  0.00    -0.268 OA
HETATM   17  N   UNK N   1      33.367  15.825   2.688  0.00  0.00    -0.366 N 
HETATM   18  H   UNK N   1      33.674  15.488   1.815  0.00  0.00     0.159 HD
HETATM   19  H   UNK N   1      32.689  16.538   2.729  0.00  0.00     0.159 HD
ENDBRANCH  12  15
BRANCH   2  20
HETATM   20  N   UNK N   1      27.077  17.978   6.770  0.00  0.00    -0.421 N 
HETATM   21  C   UNK N   1      27.419  18.175   5.372  0.00  0.00     0.140 C 
HETATM   22  H   UNK N   1      26.151  18.091   7.182  0.00  0.00     0.153 HD
ENDBRANCH   2  20
TORSDOF 2
ENDMDL
MODEL 9
REMARK VINA RESULT:      -5.8     12.885     15.425
REMARK  2 active torsions:
REMARK  status: ('A' for Active; 'I' for Inactive)
REMARK    1  A    between atoms: C_5  and  N_3 
REMARK       I    between atoms: N_4  and  C_18 
REMARK    2  A    between atoms: C_15  and  C_18 
ROOT
HETATM    1  N   UNK N   1      32.296  17.547   9.047  0.00  0.00    -0.358 N 
HETATM    2  C   UNK N   1      34.117  15.979   5.606  0.00  0.00     0.080 C 
HETATM    3  C   UNK N   1      32.593  16.119   5.662  0.00  0.00     0.066 C 
HETATM    4  C   UNK N   1      34.696  15.482   6.947  0.00  0.00     0.031 C 
HETATM    5  C   UNK N   1      32.173  16.765   6.937  0.00  0.00    -0.021 A 
HETATM    6  C   UNK N   1      34.384  16.428   8.125  0.00  0.00     0.059 C 
HETATM    7  C   UNK N   1      32.969  16.914   8.054  0.00  0.00     0.017 A 
HETATM    8  C   UNK N   1      30.970  17.318   7.252  0.00  0.00    -0.000 A 
HETATM    9  C   UNK N   1      31.066  17.786   8.535  0.00  0.00     0.043 A 
HETATM   10  C   UNK N   1      29.817  17.447   6.496  0.00  0.00     0.031 A 
HETATM   11  C   UNK N   1      29.993  18.418   9.158  0.00  0.00     0.031 A 
HETATM   12  C   UNK N   1      28.710  18.083   7.082  0.00  0.00     0.032 A 
HETATM   13  C   UNK N   1      28.800  18.567   8.417  0.00  0.00     0.019 A 
HETATM   14  H   UNK N   1      32.629  17.782   9.943  0.00  0.00     0.166 HD
ENDROOT
BRANCH  12  15
HETATM   15  C   UNK N   1      27.472  18.249   6.292  0.00  0.00     0.249 C 
HETATM   16  O   UNK N   1      27.056  17.328   5.605  0.00  0.00    -0.268 OA
HETATM   17  N   UNK N   1      26.797  19.416   6.316  0.00  0.00    -0.366 N 
HETATM   18  H   UNK N   1      26.029  19.554   5.716  0.00  0.00     0.159 HD
HETATM   19  H   UNK N   1      27.074  20.131   6.934  0.00  0.00     0.159 HD
ENDBRANCH  12  15
BRANCH   2  20
HETATM   20  N   UNK N   1      34.449  15.055   4.533  0.00  0.00    -0.421 N 
HETATM   21  C   UNK N   1      33.551  15.313   3.421  0.00  0.00     0.140 C 
HETATM   22  H   UNK N   1      35.186  14.350   4.557  0.00  0.00     0.153 HD
ENDBRANCH   2  20
TORSDOF 2
ENDMDL
