MODEL 1
REMARK VINA RESULT:      -8.9      0.000      0.000
REMARK WARNING: 32 MAX_TORS EXCEEDED!!!
REMARK  40 active torsions:
REMARK  status: ('A' for Active; 'I' for Inactive)
REMARK    1  A    between atoms: C_13  and  C_8 
REMARK    2  A    between atoms: C_13  and  C_11 
REMARK    3  A    between atoms: C_15  and  C_11 
REMARK    4  A    between atoms: C_11  and  N_12 
REMARK       I    between atoms: C_102  and  N_12 
REMARK       I    between atoms: C_15  and  N_14 
REMARK    5  A    between atoms: C_16  and  N_14 
REMARK    6  A    between atoms: C_16  and  C_19 
REMARK    7  A    between atoms: C_17  and  C_16 
REMARK       I    between atoms: N_21  and  C_17 
REMARK    8  A    between atoms: C_20  and  C_19 
REMARK    9  A    between atoms: C_27  and  N_21 
REMARK   10  A    between atoms: C_29  and  C_27 
REMARK   11  A    between atoms: C_27  and  C_28 
REMARK   12  A    between atoms: C_31  and  C_28 
REMARK       I    between atoms: N_30  and  C_29 
REMARK   13  A    between atoms: C_38  and  N_30 
REMARK   14  A    between atoms: C_39  and  C_38 
REMARK   15  A    between atoms: C_38  and  C_50 
REMARK       I    between atoms: N_41  and  C_39 
REMARK   16  A    between atoms: C_42  and  N_41 
REMARK   17  A    between atoms: C_44  and  C_42 
REMARK   18  A    between atoms: C_42  and  C_43 
REMARK   19  A    between atoms: C_46  and  C_43 
REMARK       I    between atoms: N_45  and  C_44 
REMARK   20  A    between atoms: C_59  and  N_45 
REMARK   21  A    between atoms: O_51  and  C_50 
REMARK   22  A    between atoms: O_58  and  C_54 
REMARK   23  A    between atoms: C_60  and  C_59 
REMARK   24  A    between atoms: C_59  and  C_74 
REMARK       I    between atoms: N_62  and  C_60 
REMARK   25  A    between atoms: C_63  and  N_62 
REMARK   26  A    between atoms: C_65  and  C_63 
REMARK   27  A    between atoms: C_63  and  C_64 
REMARK   28  A    between atoms: C_73  and  C_64 
REMARK       I    between atoms: N_66  and  C_65 
REMARK   29  A    between atoms: C_67  and  N_66 
REMARK   30  A    between atoms: C_68  and  C_67 
REMARK   31  A    between atoms: C_67  and  C_82 
REMARK       I    between atoms: N_70  and  C_68 
REMARK   32  A    between atoms: C_90  and  C_72 
REMARK       I    between atoms: N_94  and  C_72 
REMARK   33  A    between atoms: C_75  and  C_74 
REMARK   34  A    between atoms: C_76  and  C_75 
REMARK   35  A    between atoms: N_77  and  C_76 
REMARK       I    between atoms: C_78  and  N_77 
REMARK       I    between atoms: N_80  and  C_78 
REMARK   36  A    between atoms: C_83  and  C_82 
REMARK   37  A    between atoms: C_84  and  C_83 
REMARK   38  A    between atoms: N_85  and  C_84 
REMARK       I    between atoms: C_86  and  N_85 
REMARK       I    between atoms: N_89  and  C_86 
REMARK   39  A    between atoms: C_95  and  N_94 
REMARK   40  A    between atoms: C_96  and  C_95 
REMARK       I    between atoms: N_99  and  C_96 
ROOT
HETATM    1  C   UNK N   1      29.300  16.127   5.315  0.00  0.00     0.180 C 
ENDROOT
BRANCH   1   2
HETATM    2  N   UNK N   1      30.181  15.208   4.631  0.00  0.00    -0.346 N 
HETATM    3  C   UNK N   1      31.106  14.378   5.213  0.00  0.00     0.243 C 
HETATM    4  O   UNK N   1      31.197  14.247   6.423  0.00  0.00    -0.271 OA
HETATM    5  H   UNK N   1      30.111  15.175   3.649  0.00  0.00     0.163 HD
BRANCH   3   6
HETATM    6  C   UNK N   1      31.874  13.466   4.337  0.00  0.00     0.200 C 
BRANCH   6   7
HETATM    7  N   UNK N   1      32.939  13.061   5.204  0.00  0.00    -0.344 N 
HETATM    8  C   UNK N   1      34.194  12.979   4.702  0.00  0.00     0.241 C 
HETATM    9  O   UNK N   1      34.375  12.776   3.508  0.00  0.00    -0.271 OA
HETATM   10  H   UNK N   1      32.760  12.844   6.148  0.00  0.00     0.163 HD
BRANCH   8  11
HETATM   11  C   UNK N   1      35.307  13.518   5.535  0.00  0.00     0.180 C 
BRANCH  11  12
HETATM   12  N   UNK N   1      36.487  12.701   5.713  0.00  0.00    -0.346 N 
HETATM   13  C   UNK N   1      37.000  12.308   6.904  0.00  0.00     0.241 C 
HETATM   14  O   UNK N   1      37.975  11.575   6.907  0.00  0.00    -0.271 OA
HETATM   15  H   UNK N   1      36.957  12.406   4.900  0.00  0.00     0.163 HD
BRANCH  13  16
HETATM   16  C   UNK N   1      36.355  12.701   8.211  0.00  0.00     0.180 C 
BRANCH  16  17
HETATM   17  N   UNK N   1      35.804  11.548   8.875  0.00  0.00    -0.346 N 
HETATM   18  C   UNK N   1      34.520  11.137   8.734  0.00  0.00     0.241 C 
HETATM   19  O   UNK N   1      33.743  11.726   7.996  0.00  0.00    -0.271 OA
HETATM   20  H   UNK N   1      36.395  11.028   9.466  0.00  0.00     0.163 HD
BRANCH  18  21
HETATM   21  C   UNK N   1      34.072   9.928   9.486  0.00  0.00     0.180 C 
BRANCH  21  22
HETATM   22  C   UNK N   1      35.195   9.376  10.385  0.00  0.00     0.073 C 
BRANCH  22  23
HETATM   23  C   UNK N   1      34.975   9.567  11.868  0.00  0.00    -0.055 A 
HETATM   24  C   UNK N   1      35.938   9.092  12.766  0.00  0.00     0.019 A 
HETATM   25  C   UNK N   1      35.797   9.323  14.138  0.00  0.00    -0.025 A 
HETATM   26  C   UNK N   1      36.752   8.841  15.037  0.00  0.00     0.012 A 
HETATM   27  C   UNK N   1      34.686  10.055  14.620  0.00  0.00    -0.026 A 
HETATM   28  C   UNK N   1      36.612   9.088  16.406  0.00  0.00     0.001 A 
HETATM   29  C   UNK N   1      35.520   9.824  16.880  0.00  0.00     0.001 A 
HETATM   30  C   UNK N   1      34.557  10.306  15.989  0.00  0.00     0.012 A 
HETATM   31  C   UNK N   1      33.721  10.521  13.727  0.00  0.00     0.013 A 
HETATM   32  C   UNK N   1      33.860  10.271  12.360  0.00  0.00     0.008 A 
ENDBRANCH  22  23
ENDBRANCH  21  22
BRANCH  21  33
HETATM   33  N   UNK N   1      33.630   8.918   8.547  0.00  0.00    -0.348 N 
HETATM   34  C   UNK N   1      32.508   8.169   8.734  0.00  0.00     0.214 C 
HETATM   35  O   UNK N   1      32.162   7.381   7.872  0.00  0.00    -0.274 OA
HETATM   36  C   UNK N   1      31.682   8.288   9.979  0.00  0.00     0.117 C 
HETATM   37  H   UNK N   1      34.166   8.764   7.735  0.00  0.00     0.163 HD
ENDBRANCH  21  33
ENDBRANCH  18  21
ENDBRANCH  16  17
BRANCH  16  38
HETATM   38  C   UNK N   1      37.270  13.490   9.153  0.00  0.00     0.073 C 
BRANCH  38  39
HETATM   39  C   UNK N   1      36.815  13.513  10.581  0.00  0.00    -0.056 A 
HETATM   40  C   UNK N   1      37.441  12.668  11.504  0.00  0.00     0.009 A 
HETATM   41  C   UNK N   1      37.021  12.644  12.837  0.00  0.00     0.024 A 
HETATM   42  C   UNK N   1      35.973  13.467  13.256  0.00  0.00     0.034 A 
HETATM   43  C   UNK N   1      35.333  14.305  12.336  0.00  0.00     0.024 A 
HETATM   44 Cl   UNK N   1      35.480  13.465  14.936  0.00  0.00    -0.084 Cl
HETATM   45  C   UNK N   1      35.743  14.319  10.997  0.00  0.00     0.009 A 
ENDBRANCH  38  39
ENDBRANCH  16  38
ENDBRANCH  13  16
ENDBRANCH  11  12
BRANCH  11  46
HETATM   46  C   UNK N   1      35.530  15.027   5.543  0.00  0.00     0.074 C 
BRANCH  46  47
HETATM   47  C   UNK N   1      34.480  15.757   6.329  0.00  0.00    -0.040 A 
HETATM   48  C   UNK N   1      34.190  15.343   7.629  0.00  0.00     0.094 A 
HETATM   49  N   UNK N   1      33.247  15.994   8.362  0.00  0.00    -0.375 N 
HETATM   50  C   UNK N   1      32.565  17.060   7.860  0.00  0.00     0.087 A 
ATOM     51  HN  UNK N   1      33.045  15.676   9.310  1.00  0.00     0.164 HD
HETATM   52  C   UNK N   1      32.827  17.513   6.567  0.00  0.00     0.018 A 
HETATM   53  C   UNK N   1      33.791  16.858   5.801  0.00  0.00     0.010 A 
ENDBRANCH  46  47
ENDBRANCH  11  46
ENDBRANCH   8  11
ENDBRANCH   6   7
BRANCH   6  54
HETATM   54  C   UNK N   1      30.987  12.292   3.949  0.00  0.00     0.199 C 
BRANCH  54  55
HETATM   55  O   UNK N   1      29.939  12.162   4.867  0.00  0.00    -0.398 OA
HETATM   56  H   UNK N   1      29.175  12.757   4.894  0.00  0.00     0.209 HD
ENDBRANCH  54  55
ENDBRANCH   6  54
ENDBRANCH   3   6
ENDBRANCH   1   2
BRANCH   1  57
HETATM   57  C   UNK N   1      27.916  15.672   5.102  0.00  0.00     0.241 C 
HETATM   58  N   UNK N   1      27.353  15.979   3.911  0.00  0.00    -0.346 N 
HETATM   59  H   UNK N   1      27.975  16.215   3.185  0.00  0.00     0.163 HD
HETATM   60  O   UNK N   1      27.295  15.118   5.997  0.00  0.00    -0.271 OA
BRANCH  58  61
HETATM   61  C   UNK N   1      25.976  16.002   3.588  0.00  0.00     0.176 C 
BRANCH  61  62
HETATM   62  C   UNK N   1      25.799  15.025   2.496  0.00  0.00     0.241 C 
HETATM   63  N   UNK N   1      24.575  14.921   1.947  0.00  0.00    -0.346 N 
HETATM   64  H   UNK N   1      24.089  15.723   1.646  0.00  0.00     0.163 HD
HETATM   65  O   UNK N   1      26.684  14.229   2.224  0.00  0.00    -0.271 OA
BRANCH  63  66
HETATM   66  C   UNK N   1      24.000  13.639   1.812  0.00  0.00     0.177 C 
BRANCH  66  67
HETATM   67  C   UNK N   1      22.804  13.644   2.714  0.00  0.00     0.241 C 
HETATM   68  N   UNK N   1      22.881  14.186   3.957  0.00  0.00    -0.346 N 
HETATM   69  H   UNK N   1      23.721  14.114   4.465  0.00  0.00     0.163 HD
HETATM   70  O   UNK N   1      21.725  13.300   2.254  0.00  0.00    -0.271 OA
BRANCH  68  71
HETATM   71  C   UNK N   1      21.750  14.869   4.544  0.00  0.00     0.176 C 
BRANCH  71  72
HETATM   72  C   UNK N   1      22.027  14.935   6.026  0.00  0.00     0.243 C 
HETATM   73  N   UNK N   1      21.116  15.379   6.914  0.00  0.00    -0.337 N 
HETATM   74  C   UNK N   1      21.361  15.315   8.322  0.00  0.00     0.179 A 
HETATM   75  C   UNK N   1      19.835  15.900   6.529  0.00  0.00     0.127 A 
HETATM   76  C   UNK N   1      20.148  15.950   8.967  0.00  0.00     0.037 A 
HETATM   77  C   UNK N   1      19.142  16.214   7.844  0.00  0.00     0.022 A 
HETATM   78  O   UNK N   1      23.101  14.512   6.462  0.00  0.00    -0.271 OA
BRANCH  74  79
HETATM   79  C   UNK N   1      21.517  13.876   8.754  0.00  0.00     0.241 C 
HETATM   80  O   UNK N   1      20.583  13.096   8.616  0.00  0.00    -0.271 OA
HETATM   81  N   UNK N   1      22.697  13.451   9.270  0.00  0.00    -0.346 N 
HETATM   82  H   UNK N   1      23.462  14.072   9.292  0.00  0.00     0.163 HD
BRANCH  81  83
HETATM   83  C   UNK N   1      22.865  12.112   9.789  0.00  0.00     0.172 C 
HETATM   84  C   UNK N   1      23.591  11.250   8.766  0.00  0.00     0.042 C 
BRANCH  83  85
HETATM   85  C   UNK N   1      23.602  12.179  11.105  0.00  0.00     0.237 C 
HETATM   86  O   UNK N   1      22.983  12.049  12.148  0.00  0.00    -0.271 OA
HETATM   87  N   UNK N   1      24.931  12.399  11.148  0.00  0.00    -0.368 N 
HETATM   88  H   UNK N   1      25.566  12.320  10.399  0.00  0.00     0.159 HD
HETATM   89  H   UNK N   1      25.307  12.667  12.018  0.00  0.00     0.159 HD
ENDBRANCH  83  85
ENDBRANCH  81  83
ENDBRANCH  74  79
ENDBRANCH  71  72
BRANCH  71  90
HETATM   90  C   UNK N   1      21.519  16.279   4.002  0.00  0.00     0.036 C 
BRANCH  90  91
HETATM   91  C   UNK N   1      20.243  16.426   3.195  0.00  0.00     0.023 C 
BRANCH  91  92
HETATM   92  C   UNK N   1      20.610  16.582   1.724  0.00  0.00     0.138 C 
BRANCH  92  93
HETATM   93  N   UNK N   1      19.425  16.484   0.904  0.00  0.00    -0.227 N 
HETATM   94  C   UNK N   1      18.972  15.249   0.375  0.00  0.00     0.665 C 
HETATM   95  N   UNK N   1      19.658  14.177   0.534  0.00  0.00    -0.235 N 
HETATM   96  N   UNK N   1      17.727  15.192  -0.289  0.00  0.00    -0.235 N 
HETATM   97  H   UNK N   1      19.631  13.219   0.314  0.00  0.00     0.174 HD
ATOM     98  HN  UNK N   1      20.507  14.386   1.059  1.00  0.00     0.174 HD
HETATM   99  H   UNK N   1      16.935  15.626   0.100  0.00  0.00     0.174 HD
HETATM  100  H   UNK N   1      17.653  14.714  -1.146  0.00  0.00     0.174 HD
HETATM  101  H   UNK N   1      18.916  17.302   0.705  0.00  0.00     0.177 HD
ENDBRANCH  92  93
ENDBRANCH  91  92
ENDBRANCH  90  91
ENDBRANCH  71  90
ENDBRANCH  68  71
ENDBRANCH  66  67
BRANCH  66 102
HETATM  102  C   UNK N   1      23.640  13.307   0.371  0.00  0.00     0.038 C 
BRANCH 102 103
HETATM  103  C   UNK N   1      24.111  11.903   0.017  0.00  0.00    -0.020 C 
HETATM  104  C   UNK N   1      25.132  11.374   1.012  0.00  0.00     0.009 C 
HETATM  105  C   UNK N   1      22.919  10.970   0.006  0.00  0.00     0.009 C 
ENDBRANCH 102 103
ENDBRANCH  66 102
ENDBRANCH  63  66
ENDBRANCH  61  62
BRANCH  61 106
HETATM  106  C   UNK N   1      25.505  17.398   3.170  0.00  0.00     0.036 C 
BRANCH 106 107
HETATM  107  C   UNK N   1      24.745  18.069   4.295  0.00  0.00     0.022 C 
BRANCH 107 108
HETATM  108  C   UNK N   1      24.202  19.413   3.830  0.00  0.00     0.124 C 
BRANCH 108 109
HETATM  109  N   UNK N   1      22.815  19.318   3.436  0.00  0.00    -0.343 N 
HETATM  110  C   UNK N   1      22.141  20.356   2.881  0.00  0.00     0.313 C 
HETATM  111  O   UNK N   1      22.688  21.436   2.713  0.00  0.00    -0.248 OA
HETATM  112  N   UNK N   1      20.861  20.193   2.497  0.00  0.00    -0.352 N 
HETATM  113  H   UNK N   1      20.264  19.600   3.007  0.00  0.00     0.160 HD
HETATM  114  H   UNK N   1      20.521  20.669   1.705  0.00  0.00     0.160 HD
HETATM  115  H   UNK N   1      22.340  18.467   3.575  0.00  0.00     0.164 HD
ENDBRANCH 108 109
ENDBRANCH 107 108
ENDBRANCH 106 107
ENDBRANCH  61 106
ENDBRANCH  58  61
ENDBRANCH   1  57
BRANCH   1 116
HETATM  116  C   UNK N   1      29.448  17.553   4.752  0.00  0.00     0.073 C 
BRANCH 116 117
HETATM  117  C   UNK N   1      28.624  18.627   5.424  0.00  0.00    -0.056 A 
HETATM  118  C   UNK N   1      28.116  19.674   4.644  0.00  0.00     0.010 A 
HETATM  119  C   UNK N   1      27.363  20.696   5.232  0.00  0.00     0.037 A 
HETATM  120  C   UNK N   1      27.121  20.684   6.608  0.00  0.00     0.065 A 
HETATM  121  C   UNK N   1      27.627  19.644   7.395  0.00  0.00     0.037 A 
HETATM  122  C   UNK N   1      28.375  18.618   6.806  0.00  0.00     0.010 A 
BRANCH 120 123
HETATM  123  O   UNK N   1      26.402  21.668   7.174  0.00  0.00    -0.361 OA
HETATM  124  H   UNK N   1      26.483  22.548   6.865  0.00  0.00     0.217 HD
ENDBRANCH 120 123
ENDBRANCH 116 117
ENDBRANCH   1 116
TORSDOF 40
ENDMDL
MODEL 2
REMARK VINA RESULT:      -8.7      2.094      5.650
REMARK WARNING: 32 MAX_TORS EXCEEDED!!!
REMARK  40 active torsions:
REMARK  status: ('A' for Active; 'I' for Inactive)
REMARK    1  A    between atoms: C_13  and  C_8 
REMARK    2  A    between atoms: C_13  and  C_11 
REMARK    3  A    between atoms: C_15  and  C_11 
REMARK    4  A    between atoms: C_11  and  N_12 
REMARK       I    between atoms: C_102  and  N_12 
REMARK       I    between atoms: C_15  and  N_14 
REMARK    5  A    between atoms: C_16  and  N_14 
REMARK    6  A    between atoms: C_16  and  C_19 
REMARK    7  A    between atoms: C_17  and  C_16 
REMARK       I    between atoms: N_21  and  C_17 
REMARK    8  A    between atoms: C_20  and  C_19 
REMARK    9  A    between atoms: C_27  and  N_21 
REMARK   10  A    between atoms: C_29  and  C_27 
REMARK   11  A    between atoms: C_27  and  C_28 
REMARK   12  A    between atoms: C_31  and  C_28 
REMARK       I    between atoms: N_30  and  C_29 
REMARK   13  A    between atoms: C_38  and  N_30 
REMARK   14  A    between atoms: C_39  and  C_38 
REMARK   15  A    between atoms: C_38  and  C_50 
REMARK       I    between atoms: N_41  and  C_39 
REMARK   16  A    between atoms: C_42  and  N_41 
REMARK   17  A    between atoms: C_44  and  C_42 
REMARK   18  A    between atoms: C_42  and  C_43 
REMARK   19  A    between atoms: C_46  and  C_43 
REMARK       I    between atoms: N_45  and  C_44 
REMARK   20  A    between atoms: C_59  and  N_45 
REMARK   21  A    between atoms: O_51  and  C_50 
REMARK   22  A    between atoms: O_58  and  C_54 
REMARK   23  A    between atoms: C_60  and  C_59 
REMARK   24  A    between atoms: C_59  and  C_74 
REMARK       I    between atoms: N_62  and  C_60 
REMARK   25  A    between atoms: C_63  and  N_62 
REMARK   26  A    between atoms: C_65  and  C_63 
REMARK   27  A    between atoms: C_63  and  C_64 
REMARK   28  A    between atoms: C_73  and  C_64 
REMARK       I    between atoms: N_66  and  C_65 
REMARK   29  A    between atoms: C_67  and  N_66 
REMARK   30  A    between atoms: C_68  and  C_67 
REMARK   31  A    between atoms: C_67  and  C_82 
REMARK       I    between atoms: N_70  and  C_68 
REMARK   32  A    between atoms: C_90  and  C_72 
REMARK       I    between atoms: N_94  and  C_72 
REMARK   33  A    between atoms: C_75  and  C_74 
REMARK   34  A    between atoms: C_76  and  C_75 
REMARK   35  A    between atoms: N_77  and  C_76 
REMARK       I    between atoms: C_78  and  N_77 
REMARK       I    between atoms: N_80  and  C_78 
REMARK   36  A    between atoms: C_83  and  C_82 
REMARK   37  A    between atoms: C_84  and  C_83 
REMARK   38  A    between atoms: N_85  and  C_84 
REMARK       I    between atoms: C_86  and  N_85 
REMARK       I    between atoms: N_89  and  C_86 
REMARK   39  A    between atoms: C_95  and  N_94 
REMARK   40  A    between atoms: C_96  and  C_95 
REMARK       I    between atoms: N_99  and  C_96 
ROOT
HETATM    1  C   UNK N   1      27.811  15.176   4.136  0.00  0.00     0.180 C 
ENDROOT
BRANCH   1   2
HETATM    2  N   UNK N   1      28.978  14.400   3.783  0.00  0.00    -0.346 N 
HETATM    3  C   UNK N   1      30.001  14.037   4.622  0.00  0.00     0.243 C 
HETATM    4  O   UNK N   1      29.965  14.244   5.825  0.00  0.00    -0.271 OA
HETATM    5  H   UNK N   1      29.046  14.103   2.846  0.00  0.00     0.163 HD
BRANCH   3   6
HETATM    6  C   UNK N   1      31.082  13.187   4.078  0.00  0.00     0.200 C 
BRANCH   6   7
HETATM    7  N   UNK N   1      32.119  13.384   5.045  0.00  0.00    -0.344 N 
HETATM    8  C   UNK N   1      33.362  13.707   4.613  0.00  0.00     0.241 C 
HETATM    9  O   UNK N   1      33.734  13.383   3.492  0.00  0.00    -0.271 OA
HETATM   10  H   UNK N   1      31.933  13.284   6.006  0.00  0.00     0.163 HD
BRANCH   8  11
HETATM   11  C   UNK N   1      34.095  14.771   5.355  0.00  0.00     0.180 C 
BRANCH  11  12
HETATM   12  N   UNK N   1      35.468  14.520   5.735  0.00  0.00    -0.346 N 
HETATM   13  C   UNK N   1      35.910  14.309   6.998  0.00  0.00     0.241 C 
HETATM   14  O   UNK N   1      37.091  14.057   7.169  0.00  0.00    -0.271 OA
HETATM   15  H   UNK N   1      36.138  14.501   5.013  0.00  0.00     0.163 HD
BRANCH  13  16
HETATM   16  C   UNK N   1      34.966  14.314   8.176  0.00  0.00     0.180 C 
BRANCH  16  17
HETATM   17  N   UNK N   1      34.722  12.971   8.639  0.00  0.00    -0.346 N 
HETATM   18  C   UNK N   1      33.524  12.346   8.540  0.00  0.00     0.241 C 
HETATM   19  O   UNK N   1      32.563  12.894   8.018  0.00  0.00    -0.271 OA
HETATM   20  H   UNK N   1      35.469  12.480   9.050  0.00  0.00     0.163 HD
BRANCH  18  21
HETATM   21  C   UNK N   1      33.400  10.955   9.067  0.00  0.00     0.180 C 
BRANCH  21  22
HETATM   22  C   UNK N   1      34.783  10.314   9.291  0.00  0.00     0.073 C 
BRANCH  22  23
HETATM   23  C   UNK N   1      35.109   9.991  10.732  0.00  0.00    -0.055 A 
HETATM   24  C   UNK N   1      34.329  10.554  11.749  0.00  0.00     0.019 A 
HETATM   25  C   UNK N   1      34.561  10.212  13.085  0.00  0.00    -0.025 A 
HETATM   26  C   UNK N   1      33.790  10.780  14.102  0.00  0.00     0.012 A 
HETATM   27  C   UNK N   1      35.574   9.280  13.410  0.00  0.00    -0.026 A 
HETATM   28  C   UNK N   1      34.017  10.423  15.435  0.00  0.00     0.001 A 
HETATM   29  C   UNK N   1      35.011   9.490  15.754  0.00  0.00     0.001 A 
HETATM   30  C   UNK N   1      35.790   8.921  14.742  0.00  0.00     0.012 A 
HETATM   31  C   UNK N   1      36.358   8.726  12.397  0.00  0.00     0.013 A 
HETATM   32  C   UNK N   1      36.132   9.086  11.067  0.00  0.00     0.008 A 
ENDBRANCH  22  23
ENDBRANCH  21  22
BRANCH  21  33
HETATM   33  N   UNK N   1      32.616  10.162   8.143  0.00  0.00    -0.348 N 
HETATM   34  C   UNK N   1      31.865   9.094   8.532  0.00  0.00     0.214 C 
HETATM   35  O   UNK N   1      31.180   8.512   7.709  0.00  0.00    -0.274 OA
HETATM   36  C   UNK N   1      31.857   8.613   9.951  0.00  0.00     0.117 C 
HETATM   37  H   UNK N   1      32.626  10.405   7.189  0.00  0.00     0.163 HD
ENDBRANCH  21  33
ENDBRANCH  18  21
ENDBRANCH  16  17
BRANCH  16  38
HETATM   38  C   UNK N   1      35.406  15.219   9.332  0.00  0.00     0.073 C 
BRANCH  38  39
HETATM   39  C   UNK N   1      35.863  14.482  10.555  0.00  0.00    -0.056 A 
HETATM   40  C   UNK N   1      37.019  13.697  10.477  0.00  0.00     0.009 A 
HETATM   41  C   UNK N   1      37.457  12.973  11.590  0.00  0.00     0.024 A 
HETATM   42  C   UNK N   1      36.742  13.033  12.789  0.00  0.00     0.034 A 
HETATM   43  C   UNK N   1      35.578  13.804  12.871  0.00  0.00     0.024 A 
HETATM   44 Cl   UNK N   1      37.319  12.159  14.193  0.00  0.00    -0.084 Cl
HETATM   45  C   UNK N   1      35.131  14.518  11.752  0.00  0.00     0.009 A 
ENDBRANCH  38  39
ENDBRANCH  16  38
ENDBRANCH  13  16
ENDBRANCH  11  12
BRANCH  11  46
HETATM   46  C   UNK N   1      33.738  16.225   5.064  0.00  0.00     0.074 C 
BRANCH  46  47
HETATM   47  C   UNK N   1      33.094  16.902   6.239  0.00  0.00    -0.040 A 
HETATM   48  C   UNK N   1      33.881  17.669   7.099  0.00  0.00     0.094 A 
HETATM   49  N   UNK N   1      33.318  18.297   8.167  0.00  0.00    -0.375 N 
HETATM   50  C   UNK N   1      31.985  18.204   8.428  0.00  0.00     0.087 A 
ATOM     51  HN  UNK N   1      33.908  18.851   8.788  1.00  0.00     0.164 HD
HETATM   52  C   UNK N   1      31.159  17.453   7.590  0.00  0.00     0.018 A 
HETATM   53  C   UNK N   1      31.719  16.803   6.491  0.00  0.00     0.010 A 
ENDBRANCH  46  47
ENDBRANCH  11  46
ENDBRANCH   8  11
ENDBRANCH   6   7
BRANCH   6  54
HETATM   54  C   UNK N   1      30.606  11.742   4.049  0.00  0.00     0.199 C 
BRANCH  54  55
HETATM   55  O   UNK N   1      29.412  11.618   4.767  0.00  0.00    -0.398 OA
HETATM   56  H   UNK N   1      29.376  11.406   5.712  0.00  0.00     0.209 HD
ENDBRANCH  54  55
ENDBRANCH   6  54
ENDBRANCH   3   6
ENDBRANCH   1   2
BRANCH   1  57
HETATM   57  C   UNK N   1      26.633  14.301   4.023  0.00  0.00     0.241 C 
HETATM   58  N   UNK N   1      26.868  13.005   3.715  0.00  0.00    -0.346 N 
HETATM   59  H   UNK N   1      27.784  12.679   3.873  0.00  0.00     0.163 HD
HETATM   60  O   UNK N   1      25.503  14.755   4.125  0.00  0.00    -0.271 OA
BRANCH  58  61
HETATM   61  C   UNK N   1      25.951  12.061   3.194  0.00  0.00     0.176 C 
BRANCH  61  62
HETATM   62  C   UNK N   1      25.628  11.150   4.307  0.00  0.00     0.241 C 
HETATM   63  N   UNK N   1      24.405  11.253   4.861  0.00  0.00    -0.346 N 
HETATM   64  H   UNK N   1      23.597  11.255   4.297  0.00  0.00     0.163 HD
HETATM   65  O   UNK N   1      26.495  10.453   4.813  0.00  0.00    -0.271 OA
BRANCH  63  66
HETATM   66  C   UNK N   1      24.304  11.357   6.265  0.00  0.00     0.177 C 
BRANCH  66  67
HETATM   67  C   UNK N   1      23.899  12.775   6.528  0.00  0.00     0.241 C 
HETATM   68  N   UNK N   1      22.688  13.233   6.115  0.00  0.00    -0.346 N 
HETATM   69  H   UNK N   1      22.302  12.893   5.276  0.00  0.00     0.163 HD
HETATM   70  O   UNK N   1      24.604  13.458   7.256  0.00  0.00    -0.271 OA
BRANCH  68  71
HETATM   71  C   UNK N   1      21.957  14.210   6.891  0.00  0.00     0.176 C 
BRANCH  71  72
HETATM   72  C   UNK N   1      21.275  15.111   5.890  0.00  0.00     0.243 C 
HETATM   73  N   UNK N   1      21.825  16.262   5.458  0.00  0.00    -0.337 N 
HETATM   74  C   UNK N   1      21.213  17.033   4.419  0.00  0.00     0.179 A 
HETATM   75  C   UNK N   1      23.066  16.776   5.964  0.00  0.00     0.127 A 
HETATM   76  C   UNK N   1      22.087  18.258   4.264  0.00  0.00     0.037 A 
HETATM   77  C   UNK N   1      23.312  18.039   5.156  0.00  0.00     0.022 A 
HETATM   78  O   UNK N   1      20.201  14.761   5.393  0.00  0.00    -0.271 OA
BRANCH  74  79
HETATM   79  C   UNK N   1      21.167  16.231   3.140  0.00  0.00     0.241 C 
HETATM   80  O   UNK N   1      22.179  15.668   2.740  0.00  0.00    -0.271 OA
HETATM   81  N   UNK N   1      20.002  16.116   2.457  0.00  0.00    -0.346 N 
HETATM   82  H   UNK N   1      19.181  16.504   2.841  0.00  0.00     0.163 HD
BRANCH  81  83
HETATM   83  C   UNK N   1      19.929  15.445   1.179  0.00  0.00     0.172 C 
HETATM   84  C   UNK N   1      19.022  14.227   1.287  0.00  0.00     0.042 C 
BRANCH  83  85
HETATM   85  C   UNK N   1      19.450  16.421   0.131  0.00  0.00     0.237 C 
HETATM   86  O   UNK N   1      20.236  17.222  -0.348  0.00  0.00    -0.271 OA
HETATM   87  N   UNK N   1      18.163  16.436  -0.270  0.00  0.00    -0.368 N 
HETATM   88  H   UNK N   1      17.491  15.732  -0.119  0.00  0.00     0.159 HD
HETATM   89  H   UNK N   1      17.863  17.234  -0.764  0.00  0.00     0.159 HD
ENDBRANCH  83  85
ENDBRANCH  81  83
ENDBRANCH  74  79
ENDBRANCH  71  72
BRANCH  71  90
HETATM   90  C   UNK N   1      20.915  13.610   7.834  0.00  0.00     0.036 C 
BRANCH  90  91
HETATM   91  C   UNK N   1      20.907  14.231   9.217  0.00  0.00     0.023 C 
BRANCH  91  92
HETATM   92  C   UNK N   1      21.352  13.180  10.227  0.00  0.00     0.138 C 
BRANCH  92  93
HETATM   93  N   UNK N   1      22.793  13.171  10.332  0.00  0.00    -0.227 N 
HETATM   94  C   UNK N   1      23.480  12.315  11.229  0.00  0.00     0.665 C 
HETATM   95  N   UNK N   1      22.833  11.576  12.053  0.00  0.00    -0.235 N 
HETATM   96  N   UNK N   1      24.889  12.240  11.177  0.00  0.00    -0.235 N 
HETATM   97  H   UNK N   1      22.991  10.910  12.761  0.00  0.00     0.174 HD
ATOM     98  HN  UNK N   1      21.831  11.726  11.939  1.00  0.00     0.174 HD
HETATM   99  H   UNK N   1      25.352  12.153  10.313  0.00  0.00     0.174 HD
HETATM  100  H   UNK N   1      25.410  12.275  12.011  0.00  0.00     0.174 HD
HETATM  101  H   UNK N   1      23.315  13.780   9.761  0.00  0.00     0.177 HD
ENDBRANCH  92  93
ENDBRANCH  91  92
ENDBRANCH  90  91
ENDBRANCH  71  90
ENDBRANCH  68  71
ENDBRANCH  66  67
BRANCH  66 102
HETATM  102  C   UNK N   1      23.327  10.354   6.858  0.00  0.00     0.038 C 
BRANCH 102 103
HETATM  103  C   UNK N   1      23.521   8.984   6.220  0.00  0.00    -0.020 C 
HETATM  104  C   UNK N   1      24.098   7.975   7.199  0.00  0.00     0.009 C 
HETATM  105  C   UNK N   1      22.184   8.473   5.731  0.00  0.00     0.009 C 
ENDBRANCH 102 103
ENDBRANCH  66 102
ENDBRANCH  63  66
ENDBRANCH  61  62
BRANCH  61 106
HETATM  106  C   UNK N   1      26.528  11.299   1.997  0.00  0.00     0.036 C 
BRANCH 106 107
HETATM  107  C   UNK N   1      27.851  11.897   1.565  0.00  0.00     0.022 C 
BRANCH 107 108
HETATM  108  C   UNK N   1      28.509  11.008   0.519  0.00  0.00     0.124 C 
BRANCH 108 109
HETATM  109  N   UNK N   1      29.305   9.968   1.130  0.00  0.00    -0.343 N 
HETATM  110  C   UNK N   1      30.639   9.848   0.916  0.00  0.00     0.313 C 
HETATM  111  O   UNK N   1      31.222  10.616   0.166  0.00  0.00    -0.248 OA
HETATM  112  N   UNK N   1      31.333   8.882   1.547  0.00  0.00    -0.352 N 
HETATM  113  H   UNK N   1      30.912   8.011   1.732  0.00  0.00     0.160 HD
HETATM  114  H   UNK N   1      32.264   9.046   1.823  0.00  0.00     0.160 HD
HETATM  115  H   UNK N   1      28.862   9.320   1.726  0.00  0.00     0.164 HD
ENDBRANCH 108 109
ENDBRANCH 107 108
ENDBRANCH 106 107
ENDBRANCH  61 106
ENDBRANCH  58  61
ENDBRANCH   1  57
BRANCH   1 116
HETATM  116  C   UNK N   1      27.636  16.372   3.180  0.00  0.00     0.073 C 
BRANCH 116 117
HETATM  117  C   UNK N   1      27.486  17.729   3.827  0.00  0.00    -0.056 A 
HETATM  118  C   UNK N   1      28.365  18.085   4.860  0.00  0.00     0.010 A 
HETATM  119  C   UNK N   1      28.247  19.326   5.495  0.00  0.00     0.037 A 
HETATM  120  C   UNK N   1      27.244  20.217   5.109  0.00  0.00     0.065 A 
HETATM  121  C   UNK N   1      26.361  19.870   4.081  0.00  0.00     0.037 A 
HETATM  122  C   UNK N   1      26.482  18.632   3.441  0.00  0.00     0.010 A 
BRANCH 120 123
HETATM  123  O   UNK N   1      27.128  21.407   5.722  0.00  0.00    -0.361 OA
HETATM  124  H   UNK N   1      27.571  21.565   6.533  0.00  0.00     0.217 HD
ENDBRANCH 120 123
ENDBRANCH 116 117
ENDBRANCH   1 116
TORSDOF 40
ENDMDL
MODEL 3
REMARK VINA RESULT:      -8.5      2.070      4.602
REMARK WARNING: 32 MAX_TORS EXCEEDED!!!
REMARK  40 active torsions:
REMARK  status: ('A' for Active; 'I' for Inactive)
REMARK    1  A    between atoms: C_13  and  C_8 
REMARK    2  A    between atoms: C_13  and  C_11 
REMARK    3  A    between atoms: C_15  and  C_11 
REMARK    4  A    between atoms: C_11  and  N_12 
REMARK       I    between atoms: C_102  and  N_12 
REMARK       I    between atoms: C_15  and  N_14 
REMARK    5  A    between atoms: C_16  and  N_14 
REMARK    6  A    between atoms: C_16  and  C_19 
REMARK    7  A    between atoms: C_17  and  C_16 
REMARK       I    between atoms: N_21  and  C_17 
REMARK    8  A    between atoms: C_20  and  C_19 
REMARK    9  A    between atoms: C_27  and  N_21 
REMARK   10  A    between atoms: C_29  and  C_27 
REMARK   11  A    between atoms: C_27  and  C_28 
REMARK   12  A    between atoms: C_31  and  C_28 
REMARK       I    between atoms: N_30  and  C_29 
REMARK   13  A    between atoms: C_38  and  N_30 
REMARK   14  A    between atoms: C_39  and  C_38 
REMARK   15  A    between atoms: C_38  and  C_50 
REMARK       I    between atoms: N_41  and  C_39 
REMARK   16  A    between atoms: C_42  and  N_41 
REMARK   17  A    between atoms: C_44  and  C_42 
REMARK   18  A    between atoms: C_42  and  C_43 
REMARK   19  A    between atoms: C_46  and  C_43 
REMARK       I    between atoms: N_45  and  C_44 
REMARK   20  A    between atoms: C_59  and  N_45 
REMARK   21  A    between atoms: O_51  and  C_50 
REMARK   22  A    between atoms: O_58  and  C_54 
REMARK   23  A    between atoms: C_60  and  C_59 
REMARK   24  A    between atoms: C_59  and  C_74 
REMARK       I    between atoms: N_62  and  C_60 
REMARK   25  A    between atoms: C_63  and  N_62 
REMARK   26  A    between atoms: C_65  and  C_63 
REMARK   27  A    between atoms: C_63  and  C_64 
REMARK   28  A    between atoms: C_73  and  C_64 
REMARK       I    between atoms: N_66  and  C_65 
REMARK   29  A    between atoms: C_67  and  N_66 
REMARK   30  A    between atoms: C_68  and  C_67 
REMARK   31  A    between atoms: C_67  and  C_82 
REMARK       I    between atoms: N_70  and  C_68 
REMARK   32  A    between atoms: C_90  and  C_72 
REMARK       I    between atoms: N_94  and  C_72 
REMARK   33  A    between atoms: C_75  and  C_74 
REMARK   34  A    between atoms: C_76  and  C_75 
REMARK   35  A    between atoms: N_77  and  C_76 
REMARK       I    between atoms: C_78  and  N_77 
REMARK       I    between atoms: N_80  and  C_78 
REMARK   36  A    between atoms: C_83  and  C_82 
REMARK   37  A    between atoms: C_84  and  C_83 
REMARK   38  A    between atoms: N_85  and  C_84 
REMARK       I    between atoms: C_86  and  N_85 
REMARK       I    between atoms: N_89  and  C_86 
REMARK   39  A    between atoms: C_95  and  N_94 
REMARK   40  A    between atoms: C_96  and  C_95 
REMARK       I    between atoms: N_99  and  C_96 
ROOT
HETATM    1  C   UNK N   1      28.801  16.150   4.697  0.00  0.00     0.180 C 
ENDROOT
BRANCH   1   2
HETATM    2  N   UNK N   1      29.739  15.268   4.043  0.00  0.00    -0.346 N 
HETATM    3  C   UNK N   1      30.406  14.214   4.617  0.00  0.00     0.243 C 
HETATM    4  O   UNK N   1      30.172  13.834   5.753  0.00  0.00    -0.271 OA
HETATM    5  H   UNK N   1      29.920  15.441   3.090  0.00  0.00     0.163 HD
BRANCH   3   6
HETATM    6  C   UNK N   1      31.285  13.393   3.757  0.00  0.00     0.200 C 
BRANCH   6   7
HETATM    7  N   UNK N   1      32.551  13.544   4.410  0.00  0.00    -0.344 N 
HETATM    8  C   UNK N   1      33.385  14.528   3.998  0.00  0.00     0.241 C 
HETATM    9  O   UNK N   1      33.324  14.956   2.852  0.00  0.00    -0.271 OA
HETATM   10  H   UNK N   1      32.809  12.941   5.144  0.00  0.00     0.163 HD
BRANCH   8  11
HETATM   11  C   UNK N   1      34.083  15.325   5.046  0.00  0.00     0.180 C 
BRANCH  11  12
HETATM   12  N   UNK N   1      35.403  14.903   5.461  0.00  0.00    -0.346 N 
HETATM   13  C   UNK N   1      35.744  14.499   6.708  0.00  0.00     0.241 C 
HETATM   14  O   UNK N   1      36.887  14.120   6.907  0.00  0.00    -0.271 OA
HETATM   15  H   UNK N   1      36.113  14.912   4.779  0.00  0.00     0.163 HD
BRANCH  13  16
HETATM   16  C   UNK N   1      34.732  14.445   7.827  0.00  0.00     0.180 C 
BRANCH  16  17
HETATM   17  N   UNK N   1      34.547  13.091   8.282  0.00  0.00    -0.346 N 
HETATM   18  C   UNK N   1      33.507  12.306   7.910  0.00  0.00     0.241 C 
HETATM   19  O   UNK N   1      32.657  12.706   7.127  0.00  0.00    -0.271 OA
HETATM   20  H   UNK N   1      35.214  12.714   8.899  0.00  0.00     0.163 HD
BRANCH  18  21
HETATM   21  C   UNK N   1      33.427  10.921   8.461  0.00  0.00     0.180 C 
BRANCH  21  22
HETATM   22  C   UNK N   1      34.828  10.325   8.692  0.00  0.00     0.073 C 
BRANCH  22  23
HETATM   23  C   UNK N   1      35.173  10.051  10.138  0.00  0.00    -0.055 A 
HETATM   24  C   UNK N   1      34.327  10.533  11.143  0.00  0.00     0.019 A 
HETATM   25  C   UNK N   1      34.582  10.229  12.484  0.00  0.00    -0.025 A 
HETATM   26  C   UNK N   1      33.743  10.717  13.489  0.00  0.00     0.012 A 
HETATM   27  C   UNK N   1      35.687   9.416  12.826  0.00  0.00    -0.026 A 
HETATM   28  C   UNK N   1      33.995  10.397  14.828  0.00  0.00     0.001 A 
HETATM   29  C   UNK N   1      35.082   9.582  15.163  0.00  0.00     0.001 A 
HETATM   30  C   UNK N   1      35.928   9.093  14.163  0.00  0.00     0.012 A 
HETATM   31  C   UNK N   1      36.537   8.943  11.825  0.00  0.00     0.013 A 
HETATM   32  C   UNK N   1      36.286   9.266  10.490  0.00  0.00     0.008 A 
ENDBRANCH  22  23
ENDBRANCH  21  22
BRANCH  21  33
HETATM   33  N   UNK N   1      32.663  10.088   7.554  0.00  0.00    -0.348 N 
HETATM   34  C   UNK N   1      31.838   9.091   7.976  0.00  0.00     0.214 C 
HETATM   35  O   UNK N   1      31.178   8.472   7.159  0.00  0.00    -0.274 OA
HETATM   36  C   UNK N   1      31.718   8.731   9.426  0.00  0.00     0.117 C 
HETATM   37  H   UNK N   1      32.746  10.250   6.586  0.00  0.00     0.163 HD
ENDBRANCH  21  33
ENDBRANCH  18  21
ENDBRANCH  16  17
BRANCH  16  38
HETATM   38  C   UNK N   1      35.040  15.379   9.002  0.00  0.00     0.073 C 
BRANCH  38  39
HETATM   39  C   UNK N   1      35.527  14.681  10.235  0.00  0.00    -0.056 A 
HETATM   40  C   UNK N   1      36.787  14.071  10.213  0.00  0.00     0.009 A 
HETATM   41  C   UNK N   1      37.259  13.386  11.337  0.00  0.00     0.024 A 
HETATM   42  C   UNK N   1      36.475  13.310  12.491  0.00  0.00     0.034 A 
HETATM   43  C   UNK N   1      35.209  13.905  12.516  0.00  0.00     0.024 A 
HETATM   44 Cl   UNK N   1      37.089  12.489  13.910  0.00  0.00    -0.084 Cl
HETATM   45  C   UNK N   1      34.729  14.579  11.386  0.00  0.00     0.009 A 
ENDBRANCH  38  39
ENDBRANCH  16  38
ENDBRANCH  13  16
ENDBRANCH  11  12
BRANCH  11  46
HETATM   46  C   UNK N   1      33.810  16.824   5.108  0.00  0.00     0.074 C 
BRANCH  46  47
HETATM   47  C   UNK N   1      33.054  17.217   6.345  0.00  0.00    -0.040 A 
HETATM   48  C   UNK N   1      33.680  18.015   7.302  0.00  0.00     0.094 A 
HETATM   49  N   UNK N   1      33.012  18.389   8.427  0.00  0.00    -0.375 N 
HETATM   50  C   UNK N   1      31.726  18.005   8.652  0.00  0.00     0.087 A 
ATOM     51  HN  UNK N   1      33.486  18.970   9.118  1.00  0.00     0.164 HD
HETATM   52  C   UNK N   1      31.058  17.213   7.719  0.00  0.00     0.018 A 
HETATM   53  C   UNK N   1      31.726  16.821   6.559  0.00  0.00     0.010 A 
ENDBRANCH  46  47
ENDBRANCH  11  46
ENDBRANCH   8  11
ENDBRANCH   6   7
BRANCH   6  54
HETATM   54  C   UNK N   1      30.802  11.951   3.792  0.00  0.00     0.199 C 
BRANCH  54  55
HETATM   55  O   UNK N   1      31.143  11.363   5.015  0.00  0.00    -0.398 OA
HETATM   56  H   UNK N   1      31.479  10.457   5.098  0.00  0.00     0.209 HD
ENDBRANCH  54  55
ENDBRANCH   6  54
ENDBRANCH   3   6
ENDBRANCH   1   2
BRANCH   1  57
HETATM   57  C   UNK N   1      27.452  15.582   4.530  0.00  0.00     0.241 C 
HETATM   58  N   UNK N   1      27.097  14.603   5.392  0.00  0.00    -0.346 N 
HETATM   59  H   UNK N   1      27.621  14.543   6.223  0.00  0.00     0.163 HD
HETATM   60  O   UNK N   1      26.736  15.932   3.604  0.00  0.00    -0.271 OA
BRANCH  58  61
HETATM   61  C   UNK N   1      26.057  13.654   5.240  0.00  0.00     0.176 C 
BRANCH  61  62
HETATM   62  C   UNK N   1      25.254  13.729   6.475  0.00  0.00     0.241 C 
HETATM   63  N   UNK N   1      24.212  12.885   6.591  0.00  0.00    -0.346 N 
HETATM   64  H   UNK N   1      24.325  11.920   6.425  0.00  0.00     0.163 HD
HETATM   65  O   UNK N   1      25.427  14.634   7.276  0.00  0.00    -0.271 OA
BRANCH  63  66
HETATM   66  C   UNK N   1      22.954  13.409   6.957  0.00  0.00     0.177 C 
BRANCH  66  67
HETATM   67  C   UNK N   1      22.121  13.342   5.714  0.00  0.00     0.241 C 
HETATM   68  N   UNK N   1      20.776  13.522   5.775  0.00  0.00    -0.346 N 
HETATM   69  H   UNK N   1      20.280  13.203   6.563  0.00  0.00     0.163 HD
HETATM   70  O   UNK N   1      22.690  13.286   4.633  0.00  0.00    -0.271 OA
BRANCH  68  71
HETATM   71  C   UNK N   1      20.062  14.176   4.702  0.00  0.00     0.176 C 
BRANCH  71  72
HETATM   72  C   UNK N   1      19.196  13.114   4.069  0.00  0.00     0.243 C 
HETATM   73  N   UNK N   1      18.929  13.088   2.749  0.00  0.00    -0.337 N 
HETATM   74  C   UNK N   1      18.209  12.002   2.159  0.00  0.00     0.179 A 
HETATM   75  C   UNK N   1      19.377  14.104   1.838  0.00  0.00     0.127 A 
HETATM   76  C   UNK N   1      18.068  12.365   0.697  0.00  0.00     0.037 A 
HETATM   77  C   UNK N   1      18.900  13.631   0.476  0.00  0.00     0.022 A 
HETATM   78  O   UNK N   1      18.759  12.194   4.765  0.00  0.00    -0.271 OA
BRANCH  74  79
HETATM   79  C   UNK N   1      18.982  10.716   2.329  0.00  0.00     0.241 C 
HETATM   80  O   UNK N   1      18.484   9.785   2.950  0.00  0.00    -0.271 OA
HETATM   81  N   UNK N   1      20.212  10.590   1.772  0.00  0.00    -0.346 N 
HETATM   82  H   UNK N   1      20.557  11.317   1.204  0.00  0.00     0.163 HD
BRANCH  81  83
HETATM   83  C   UNK N   1      21.032   9.419   1.990  0.00  0.00     0.172 C 
HETATM   84  C   UNK N   1      21.302   8.724   0.662  0.00  0.00     0.042 C 
BRANCH  83  85
HETATM   85  C   UNK N   1      22.307   9.829   2.688  0.00  0.00     0.237 C 
HETATM   86  O   UNK N   1      23.376   9.699   2.114  0.00  0.00    -0.271 OA
HETATM   87  N   UNK N   1      22.286  10.319   3.944  0.00  0.00    -0.368 N 
HETATM   88  H   UNK N   1      21.500  10.656   4.431  0.00  0.00     0.159 HD
HETATM   89  H   UNK N   1      23.146  10.341   4.425  0.00  0.00     0.159 HD
ENDBRANCH  83  85
ENDBRANCH  81  83
ENDBRANCH  74  79
ENDBRANCH  71  72
BRANCH  71  90
HETATM   90  C   UNK N   1      19.189  15.348   5.152  0.00  0.00     0.036 C 
BRANCH  90  91
HETATM   91  C   UNK N   1      19.965  16.482   5.794  0.00  0.00     0.023 C 
BRANCH  91  92
HETATM   92  C   UNK N   1      21.036  16.954   4.817  0.00  0.00     0.138 C 
BRANCH  92  93
HETATM   93  N   UNK N   1      22.270  17.212   5.521  0.00  0.00    -0.227 N 
HETATM   94  C   UNK N   1      23.530  16.805   5.013  0.00  0.00     0.665 C 
HETATM   95  N   UNK N   1      23.608  16.105   3.942  0.00  0.00    -0.235 N 
HETATM   96  N   UNK N   1      24.710  17.219   5.667  0.00  0.00    -0.235 N 
HETATM   97  H   UNK N   1      24.278  15.687   3.355  0.00  0.00     0.174 HD
ATOM     98  HN  UNK N   1      22.672  15.921   3.581  1.00  0.00     0.174 HD
HETATM   99  H   UNK N   1      24.823  18.156   5.947  0.00  0.00     0.174 HD
HETATM  100  H   UNK N   1      25.425  16.567   5.843  0.00  0.00     0.174 HD
HETATM  101  H   UNK N   1      22.236  17.687   6.383  0.00  0.00     0.177 HD
ENDBRANCH  92  93
ENDBRANCH  91  92
ENDBRANCH  90  91
ENDBRANCH  71  90
ENDBRANCH  68  71
ENDBRANCH  66  67
BRANCH  66 102
HETATM  102  C   UNK N   1      22.322  12.659   8.120  0.00  0.00     0.038 C 
BRANCH 102 103
HETATM  103  C   UNK N   1      22.240  13.558   9.348  0.00  0.00    -0.020 C 
HETATM  104  C   UNK N   1      20.929  14.326   9.407  0.00  0.00     0.009 C 
HETATM  105  C   UNK N   1      22.358  12.706  10.592  0.00  0.00     0.009 C 
ENDBRANCH 102 103
ENDBRANCH  66 102
ENDBRANCH  63  66
ENDBRANCH  61  62
BRANCH  61 106
HETATM  106  C   UNK N   1      26.598  12.240   5.010  0.00  0.00     0.036 C 
BRANCH 106 107
HETATM  107  C   UNK N   1      25.819  11.536   3.918  0.00  0.00     0.022 C 
BRANCH 107 108
HETATM  108  C   UNK N   1      25.878  12.344   2.631  0.00  0.00     0.124 C 
BRANCH 108 109
HETATM  109  N   UNK N   1      24.578  12.442   2.005  0.00  0.00    -0.343 N 
HETATM  110  C   UNK N   1      24.129  13.585   1.429  0.00  0.00     0.313 C 
HETATM  111  O   UNK N   1      24.811  14.598   1.440  0.00  0.00    -0.248 OA
HETATM  112  N   UNK N   1      22.925  13.601   0.826  0.00  0.00    -0.352 N 
HETATM  113  H   UNK N   1      22.187  13.055   1.182  0.00  0.00     0.160 HD
HETATM  114  H   UNK N   1      22.782  14.160   0.029  0.00  0.00     0.160 HD
HETATM  115  H   UNK N   1      23.996  11.647   1.996  0.00  0.00     0.164 HD
ENDBRANCH 108 109
ENDBRANCH 107 108
ENDBRANCH 106 107
ENDBRANCH  61 106
ENDBRANCH  58  61
ENDBRANCH   1  57
BRANCH   1 116
HETATM  116  C   UNK N   1      28.832  17.554   4.064  0.00  0.00     0.073 C 
BRANCH 116 117
HETATM  117  C   UNK N   1      28.181  18.662   4.859  0.00  0.00    -0.056 A 
HETATM  118  C   UNK N   1      27.541  19.701   4.169  0.00  0.00     0.010 A 
HETATM  119  C   UNK N   1      26.941  20.753   4.870  0.00  0.00     0.037 A 
HETATM  120  C   UNK N   1      26.985  20.779   6.265  0.00  0.00     0.065 A 
HETATM  121  C   UNK N   1      27.624  19.748   6.962  0.00  0.00     0.037 A 
HETATM  122  C   UNK N   1      28.218  18.692   6.262  0.00  0.00     0.010 A 
BRANCH 120 123
HETATM  123  O   UNK N   1      26.413  21.792   6.938  0.00  0.00    -0.361 OA
HETATM  124  H   UNK N   1      26.499  21.848   7.869  0.00  0.00     0.217 HD
ENDBRANCH 120 123
ENDBRANCH 116 117
ENDBRANCH   1 116
TORSDOF 40
ENDMDL
MODEL 4
REMARK VINA RESULT:      -8.4      2.876      6.428
REMARK WARNING: 32 MAX_TORS EXCEEDED!!!
REMARK  40 active torsions:
REMARK  status: ('A' for Active; 'I' for Inactive)
REMARK    1  A    between atoms: C_13  and  C_8 
REMARK    2  A    between atoms: C_13  and  C_11 
REMARK    3  A    between atoms: C_15  and  C_11 
REMARK    4  A    between atoms: C_11  and  N_12 
REMARK       I    between atoms: C_102  and  N_12 
REMARK       I    between atoms: C_15  and  N_14 
REMARK    5  A    between atoms: C_16  and  N_14 
REMARK    6  A    between atoms: C_16  and  C_19 
REMARK    7  A    between atoms: C_17  and  C_16 
REMARK       I    between atoms: N_21  and  C_17 
REMARK    8  A    between atoms: C_20  and  C_19 
REMARK    9  A    between atoms: C_27  and  N_21 
REMARK   10  A    between atoms: C_29  and  C_27 
REMARK   11  A    between atoms: C_27  and  C_28 
REMARK   12  A    between atoms: C_31  and  C_28 
REMARK       I    between atoms: N_30  and  C_29 
REMARK   13  A    between atoms: C_38  and  N_30 
REMARK   14  A    between atoms: C_39  and  C_38 
REMARK   15  A    between atoms: C_38  and  C_50 
REMARK       I    between atoms: N_41  and  C_39 
REMARK   16  A    between atoms: C_42  and  N_41 
REMARK   17  A    between atoms: C_44  and  C_42 
REMARK   18  A    between atoms: C_42  and  C_43 
REMARK   19  A    between atoms: C_46  and  C_43 
REMARK       I    between atoms: N_45  and  C_44 
REMARK   20  A    between atoms: C_59  and  N_45 
REMARK   21  A    between atoms: O_51  and  C_50 
REMARK   22  A    between atoms: O_58  and  C_54 
REMARK   23  A    between atoms: C_60  and  C_59 
REMARK   24  A    between atoms: C_59  and  C_74 
REMARK       I    between atoms: N_62  and  C_60 
REMARK   25  A    between atoms: C_63  and  N_62 
REMARK   26  A    between atoms: C_65  and  C_63 
REMARK   27  A    between atoms: C_63  and  C_64 
REMARK   28  A    between atoms: C_73  and  C_64 
REMARK       I    between atoms: N_66  and  C_65 
REMARK   29  A    between atoms: C_67  and  N_66 
REMARK   30  A    between atoms: C_68  and  C_67 
REMARK   31  A    between atoms: C_67  and  C_82 
REMARK       I    between atoms: N_70  and  C_68 
REMARK   32  A    between atoms: C_90  and  C_72 
REMARK       I    between atoms: N_94  and  C_72 
REMARK   33  A    between atoms: C_75  and  C_74 
REMARK   34  A    between atoms: C_76  and  C_75 
REMARK   35  A    between atoms: N_77  and  C_76 
REMARK       I    between atoms: C_78  and  N_77 
REMARK       I    between atoms: N_80  and  C_78 
REMARK   36  A    between atoms: C_83  and  C_82 
REMARK   37  A    between atoms: C_84  and  C_83 
REMARK   38  A    between atoms: N_85  and  C_84 
REMARK       I    between atoms: C_86  and  N_85 
REMARK       I    between atoms: N_89  and  C_86 
REMARK   39  A    between atoms: C_95  and  N_94 
REMARK   40  A    between atoms: C_96  and  C_95 
REMARK       I    between atoms: N_99  and  C_96 
ROOT
HETATM    1  C   UNK N   1      28.134  12.925   4.303  0.00  0.00     0.180 C 
ENDROOT
BRANCH   1   2
HETATM    2  N   UNK N   1      29.201  12.032   4.691  0.00  0.00    -0.346 N 
HETATM    3  C   UNK N   1      30.186  11.534   3.875  0.00  0.00     0.243 C 
HETATM    4  O   UNK N   1      30.329  11.904   2.721  0.00  0.00    -0.271 OA
HETATM    5  H   UNK N   1      29.224  11.752   5.635  0.00  0.00     0.163 HD
BRANCH   3   6
HETATM    6  C   UNK N   1      31.227  10.676   4.482  0.00  0.00     0.200 C 
BRANCH   6   7
HETATM    7  N   UNK N   1      31.626  11.460   5.611  0.00  0.00    -0.344 N 
HETATM    8  C   UNK N   1      32.893  11.938   5.659  0.00  0.00     0.241 C 
HETATM    9  O   UNK N   1      33.797  11.365   5.063  0.00  0.00    -0.271 OA
HETATM   10  H   UNK N   1      30.992  11.648   6.340  0.00  0.00     0.163 HD
BRANCH   8  11
HETATM   11  C   UNK N   1      33.083  13.347   6.108  0.00  0.00     0.180 C 
BRANCH  11  12
HETATM   12  N   UNK N   1      34.379  13.959   5.914  0.00  0.00    -0.346 N 
HETATM   13  C   UNK N   1      34.990  14.800   6.782  0.00  0.00     0.241 C 
HETATM   14  O   UNK N   1      36.110  15.204   6.514  0.00  0.00    -0.271 OA
HETATM   15  H   UNK N   1      34.858  13.745   5.080  0.00  0.00     0.163 HD
BRANCH  13  16
HETATM   16  C   UNK N   1      34.347  15.190   8.091  0.00  0.00     0.180 C 
BRANCH  16  17
HETATM   17  N   UNK N   1      35.096  14.665   9.204  0.00  0.00    -0.346 N 
HETATM   18  C   UNK N   1      34.758  13.538   9.876  0.00  0.00     0.241 C 
HETATM   19  O   UNK N   1      33.785  12.873   9.552  0.00  0.00    -0.271 OA
HETATM   20  H   UNK N   1      35.900  15.153   9.492  0.00  0.00     0.163 HD
BRANCH  18  21
HETATM   21  C   UNK N   1      35.616  13.106  11.019  0.00  0.00     0.180 C 
BRANCH  21  22
HETATM   22  C   UNK N   1      35.073  13.630  12.361  0.00  0.00     0.073 C 
BRANCH  22  23
HETATM   23  C   UNK N   1      35.014  12.603  13.469  0.00  0.00    -0.055 A 
HETATM   24  C   UNK N   1      35.285  13.004  14.783  0.00  0.00     0.019 A 
HETATM   25  C   UNK N   1      35.164  12.091  15.837  0.00  0.00    -0.025 A 
HETATM   26  C   UNK N   1      35.443  12.486  17.147  0.00  0.00     0.012 A 
HETATM   27  C   UNK N   1      34.748  10.764  15.577  0.00  0.00    -0.026 A 
HETATM   28  C   UNK N   1      35.305  11.573  18.198  0.00  0.00     0.001 A 
HETATM   29  C   UNK N   1      34.881  10.264  17.940  0.00  0.00     0.001 A 
HETATM   30  C   UNK N   1      34.604   9.860  16.631  0.00  0.00     0.012 A 
HETATM   31  C   UNK N   1      34.487  10.362  14.266  0.00  0.00     0.013 A 
HETATM   32  C   UNK N   1      34.628  11.274  13.218  0.00  0.00     0.008 A 
ENDBRANCH  22  23
ENDBRANCH  21  22
BRANCH  21  33
HETATM   33  N   UNK N   1      36.971  13.571  10.802  0.00  0.00    -0.348 N 
HETATM   34  C   UNK N   1      38.042  12.733  10.726  0.00  0.00     0.214 C 
HETATM   35  O   UNK N   1      39.144  13.189  10.479  0.00  0.00    -0.274 OA
HETATM   36  C   UNK N   1      37.901  11.256  10.938  0.00  0.00     0.117 C 
HETATM   37  H   UNK N   1      37.126  14.539  10.707  0.00  0.00     0.163 HD
ENDBRANCH  21  33
ENDBRANCH  18  21
ENDBRANCH  16  17
BRANCH  16  38
HETATM   38  C   UNK N   1      34.109  16.695   8.253  0.00  0.00     0.073 C 
BRANCH  38  39
HETATM   39  C   UNK N   1      32.695  17.065   8.584  0.00  0.00    -0.056 A 
HETATM   40  C   UNK N   1      31.809  16.058   8.984  0.00  0.00     0.009 A 
HETATM   41  C   UNK N   1      30.475  16.364   9.271  0.00  0.00     0.024 A 
HETATM   42  C   UNK N   1      30.020  17.681   9.163  0.00  0.00     0.034 A 
HETATM   43  C   UNK N   1      30.897  18.691   8.750  0.00  0.00     0.024 A 
HETATM   44 Cl   UNK N   1      28.361  18.066   9.566  0.00  0.00    -0.084 Cl
HETATM   45  C   UNK N   1      32.229  18.382   8.448  0.00  0.00     0.009 A 
ENDBRANCH  38  39
ENDBRANCH  16  38
ENDBRANCH  13  16
ENDBRANCH  11  12
BRANCH  11  46
HETATM   46  C   UNK N   1      31.884  14.287   6.045  0.00  0.00     0.074 C 
BRANCH  46  47
HETATM   47  C   UNK N   1      32.011  15.304   4.949  0.00  0.00    -0.040 A 
HETATM   48  C   UNK N   1      32.203  14.873   3.636  0.00  0.00     0.094 A 
HETATM   49  N   UNK N   1      32.315  15.777   2.626  0.00  0.00    -0.375 N 
HETATM   50  C   UNK N   1      32.240  17.117   2.857  0.00  0.00     0.087 A 
ATOM     51  HN  UNK N   1      32.458  15.444   1.673  1.00  0.00     0.164 HD
HETATM   52  C   UNK N   1      32.042  17.594   4.153  0.00  0.00     0.018 A 
HETATM   53  C   UNK N   1      31.924  16.681   5.201  0.00  0.00     0.010 A 
ENDBRANCH  46  47
ENDBRANCH  11  46
ENDBRANCH   8  11
ENDBRANCH   6   7
BRANCH   6  54
HETATM   54  C   UNK N   1      30.594   9.359   4.908  0.00  0.00     0.199 C 
BRANCH  54  55
HETATM   55  O   UNK N   1      30.087   9.471   6.207  0.00  0.00    -0.398 OA
HETATM   56  H   UNK N   1      29.361   8.926   6.547  0.00  0.00     0.209 HD
ENDBRANCH  54  55
ENDBRANCH   6  54
ENDBRANCH   3   6
ENDBRANCH   1   2
BRANCH   1  57
HETATM   57  C   UNK N   1      27.243  12.194   3.385  0.00  0.00     0.241 C 
HETATM   58  N   UNK N   1      26.655  11.078   3.873  0.00  0.00    -0.346 N 
HETATM   59  H   UNK N   1      26.626  10.994   4.853  0.00  0.00     0.163 HD
HETATM   60  O   UNK N   1      27.116  12.546   2.222  0.00  0.00    -0.271 OA
BRANCH  58  61
HETATM   61  C   UNK N   1      26.077  10.016   3.137  0.00  0.00     0.176 C 
BRANCH  61  62
HETATM   62  C   UNK N   1      25.204   9.295   4.083  0.00  0.00     0.241 C 
HETATM   63  N   UNK N   1      23.959   9.772   4.267  0.00  0.00    -0.346 N 
HETATM   64  H   UNK N   1      23.379   9.975   3.496  0.00  0.00     0.163 HD
HETATM   65  O   UNK N   1      25.653   8.408   4.793  0.00  0.00    -0.271 OA
BRANCH  63  66
HETATM   66  C   UNK N   1      23.500   9.976   5.586  0.00  0.00     0.177 C 
BRANCH  66  67
HETATM   67  C   UNK N   1      23.552  11.458   5.798  0.00  0.00     0.241 C 
HETATM   68  N   UNK N   1      22.422  12.207   5.713  0.00  0.00    -0.346 N 
HETATM   69  H   UNK N   1      21.722  11.955   5.067  0.00  0.00     0.163 HD
HETATM   70  O   UNK N   1      24.593  11.952   6.206  0.00  0.00    -0.271 OA
BRANCH  68  71
HETATM   71  C   UNK N   1      22.229  13.364   6.557  0.00  0.00     0.176 C 
BRANCH  71  72
HETATM   72  C   UNK N   1      21.853  14.496   5.631  0.00  0.00     0.243 C 
HETATM   73  N   UNK N   1      22.747  15.408   5.200  0.00  0.00    -0.337 N 
HETATM   74  C   UNK N   1      22.390  16.395   4.228  0.00  0.00     0.179 A 
HETATM   75  C   UNK N   1      24.114  15.433   5.639  0.00  0.00     0.127 A 
HETATM   76  C   UNK N   1      23.627  17.248   4.054  0.00  0.00     0.037 A 
HETATM   77  C   UNK N   1      24.742  16.574   4.856  0.00  0.00     0.022 A 
HETATM   78  O   UNK N   1      20.701  14.566   5.196  0.00  0.00    -0.271 OA
BRANCH  74  79
HETATM   79  C   UNK N   1      22.002  15.725   2.931  0.00  0.00     0.241 C 
HETATM   80  O   UNK N   1      22.808  15.005   2.355  0.00  0.00    -0.271 OA
HETATM   81  N   UNK N   1      20.757  15.905   2.425  0.00  0.00    -0.346 N 
HETATM   82  H   UNK N   1      20.097  16.417   2.947  0.00  0.00     0.163 HD
BRANCH  81  83
HETATM   83  C   UNK N   1      20.371  15.368   1.139  0.00  0.00     0.172 C 
HETATM   84  C   UNK N   1      19.504  14.133   1.335  0.00  0.00     0.042 C 
BRANCH  83  85
HETATM   85  C   UNK N   1      19.664  16.441   0.345  0.00  0.00     0.237 C 
HETATM   86  O   UNK N   1      18.712  16.142  -0.355  0.00  0.00    -0.271 OA
HETATM   87  N   UNK N   1      20.082  17.723   0.382  0.00  0.00    -0.368 N 
HETATM   88  H   UNK N   1      20.691  18.125   1.043  0.00  0.00     0.159 HD
HETATM   89  H   UNK N   1      19.743  18.318  -0.326  0.00  0.00     0.159 HD
ENDBRANCH  83  85
ENDBRANCH  81  83
ENDBRANCH  74  79
ENDBRANCH  71  72
BRANCH  71  90
HETATM   90  C   UNK N   1      21.146  13.192   7.622  0.00  0.00     0.036 C 
BRANCH  90  91
HETATM   91  C   UNK N   1      21.460  13.884   8.934  0.00  0.00     0.023 C 
BRANCH  91  92
HETATM   92  C   UNK N   1      21.727  12.822   9.995  0.00  0.00     0.138 C 
BRANCH  92  93
HETATM   93  N   UNK N   1      22.975  13.096  10.668  0.00  0.00    -0.227 N 
HETATM   94  C   UNK N   1      24.215  12.599  10.193  0.00  0.00     0.665 C 
HETATM   95  N   UNK N   1      24.260  11.805   9.188  0.00  0.00    -0.235 N 
HETATM   96  N   UNK N   1      25.414  13.026  10.803  0.00  0.00    -0.235 N 
HETATM   97  H   UNK N   1      24.910  11.312   8.638  0.00  0.00     0.174 HD
ATOM     98  HN  UNK N   1      23.316  11.624   8.848  1.00  0.00     0.174 HD
HETATM   99  H   UNK N   1      25.562  13.979  10.998  0.00  0.00     0.174 HD
HETATM  100  H   UNK N   1      26.106  12.366  11.033  0.00  0.00     0.174 HD
HETATM  101  H   UNK N   1      22.964  13.646  11.485  0.00  0.00     0.177 HD
ENDBRANCH  92  93
ENDBRANCH  91  92
ENDBRANCH  90  91
ENDBRANCH  71  90
ENDBRANCH  68  71
ENDBRANCH  66  67
BRANCH  66 102
HETATM  102  C   UNK N   1      22.109   9.405   5.817  0.00  0.00     0.038 C 
BRANCH 102 103
HETATM  103  C   UNK N   1      21.980   8.039   5.155  0.00  0.00    -0.020 C 
HETATM  104  C   UNK N   1      22.317   6.906   6.112  0.00  0.00     0.009 C 
HETATM  105  C   UNK N   1      20.559   7.856   4.671  0.00  0.00     0.009 C 
ENDBRANCH 102 103
ENDBRANCH  66 102
ENDBRANCH  63  66
ENDBRANCH  61  62
BRANCH  61 106
HETATM  106  C   UNK N   1      27.137   9.088   2.536  0.00  0.00     0.036 C 
BRANCH 106 107
HETATM  107  C   UNK N   1      26.614   8.409   1.287  0.00  0.00     0.022 C 
BRANCH 107 108
HETATM  108  C   UNK N   1      27.505   8.741   0.100  0.00  0.00     0.124 C 
BRANCH 108 109
HETATM  109  N   UNK N   1      28.039  10.081   0.194  0.00  0.00    -0.343 N 
HETATM  110  C   UNK N   1      29.283  10.404  -0.240  0.00  0.00     0.313 C 
HETATM  111  O   UNK N   1      30.019   9.551  -0.714  0.00  0.00    -0.248 OA
HETATM  112  N   UNK N   1      29.708  11.679  -0.162  0.00  0.00    -0.352 N 
HETATM  113  H   UNK N   1      29.421  12.250   0.586  0.00  0.00     0.160 HD
HETATM  114  H   UNK N   1      30.307  12.040  -0.855  0.00  0.00     0.160 HD
HETATM  115  H   UNK N   1      27.478  10.788   0.589  0.00  0.00     0.164 HD
ENDBRANCH 108 109
ENDBRANCH 107 108
ENDBRANCH 106 107
ENDBRANCH  61 106
ENDBRANCH  58  61
ENDBRANCH   1  57
BRANCH   1 116
HETATM  116  C   UNK N   1      28.690  14.164   3.575  0.00  0.00     0.073 C 
BRANCH 116 117
HETATM  117  C   UNK N   1      28.494  15.492   4.269  0.00  0.00    -0.056 A 
HETATM  118  C   UNK N   1      28.454  16.658   3.493  0.00  0.00     0.010 A 
HETATM  119  C   UNK N   1      28.291  17.908   4.101  0.00  0.00     0.037 A 
HETATM  120  C   UNK N   1      28.175  18.002   5.489  0.00  0.00     0.065 A 
HETATM  121  C   UNK N   1      28.217  16.843   6.272  0.00  0.00     0.037 A 
HETATM  122  C   UNK N   1      28.373  15.592   5.664  0.00  0.00     0.010 A 
BRANCH 120 123
HETATM  123  O   UNK N   1      28.023  19.203   6.073  0.00  0.00    -0.361 OA
HETATM  124  H   UNK N   1      28.637  19.890   5.904  0.00  0.00     0.217 HD
ENDBRANCH 120 123
ENDBRANCH 116 117
ENDBRANCH   1 116
TORSDOF 40
ENDMDL
MODEL 5
REMARK VINA RESULT:      -8.4      2.762      6.067
REMARK WARNING: 32 MAX_TORS EXCEEDED!!!
REMARK  40 active torsions:
REMARK  status: ('A' for Active; 'I' for Inactive)
REMARK    1  A    between atoms: C_13  and  C_8 
REMARK    2  A    between atoms: C_13  and  C_11 
REMARK    3  A    between atoms: C_15  and  C_11 
REMARK    4  A    between atoms: C_11  and  N_12 
REMARK       I    between atoms: C_102  and  N_12 
REMARK       I    between atoms: C_15  and  N_14 
REMARK    5  A    between atoms: C_16  and  N_14 
REMARK    6  A    between atoms: C_16  and  C_19 
REMARK    7  A    between atoms: C_17  and  C_16 
REMARK       I    between atoms: N_21  and  C_17 
REMARK    8  A    between atoms: C_20  and  C_19 
REMARK    9  A    between atoms: C_27  and  N_21 
REMARK   10  A    between atoms: C_29  and  C_27 
REMARK   11  A    between atoms: C_27  and  C_28 
REMARK   12  A    between atoms: C_31  and  C_28 
REMARK       I    between atoms: N_30  and  C_29 
REMARK   13  A    between atoms: C_38  and  N_30 
REMARK   14  A    between atoms: C_39  and  C_38 
REMARK   15  A    between atoms: C_38  and  C_50 
REMARK       I    between atoms: N_41  and  C_39 
REMARK   16  A    between atoms: C_42  and  N_41 
REMARK   17  A    between atoms: C_44  and  C_42 
REMARK   18  A    between atoms: C_42  and  C_43 
REMARK   19  A    between atoms: C_46  and  C_43 
REMARK       I    between atoms: N_45  and  C_44 
REMARK   20  A    between atoms: C_59  and  N_45 
REMARK   21  A    between atoms: O_51  and  C_50 
REMARK   22  A    between atoms: O_58  and  C_54 
REMARK   23  A    between atoms: C_60  and  C_59 
REMARK   24  A    between atoms: C_59  and  C_74 
REMARK       I    between atoms: N_62  and  C_60 
REMARK   25  A    between atoms: C_63  and  N_62 
REMARK   26  A    between atoms: C_65  and  C_63 
REMARK   27  A    between atoms: C_63  and  C_64 
REMARK   28  A    between atoms: C_73  and  C_64 
REMARK       I    between atoms: N_66  and  C_65 
REMARK   29  A    between atoms: C_67  and  N_66 
REMARK   30  A    between atoms: C_68  and  C_67 
REMARK   31  A    between atoms: C_67  and  C_82 
REMARK       I    between atoms: N_70  and  C_68 
REMARK   32  A    between atoms: C_90  and  C_72 
REMARK       I    between atoms: N_94  and  C_72 
REMARK   33  A    between atoms: C_75  and  C_74 
REMARK   34  A    between atoms: C_76  and  C_75 
REMARK   35  A    between atoms: N_77  and  C_76 
REMARK       I    between atoms: C_78  and  N_77 
REMARK       I    between atoms: N_80  and  C_78 
REMARK   36  A    between atoms: C_83  and  C_82 
REMARK   37  A    between atoms: C_84  and  C_83 
REMARK   38  A    between atoms: N_85  and  C_84 
REMARK       I    between atoms: C_86  and  N_85 
REMARK       I    between atoms: N_89  and  C_86 
REMARK   39  A    between atoms: C_95  and  N_94 
REMARK   40  A    between atoms: C_96  and  C_95 
REMARK       I    between atoms: N_99  and  C_96 
ROOT
HETATM    1  C   UNK N   1      28.422  13.197   3.523  0.00  0.00     0.180 C 
ENDROOT
BRANCH   1   2
HETATM    2  N   UNK N   1      29.229  12.150   4.107  0.00  0.00    -0.346 N 
HETATM    3  C   UNK N   1      30.401  11.644   3.601  0.00  0.00     0.243 C 
HETATM    4  O   UNK N   1      30.957  12.130   2.629  0.00  0.00    -0.271 OA
HETATM    5  H   UNK N   1      28.906  11.761   4.952  0.00  0.00     0.163 HD
BRANCH   3   6
HETATM    6  C   UNK N   1      31.110  10.609   4.385  0.00  0.00     0.200 C 
BRANCH   6   7
HETATM    7  N   UNK N   1      31.573  11.365   5.509  0.00  0.00    -0.344 N 
HETATM    8  C   UNK N   1      32.888  11.685   5.584  0.00  0.00     0.241 C 
HETATM    9  O   UNK N   1      33.729  10.991   5.026  0.00  0.00    -0.271 OA
HETATM   10  H   UNK N   1      30.948  11.646   6.216  0.00  0.00     0.163 HD
BRANCH   8  11
HETATM   11  C   UNK N   1      33.238  13.070   6.010  0.00  0.00     0.180 C 
BRANCH  11  12
HETATM   12  N   UNK N   1      34.596  13.525   5.810  0.00  0.00    -0.346 N 
HETATM   13  C   UNK N   1      35.334  14.220   6.708  0.00  0.00     0.241 C 
HETATM   14  O   UNK N   1      36.488  14.497   6.427  0.00  0.00    -0.271 OA
HETATM   15  H   UNK N   1      35.020  13.312   4.946  0.00  0.00     0.163 HD
BRANCH  13  16
HETATM   16  C   UNK N   1      34.782  14.596   8.062  0.00  0.00     0.180 C 
BRANCH  16  17
HETATM   17  N   UNK N   1      35.593  14.039   9.115  0.00  0.00    -0.346 N 
HETATM   18  C   UNK N   1      35.257  12.933   9.821  0.00  0.00     0.241 C 
HETATM   19  O   UNK N   1      34.230  12.314   9.581  0.00  0.00    -0.271 OA
HETATM   20  H   UNK N   1      36.440  14.490   9.335  0.00  0.00     0.163 HD
BRANCH  18  21
HETATM   21  C   UNK N   1      36.182  12.463  10.894  0.00  0.00     0.180 C 
BRANCH  21  22
HETATM   22  C   UNK N   1      36.580  13.614  11.837  0.00  0.00     0.073 C 
BRANCH  22  23
HETATM   23  C   UNK N   1      36.170  13.425  13.280  0.00  0.00    -0.055 A 
HETATM   24  C   UNK N   1      36.668  14.304  14.249  0.00  0.00     0.019 A 
HETATM   25  C   UNK N   1      36.245  14.199  15.579  0.00  0.00    -0.025 A 
HETATM   26  C   UNK N   1      36.748  15.069  16.549  0.00  0.00     0.012 A 
HETATM   27  C   UNK N   1      35.298  13.214  15.942  0.00  0.00    -0.026 A 
HETATM   28  C   UNK N   1      36.310  14.968  17.874  0.00  0.00     0.001 A 
HETATM   29  C   UNK N   1      35.363  14.001  18.229  0.00  0.00     0.001 A 
HETATM   30  C   UNK N   1      34.858  13.124  17.265  0.00  0.00     0.012 A 
HETATM   31  C   UNK N   1      34.809  12.331  14.978  0.00  0.00     0.013 A 
HETATM   32  C   UNK N   1      35.249  12.431  13.657  0.00  0.00     0.008 A 
ENDBRANCH  22  23
ENDBRANCH  21  22
BRANCH  21  33
HETATM   33  N   UNK N   1      37.358  11.874  10.287  0.00  0.00    -0.348 N 
HETATM   34  C   UNK N   1      37.709  10.569  10.459  0.00  0.00     0.214 C 
HETATM   35  O   UNK N   1      38.677  10.126   9.867  0.00  0.00    -0.274 OA
HETATM   36  C   UNK N   1      36.933   9.659  11.361  0.00  0.00     0.117 C 
HETATM   37  H   UNK N   1      37.932  12.443   9.725  0.00  0.00     0.163 HD
ENDBRANCH  21  33
ENDBRANCH  18  21
ENDBRANCH  16  17
BRANCH  16  38
HETATM   38  C   UNK N   1      34.580  16.101   8.265  0.00  0.00     0.073 C 
BRANCH  38  39
HETATM   39  C   UNK N   1      33.173  16.497   8.597  0.00  0.00    -0.056 A 
HETATM   40  C   UNK N   1      32.301  15.528   9.106  0.00  0.00     0.009 A 
HETATM   41  C   UNK N   1      30.974  15.856   9.398  0.00  0.00     0.024 A 
HETATM   42  C   UNK N   1      30.512  17.157   9.186  0.00  0.00     0.034 A 
HETATM   43  C   UNK N   1      31.374  18.129   8.665  0.00  0.00     0.024 A 
HETATM   44 Cl   UNK N   1      28.861  17.574   9.595  0.00  0.00    -0.084 Cl
HETATM   45  C   UNK N   1      32.700  17.797   8.358  0.00  0.00     0.009 A 
ENDBRANCH  38  39
ENDBRANCH  16  38
ENDBRANCH  13  16
ENDBRANCH  11  12
BRANCH  11  46
HETATM   46  C   UNK N   1      32.155  14.140   5.929  0.00  0.00     0.074 C 
BRANCH  46  47
HETATM   47  C   UNK N   1      32.446  15.170   4.876  0.00  0.00    -0.040 A 
HETATM   48  C   UNK N   1      32.691  14.757   3.566  0.00  0.00     0.094 A 
HETATM   49  N   UNK N   1      32.951  15.674   2.595  0.00  0.00    -0.375 N 
HETATM   50  C   UNK N   1      32.977  17.008   2.863  0.00  0.00     0.087 A 
ATOM     51  HN  UNK N   1      33.130  15.353   1.643  1.00  0.00     0.164 HD
HETATM   52  C   UNK N   1      32.731  17.467   4.157  0.00  0.00     0.018 A 
HETATM   53  C   UNK N   1      32.463  16.542   5.165  0.00  0.00     0.010 A 
ENDBRANCH  46  47
ENDBRANCH  11  46
ENDBRANCH   8  11
ENDBRANCH   6   7
BRANCH   6  54
HETATM   54  C   UNK N   1      30.114   9.537   4.801  0.00  0.00     0.199 C 
BRANCH  54  55
HETATM   55  O   UNK N   1      30.004   9.502   6.195  0.00  0.00    -0.398 OA
HETATM   56  H   UNK N   1      30.360   8.786   6.742  0.00  0.00     0.209 HD
ENDBRANCH  54  55
ENDBRANCH   6  54
ENDBRANCH   3   6
ENDBRANCH   1   2
BRANCH   1  57
HETATM   57  C   UNK N   1      27.878  12.692   2.251  0.00  0.00     0.241 C 
HETATM   58  N   UNK N   1      26.929  11.732   2.336  0.00  0.00    -0.346 N 
HETATM   59  H   UNK N   1      26.472  11.649   3.204  0.00  0.00     0.163 HD
HETATM   60  O   UNK N   1      28.329  13.074   1.181  0.00  0.00    -0.271 OA
BRANCH  58  61
HETATM   61  C   UNK N   1      26.518  10.833   1.323  0.00  0.00     0.176 C 
BRANCH  61  62
HETATM   62  C   UNK N   1      25.051  10.965   1.235  0.00  0.00     0.241 C 
HETATM   63  N   UNK N   1      24.557  12.146   0.818  0.00  0.00    -0.346 N 
HETATM   64  H   UNK N   1      24.896  12.571  -0.004  0.00  0.00     0.163 HD
HETATM   65  O   UNK N   1      24.320  10.097   1.685  0.00  0.00    -0.271 OA
BRANCH  63  66
HETATM   66  C   UNK N   1      23.543  12.763   1.581  0.00  0.00     0.177 C 
BRANCH  66  67
HETATM   67  C   UNK N   1      24.223  13.879   2.313  0.00  0.00     0.241 C 
HETATM   68  N   UNK N   1      23.992  14.075   3.638  0.00  0.00    -0.346 N 
HETATM   69  H   UNK N   1      23.099  13.888   4.007  0.00  0.00     0.163 HD
HETATM   70  O   UNK N   1      25.104  14.502   1.739  0.00  0.00    -0.271 OA
BRANCH  68  71
HETATM   71  C   UNK N   1      25.038  14.552   4.514  0.00  0.00     0.176 C 
BRANCH  71  72
HETATM   72  C   UNK N   1      24.506  15.813   5.151  0.00  0.00     0.243 C 
HETATM   73  N   UNK N   1      24.754  17.039   4.651  0.00  0.00    -0.337 N 
HETATM   74  C   UNK N   1      24.136  18.204   5.204  0.00  0.00     0.179 A 
HETATM   75  C   UNK N   1      25.606  17.265   3.518  0.00  0.00     0.127 A 
HETATM   76  C   UNK N   1      24.703  19.367   4.418  0.00  0.00     0.037 A 
HETATM   77  C   UNK N   1      25.540  18.765   3.286  0.00  0.00     0.022 A 
HETATM   78  O   UNK N   1      23.763  15.728   6.132  0.00  0.00    -0.271 OA
BRANCH  74  79
HETATM   79  C   UNK N   1      22.636  18.119   5.044  0.00  0.00     0.241 C 
HETATM   80  O   UNK N   1      21.912  18.272   6.019  0.00  0.00    -0.271 OA
HETATM   81  N   UNK N   1      22.100  17.899   3.817  0.00  0.00    -0.346 N 
HETATM   82  H   UNK N   1      22.696  17.865   3.033  0.00  0.00     0.163 HD
BRANCH  81  83
HETATM   83  C   UNK N   1      20.679  17.709   3.629  0.00  0.00     0.172 C 
HETATM   84  C   UNK N   1      20.099  18.891   2.865  0.00  0.00     0.042 C 
BRANCH  83  85
HETATM   85  C   UNK N   1      20.444  16.399   2.917  0.00  0.00     0.237 C 
HETATM   86  O   UNK N   1      21.100  15.419   3.228  0.00  0.00    -0.271 OA
HETATM   87  N   UNK N   1      19.532  16.298   1.928  0.00  0.00    -0.368 N 
HETATM   88  H   UNK N   1      18.813  16.939   1.723  0.00  0.00     0.159 HD
HETATM   89  H   UNK N   1      19.592  15.502   1.351  0.00  0.00     0.159 HD
ENDBRANCH  83  85
ENDBRANCH  81  83
ENDBRANCH  74  79
ENDBRANCH  71  72
BRANCH  71  90
HETATM   90  C   UNK N   1      25.446  13.560   5.603  0.00  0.00     0.036 C 
BRANCH  90  91
HETATM   91  C   UNK N   1      24.499  12.385   5.750  0.00  0.00     0.023 C 
BRANCH  91  92
HETATM   92  C   UNK N   1      23.837  12.459   7.121  0.00  0.00     0.138 C 
BRANCH  92  93
HETATM   93  N   UNK N   1      24.703  13.142   8.053  0.00  0.00    -0.227 N 
HETATM   94  C   UNK N   1      24.606  12.950   9.455  0.00  0.00     0.665 C 
HETATM   95  N   UNK N   1      23.674  12.223   9.953  0.00  0.00    -0.235 N 
HETATM   96  N   UNK N   1      25.576  13.524  10.304  0.00  0.00    -0.235 N 
HETATM   97  H   UNK N   1      23.344  11.903  10.823  0.00  0.00     0.174 HD
ATOM     98  HN  UNK N   1      23.082  11.861   9.206  1.00  0.00     0.174 HD
HETATM   99  H   UNK N   1      26.533  13.452  10.088  0.00  0.00     0.174 HD
HETATM  100  H   UNK N   1      25.293  14.000  11.118  0.00  0.00     0.174 HD
HETATM  101  H   UNK N   1      25.383  13.762   7.704  0.00  0.00     0.177 HD
ENDBRANCH  92  93
ENDBRANCH  91  92
ENDBRANCH  90  91
ENDBRANCH  71  90
ENDBRANCH  68  71
ENDBRANCH  66  67
BRANCH  66 102
HETATM  102  C   UNK N   1      22.382  13.250   0.728  0.00  0.00     0.038 C 
BRANCH 102 103
HETATM  103  C   UNK N   1      21.208  12.284   0.829  0.00  0.00    -0.020 C 
HETATM  104  C   UNK N   1      21.087  11.675   2.216  0.00  0.00     0.009 C 
HETATM  105  C   UNK N   1      19.928  13.028   0.515  0.00  0.00     0.009 C 
ENDBRANCH 102 103
ENDBRANCH  66 102
ENDBRANCH  63  66
ENDBRANCH  61  62
BRANCH  61 106
HETATM  106  C   UNK N   1      26.932   9.391   1.631  0.00  0.00     0.036 C 
BRANCH 106 107
HETATM  107  C   UNK N   1      28.429   9.217   1.483  0.00  0.00     0.022 C 
BRANCH 107 108
HETATM  108  C   UNK N   1      28.887   9.754   0.134  0.00  0.00     0.124 C 
BRANCH 108 109
HETATM  109  N   UNK N   1      30.119  10.501   0.250  0.00  0.00    -0.343 N 
HETATM  110  C   UNK N   1      30.588  11.295  -0.745  0.00  0.00     0.313 C 
HETATM  111  O   UNK N   1      29.984  11.392  -1.802  0.00  0.00    -0.248 OA
HETATM  112  N   UNK N   1      31.722  11.997  -0.561  0.00  0.00    -0.352 N 
HETATM  113  H   UNK N   1      32.451  11.624  -0.016  0.00  0.00     0.160 HD
HETATM  114  H   UNK N   1      31.822  12.886  -0.973  0.00  0.00     0.160 HD
HETATM  115  H   UNK N   1      30.640  10.430   1.083  0.00  0.00     0.164 HD
ENDBRANCH 108 109
ENDBRANCH 107 108
ENDBRANCH 106 107
ENDBRANCH  61 106
ENDBRANCH  58  61
ENDBRANCH   1  57
BRANCH   1 116
HETATM  116  C   UNK N   1      29.270  14.451   3.239  0.00  0.00     0.073 C 
BRANCH 116 117
HETATM  117  C   UNK N   1      29.008  15.649   4.123  0.00  0.00    -0.056 A 
HETATM  118  C   UNK N   1      28.521  15.437   5.420  0.00  0.00     0.010 A 
HETATM  119  C   UNK N   1      28.250  16.521   6.262  0.00  0.00     0.037 A 
HETATM  120  C   UNK N   1      28.456  17.826   5.810  0.00  0.00     0.065 A 
HETATM  121  C   UNK N   1      28.940  18.048   4.516  0.00  0.00     0.037 A 
HETATM  122  C   UNK N   1      29.217  16.964   3.676  0.00  0.00     0.010 A 
BRANCH 120 123
HETATM  123  O   UNK N   1      28.192  18.868   6.617  0.00  0.00    -0.361 OA
HETATM  124  H   UNK N   1      27.309  19.149   6.749  0.00  0.00     0.217 HD
ENDBRANCH 120 123
ENDBRANCH 116 117
ENDBRANCH   1 116
TORSDOF 40
ENDMDL
MODEL 6
REMARK VINA RESULT:      -8.3      2.282      5.469
REMARK WARNING: 32 MAX_TORS EXCEEDED!!!
REMARK  40 active torsions:
REMARK  status: ('A' for Active; 'I' for Inactive)
REMARK    1  A    between atoms: C_13  and  C_8 
REMARK    2  A    between atoms: C_13  and  C_11 
REMARK    3  A    between atoms: C_15  and  C_11 
REMARK    4  A    between atoms: C_11  and  N_12 
REMARK       I    between atoms: C_102  and  N_12 
REMARK       I    between atoms: C_15  and  N_14 
REMARK    5  A    between atoms: C_16  and  N_14 
REMARK    6  A    between atoms: C_16  and  C_19 
REMARK    7  A    between atoms: C_17  and  C_16 
REMARK       I    between atoms: N_21  and  C_17 
REMARK    8  A    between atoms: C_20  and  C_19 
REMARK    9  A    between atoms: C_27  and  N_21 
REMARK   10  A    between atoms: C_29  and  C_27 
REMARK   11  A    between atoms: C_27  and  C_28 
REMARK   12  A    between atoms: C_31  and  C_28 
REMARK       I    between atoms: N_30  and  C_29 
REMARK   13  A    between atoms: C_38  and  N_30 
REMARK   14  A    between atoms: C_39  and  C_38 
REMARK   15  A    between atoms: C_38  and  C_50 
REMARK       I    between atoms: N_41  and  C_39 
REMARK   16  A    between atoms: C_42  and  N_41 
REMARK   17  A    between atoms: C_44  and  C_42 
REMARK   18  A    between atoms: C_42  and  C_43 
REMARK   19  A    between atoms: C_46  and  C_43 
REMARK       I    between atoms: N_45  and  C_44 
REMARK   20  A    between atoms: C_59  and  N_45 
REMARK   21  A    between atoms: O_51  and  C_50 
REMARK   22  A    between atoms: O_58  and  C_54 
REMARK   23  A    between atoms: C_60  and  C_59 
REMARK   24  A    between atoms: C_59  and  C_74 
REMARK       I    between atoms: N_62  and  C_60 
REMARK   25  A    between atoms: C_63  and  N_62 
REMARK   26  A    between atoms: C_65  and  C_63 
REMARK   27  A    between atoms: C_63  and  C_64 
REMARK   28  A    between atoms: C_73  and  C_64 
REMARK       I    between atoms: N_66  and  C_65 
REMARK   29  A    between atoms: C_67  and  N_66 
REMARK   30  A    between atoms: C_68  and  C_67 
REMARK   31  A    between atoms: C_67  and  C_82 
REMARK       I    between atoms: N_70  and  C_68 
REMARK   32  A    between atoms: C_90  and  C_72 
REMARK       I    between atoms: N_94  and  C_72 
REMARK   33  A    between atoms: C_75  and  C_74 
REMARK   34  A    between atoms: C_76  and  C_75 
REMARK   35  A    between atoms: N_77  and  C_76 
REMARK       I    between atoms: C_78  and  N_77 
REMARK       I    between atoms: N_80  and  C_78 
REMARK   36  A    between atoms: C_83  and  C_82 
REMARK   37  A    between atoms: C_84  and  C_83 
REMARK   38  A    between atoms: N_85  and  C_84 
REMARK       I    between atoms: C_86  and  N_85 
REMARK       I    between atoms: N_89  and  C_86 
REMARK   39  A    between atoms: C_95  and  N_94 
REMARK   40  A    between atoms: C_96  and  C_95 
REMARK       I    between atoms: N_99  and  C_96 
ROOT
HETATM    1  C   UNK N   1      28.194  16.229   4.544  0.00  0.00     0.180 C 
ENDROOT
BRANCH   1   2
HETATM    2  N   UNK N   1      29.141  15.366   3.875  0.00  0.00    -0.346 N 
HETATM    3  C   UNK N   1      29.963  14.441   4.469  0.00  0.00     0.243 C 
HETATM    4  O   UNK N   1      29.887  14.165   5.655  0.00  0.00    -0.271 OA
HETATM    5  H   UNK N   1      29.203  15.451   2.896  0.00  0.00     0.163 HD
BRANCH   3   6
HETATM    6  C   UNK N   1      30.823  13.611   3.598  0.00  0.00     0.200 C 
BRANCH   6   7
HETATM    7  N   UNK N   1      32.096  13.738   4.243  0.00  0.00    -0.344 N 
HETATM    8  C   UNK N   1      33.009  14.593   3.723  0.00  0.00     0.241 C 
HETATM    9  O   UNK N   1      32.986  14.878   2.532  0.00  0.00    -0.271 OA
HETATM   10  H   UNK N   1      32.302  13.213   5.049  0.00  0.00     0.163 HD
BRANCH   8  11
HETATM   11  C   UNK N   1      33.768  15.454   4.673  0.00  0.00     0.180 C 
BRANCH  11  12
HETATM   12  N   UNK N   1      35.161  15.148   4.912  0.00  0.00    -0.346 N 
HETATM   13  C   UNK N   1      35.679  14.691   6.077  0.00  0.00     0.241 C 
HETATM   14  O   UNK N   1      36.868  14.424   6.123  0.00  0.00    -0.271 OA
HETATM   15  H   UNK N   1      35.787  15.285   4.163  0.00  0.00     0.163 HD
BRANCH  13  16
HETATM   16  C   UNK N   1      34.808  14.443   7.285  0.00  0.00     0.180 C 
BRANCH  16  17
HETATM   17  N   UNK N   1      34.619  13.031   7.497  0.00  0.00    -0.346 N 
HETATM   18  C   UNK N   1      33.420  12.408   7.405  0.00  0.00     0.241 C 
HETATM   19  O   UNK N   1      32.406  13.023   7.106  0.00  0.00    -0.271 OA
HETATM   20  H   UNK N   1      35.408  12.486   7.721  0.00  0.00     0.163 HD
BRANCH  18  21
HETATM   21  C   UNK N   1      33.359  10.938   7.656  0.00  0.00     0.180 C 
BRANCH  21  22
HETATM   22  C   UNK N   1      34.004  10.570   9.005  0.00  0.00     0.073 C 
BRANCH  22  23
HETATM   23  C   UNK N   1      33.522   9.271   9.609  0.00  0.00    -0.055 A 
HETATM   24  C   UNK N   1      32.165   8.939   9.514  0.00  0.00     0.019 A 
HETATM   25  C   UNK N   1      31.705   7.709   9.997  0.00  0.00    -0.025 A 
HETATM   26  C   UNK N   1      30.350   7.380   9.912  0.00  0.00     0.012 A 
HETATM   27  C   UNK N   1      32.617   6.789  10.567  0.00  0.00    -0.026 A 
HETATM   28  C   UNK N   1      29.900   6.142  10.383  0.00  0.00     0.001 A 
HETATM   29  C   UNK N   1      30.805   5.228  10.935  0.00  0.00     0.001 A 
HETATM   30  C   UNK N   1      32.162   5.552  11.028  0.00  0.00     0.012 A 
HETATM   31  C   UNK N   1      33.967   7.124  10.670  0.00  0.00     0.013 A 
HETATM   32  C   UNK N   1      34.415   8.361  10.202  0.00  0.00     0.008 A 
ENDBRANCH  22  23
ENDBRANCH  21  22
BRANCH  21  33
HETATM   33  N   UNK N   1      34.016  10.239   6.571  0.00  0.00    -0.348 N 
HETATM   34  C   UNK N   1      33.347   9.467   5.670  0.00  0.00     0.214 C 
HETATM   35  O   UNK N   1      33.957   8.960   4.745  0.00  0.00    -0.274 OA
HETATM   36  C   UNK N   1      31.873   9.223   5.786  0.00  0.00     0.117 C 
HETATM   37  H   UNK N   1      34.993  10.326   6.480  0.00  0.00     0.163 HD
ENDBRANCH  21  33
ENDBRANCH  18  21
ENDBRANCH  16  17
BRANCH  16  38
HETATM   38  C   UNK N   1      35.298  15.127   8.566  0.00  0.00     0.073 C 
BRANCH  38  39
HETATM   39  C   UNK N   1      35.852  14.189   9.595  0.00  0.00    -0.056 A 
HETATM   40  C   UNK N   1      35.021  13.762  10.637  0.00  0.00     0.009 A 
HETATM   41  C   UNK N   1      35.514  12.910  11.630  0.00  0.00     0.024 A 
HETATM   42  C   UNK N   1      36.842  12.477  11.584  0.00  0.00     0.034 A 
HETATM   43  C   UNK N   1      37.683  12.910  10.553  0.00  0.00     0.024 A 
HETATM   44 Cl   UNK N   1      37.442  11.375  12.805  0.00  0.00    -0.084 Cl
HETATM   45  C   UNK N   1      37.194  13.775   9.567  0.00  0.00     0.009 A 
ENDBRANCH  38  39
ENDBRANCH  16  38
ENDBRANCH  13  16
ENDBRANCH  11  12
BRANCH  11  46
HETATM   46  C   UNK N   1      33.380  16.926   4.774  0.00  0.00     0.074 C 
BRANCH  46  47
HETATM   47  C   UNK N   1      32.761  17.264   6.099  0.00  0.00    -0.040 A 
HETATM   48  C   UNK N   1      33.549  17.851   7.090  0.00  0.00     0.094 A 
HETATM   49  N   UNK N   1      33.007  18.172   8.296  0.00  0.00    -0.375 N 
HETATM   50  C   UNK N   1      31.695  17.939   8.573  0.00  0.00     0.087 A 
ATOM     51  HN  UNK N   1      33.598  18.597   9.010  1.00  0.00     0.164 HD
HETATM   52  C   UNK N   1      30.868  17.361   7.610  0.00  0.00     0.018 A 
HETATM   53  C   UNK N   1      31.406  17.025   6.368  0.00  0.00     0.010 A 
ENDBRANCH  46  47
ENDBRANCH  11  46
ENDBRANCH   8  11
ENDBRANCH   6   7
BRANCH   6  54
HETATM   54  C   UNK N   1      30.318  12.176   3.628  0.00  0.00     0.199 C 
BRANCH  54  55
HETATM   55  O   UNK N   1      28.921  12.163   3.696  0.00  0.00    -0.398 OA
HETATM   56  H   UNK N   1      28.416  12.595   4.403  0.00  0.00     0.209 HD
ENDBRANCH  54  55
ENDBRANCH   6  54
ENDBRANCH   3   6
ENDBRANCH   1   2
BRANCH   1  57
HETATM   57  C   UNK N   1      26.890  15.545   4.559  0.00  0.00     0.241 C 
HETATM   58  N   UNK N   1      26.660  14.657   3.565  0.00  0.00    -0.346 N 
HETATM   59  H   UNK N   1      27.454  14.320   3.090  0.00  0.00     0.163 HD
HETATM   60  O   UNK N   1      26.039  15.837   5.386  0.00  0.00    -0.271 OA
BRANCH  58  61
HETATM   61  C   UNK N   1      25.411  14.155   3.128  0.00  0.00     0.176 C 
BRANCH  61  62
HETATM   62  C   UNK N   1      25.138  12.966   3.958  0.00  0.00     0.241 C 
HETATM   63  N   UNK N   1      23.873  12.777   4.377  0.00  0.00    -0.346 N 
HETATM   64  H   UNK N   1      23.121  12.816   3.741  0.00  0.00     0.163 HD
HETATM   65  O   UNK N   1      26.055  12.281   4.384  0.00  0.00    -0.271 OA
BRANCH  63  66
HETATM   66  C   UNK N   1      23.644  12.523   5.747  0.00  0.00     0.177 C 
BRANCH  66  67
HETATM   67  C   UNK N   1      23.394  13.865   6.362  0.00  0.00     0.241 C 
HETATM   68  N   UNK N   1      22.399  14.663   5.894  0.00  0.00    -0.346 N 
HETATM   69  H   UNK N   1      22.185  14.657   4.933  0.00  0.00     0.163 HD
HETATM   70  O   UNK N   1      23.989  14.156   7.389  0.00  0.00    -0.271 OA
BRANCH  68  71
HETATM   71  C   UNK N   1      21.648  15.518   6.785  0.00  0.00     0.176 C 
BRANCH  71  72
HETATM   72  C   UNK N   1      20.964  16.537   5.906  0.00  0.00     0.243 C 
HETATM   73  N   UNK N   1      21.647  17.457   5.197  0.00  0.00    -0.337 N 
HETATM   74  C   UNK N   1      20.982  18.330   4.280  0.00  0.00     0.179 A 
HETATM   75  C   UNK N   1      23.073  17.604   5.271  0.00  0.00     0.127 A 
HETATM   76  C   UNK N   1      22.064  19.236   3.735  0.00  0.00     0.037 A 
HETATM   77  C   UNK N   1      23.394  18.704   4.274  0.00  0.00     0.022 A 
HETATM   78  O   UNK N   1      19.738  16.499   5.774  0.00  0.00    -0.271 OA
BRANCH  74  79
HETATM   79  C   UNK N   1      20.339  17.525   3.175  0.00  0.00     0.241 C 
HETATM   80  O   UNK N   1      19.135  17.624   2.973  0.00  0.00    -0.271 OA
HETATM   81  N   UNK N   1      21.101  16.716   2.398  0.00  0.00    -0.346 N 
HETATM   82  H   UNK N   1      22.079  16.717   2.521  0.00  0.00     0.163 HD
BRANCH  81  83
HETATM   83  C   UNK N   1      20.520  15.852   1.396  0.00  0.00     0.172 C 
HETATM   84  C   UNK N   1      19.579  14.855   2.057  0.00  0.00     0.042 C 
BRANCH  83  85
HETATM   85  C   UNK N   1      19.820  16.696   0.358  0.00  0.00     0.237 C 
HETATM   86  O   UNK N   1      20.433  17.588  -0.206  0.00  0.00    -0.271 OA
HETATM   87  N   UNK N   1      18.521  16.493   0.057  0.00  0.00    -0.368 N 
HETATM   88  H   UNK N   1      17.982  15.700   0.281  0.00  0.00     0.159 HD
HETATM   89  H   UNK N   1      18.065  17.212  -0.438  0.00  0.00     0.159 HD
ENDBRANCH  83  85
ENDBRANCH  81  83
ENDBRANCH  74  79
ENDBRANCH  71  72
BRANCH  71  90
HETATM   90  C   UNK N   1      20.603  14.784   7.627  0.00  0.00     0.036 C 
BRANCH  90  91
HETATM   91  C   UNK N   1      20.958  14.687   9.098  0.00  0.00     0.023 C 
BRANCH  91  92
HETATM   92  C   UNK N   1      21.322  13.241   9.418  0.00  0.00     0.138 C 
BRANCH  92  93
HETATM   93  N   UNK N   1      22.591  13.190  10.105  0.00  0.00    -0.227 N 
HETATM   94  C   UNK N   1      22.810  12.349  11.227  0.00  0.00     0.665 C 
HETATM   95  N   UNK N   1      21.848  11.667  11.730  0.00  0.00    -0.235 N 
HETATM   96  N   UNK N   1      24.111  12.227  11.760  0.00  0.00    -0.235 N 
HETATM   97  H   UNK N   1      21.670  11.027  12.456  0.00  0.00     0.174 HD
ATOM     98  HN  UNK N   1      20.989  11.845  11.211  1.00  0.00     0.174 HD
HETATM   99  H   UNK N   1      24.882  12.089  11.165  0.00  0.00     0.174 HD
HETATM  100  H   UNK N   1      24.246  12.279  12.733  0.00  0.00     0.174 HD
HETATM  101  H   UNK N   1      23.329  13.757   9.785  0.00  0.00     0.177 HD
ENDBRANCH  92  93
ENDBRANCH  91  92
ENDBRANCH  90  91
ENDBRANCH  71  90
ENDBRANCH  68  71
ENDBRANCH  66  67
BRANCH  66 102
HETATM  102  C   UNK N   1      22.495  11.553   5.978  0.00  0.00     0.038 C 
BRANCH 102 103
HETATM  103  C   UNK N   1      23.007  10.267   6.615  0.00  0.00    -0.020 C 
HETATM  104  C   UNK N   1      24.018   9.554   5.731  0.00  0.00     0.009 C 
HETATM  105  C   UNK N   1      23.668  10.599   7.935  0.00  0.00     0.009 C 
ENDBRANCH 102 103
ENDBRANCH  66 102
ENDBRANCH  63  66
ENDBRANCH  61  62
BRANCH  61 106
HETATM  106  C   UNK N   1      25.421  13.806   1.637  0.00  0.00     0.036 C 
BRANCH 106 107
HETATM  107  C   UNK N   1      24.108  14.186   0.985  0.00  0.00     0.022 C 
BRANCH 107 108
HETATM  108  C   UNK N   1      23.565  13.015   0.181  0.00  0.00     0.124 C 
BRANCH 108 109
HETATM  109  N   UNK N   1      22.217  12.675   0.579  0.00  0.00    -0.343 N 
HETATM  110  C   UNK N   1      21.948  11.726   1.510  0.00  0.00     0.313 C 
HETATM  111  O   UNK N   1      22.852  11.097   2.038  0.00  0.00    -0.248 OA
HETATM  112  N   UNK N   1      20.672  11.485   1.868  0.00  0.00    -0.352 N 
HETATM  113  H   UNK N   1      19.950  11.562   1.204  0.00  0.00     0.160 HD
HETATM  114  H   UNK N   1      20.462  11.229   2.795  0.00  0.00     0.160 HD
HETATM  115  H   UNK N   1      21.465  13.152   0.158  0.00  0.00     0.164 HD
ENDBRANCH 108 109
ENDBRANCH 107 108
ENDBRANCH 106 107
ENDBRANCH  61 106
ENDBRANCH  58  61
ENDBRANCH   1  57
BRANCH   1 116
HETATM  116  C   UNK N   1      28.046  17.567   3.796  0.00  0.00     0.073 C 
BRANCH 116 117
HETATM  117  C   UNK N   1      27.618  18.754   4.627  0.00  0.00    -0.056 A 
HETATM  118  C   UNK N   1      26.914  19.794   4.005  0.00  0.00     0.010 A 
HETATM  119  C   UNK N   1      26.514  20.918   4.737  0.00  0.00     0.037 A 
HETATM  120  C   UNK N   1      26.826  21.015   6.095  0.00  0.00     0.065 A 
HETATM  121  C   UNK N   1      27.531  19.983   6.724  0.00  0.00     0.037 A 
HETATM  122  C   UNK N   1      27.925  18.856   5.994  0.00  0.00     0.010 A 
BRANCH 120 123
HETATM  123  O   UNK N   1      26.447  22.096   6.797  0.00  0.00    -0.361 OA
HETATM  124  H   UNK N   1      25.618  22.499   6.630  0.00  0.00     0.217 HD
ENDBRANCH 120 123
ENDBRANCH 116 117
ENDBRANCH   1 116
TORSDOF 40
ENDMDL
MODEL 7
REMARK VINA RESULT:      -8.2      2.851      7.503
REMARK WARNING: 32 MAX_TORS EXCEEDED!!!
REMARK  40 active torsions:
REMARK  status: ('A' for Active; 'I' for Inactive)
REMARK    1  A    between atoms: C_13  and  C_8 
REMARK    2  A    between atoms: C_13  and  C_11 
REMARK    3  A    between atoms: C_15  and  C_11 
REMARK    4  A    between atoms: C_11  and  N_12 
REMARK       I    between atoms: C_102  and  N_12 
REMARK       I    between atoms: C_15  and  N_14 
REMARK    5  A    between atoms: C_16  and  N_14 
REMARK    6  A    between atoms: C_16  and  C_19 
REMARK    7  A    between atoms: C_17  and  C_16 
REMARK       I    between atoms: N_21  and  C_17 
REMARK    8  A    between atoms: C_20  and  C_19 
REMARK    9  A    between atoms: C_27  and  N_21 
REMARK   10  A    between atoms: C_29  and  C_27 
REMARK   11  A    between atoms: C_27  and  C_28 
REMARK   12  A    between atoms: C_31  and  C_28 
REMARK       I    between atoms: N_30  and  C_29 
REMARK   13  A    between atoms: C_38  and  N_30 
REMARK   14  A    between atoms: C_39  and  C_38 
REMARK   15  A    between atoms: C_38  and  C_50 
REMARK       I    between atoms: N_41  and  C_39 
REMARK   16  A    between atoms: C_42  and  N_41 
REMARK   17  A    between atoms: C_44  and  C_42 
REMARK   18  A    between atoms: C_42  and  C_43 
REMARK   19  A    between atoms: C_46  and  C_43 
REMARK       I    between atoms: N_45  and  C_44 
REMARK   20  A    between atoms: C_59  and  N_45 
REMARK   21  A    between atoms: O_51  and  C_50 
REMARK   22  A    between atoms: O_58  and  C_54 
REMARK   23  A    between atoms: C_60  and  C_59 
REMARK   24  A    between atoms: C_59  and  C_74 
REMARK       I    between atoms: N_62  and  C_60 
REMARK   25  A    between atoms: C_63  and  N_62 
REMARK   26  A    between atoms: C_65  and  C_63 
REMARK   27  A    between atoms: C_63  and  C_64 
REMARK   28  A    between atoms: C_73  and  C_64 
REMARK       I    between atoms: N_66  and  C_65 
REMARK   29  A    between atoms: C_67  and  N_66 
REMARK   30  A    between atoms: C_68  and  C_67 
REMARK   31  A    between atoms: C_67  and  C_82 
REMARK       I    between atoms: N_70  and  C_68 
REMARK   32  A    between atoms: C_90  and  C_72 
REMARK       I    between atoms: N_94  and  C_72 
REMARK   33  A    between atoms: C_75  and  C_74 
REMARK   34  A    between atoms: C_76  and  C_75 
REMARK   35  A    between atoms: N_77  and  C_76 
REMARK       I    between atoms: C_78  and  N_77 
REMARK       I    between atoms: N_80  and  C_78 
REMARK   36  A    between atoms: C_83  and  C_82 
REMARK   37  A    between atoms: C_84  and  C_83 
REMARK   38  A    between atoms: N_85  and  C_84 
REMARK       I    between atoms: C_86  and  N_85 
REMARK       I    between atoms: N_89  and  C_86 
REMARK   39  A    between atoms: C_95  and  N_94 
REMARK   40  A    between atoms: C_96  and  C_95 
REMARK       I    between atoms: N_99  and  C_96 
ROOT
HETATM    1  C   UNK N   1      23.107  17.420   5.548  0.00  0.00     0.180 C 
ENDROOT
BRANCH   1   2
HETATM    2  N   UNK N   1      24.138  16.467   5.892  0.00  0.00    -0.346 N 
HETATM    3  C   UNK N   1      25.360  16.331   5.282  0.00  0.00     0.243 C 
HETATM    4  O   UNK N   1      25.756  17.111   4.431  0.00  0.00    -0.271 OA
HETATM    5  H   UNK N   1      23.944  15.854   6.638  0.00  0.00     0.163 HD
BRANCH   3   6
HETATM    6  C   UNK N   1      26.303  15.329   5.824  0.00  0.00     0.200 C 
BRANCH   6   7
HETATM    7  N   UNK N   1      27.215  16.155   6.556  0.00  0.00    -0.344 N 
HETATM    8  C   UNK N   1      28.534  16.103   6.249  0.00  0.00     0.241 C 
HETATM    9  O   UNK N   1      29.015  15.095   5.746  0.00  0.00    -0.271 OA
HETATM   10  H   UNK N   1      26.889  16.750   7.269  0.00  0.00     0.163 HD
BRANCH   8  11
HETATM   11  C   UNK N   1      29.276  17.392   6.173  0.00  0.00     0.180 C 
BRANCH  11  12
HETATM   12  N   UNK N   1      30.121  17.630   5.023  0.00  0.00    -0.346 N 
HETATM   13  C   UNK N   1      31.428  17.289   4.922  0.00  0.00     0.241 C 
HETATM   14  O   UNK N   1      32.008  17.504   3.871  0.00  0.00    -0.271 OA
HETATM   15  H   UNK N   1      29.710  18.078   4.248  0.00  0.00     0.163 HD
BRANCH  13  16
HETATM   16  C   UNK N   1      32.153  16.595   6.049  0.00  0.00     0.180 C 
BRANCH  16  17
HETATM   17  N   UNK N   1      33.261  15.825   5.545  0.00  0.00    -0.346 N 
HETATM   18  C   UNK N   1      33.201  14.495   5.292  0.00  0.00     0.241 C 
HETATM   19  O   UNK N   1      32.168  13.862   5.459  0.00  0.00    -0.271 OA
HETATM   20  H   UNK N   1      34.111  16.291   5.375  0.00  0.00     0.163 HD
BRANCH  18  21
HETATM   21  C   UNK N   1      34.425  13.812   4.778  0.00  0.00     0.180 C 
BRANCH  21  22
HETATM   22  C   UNK N   1      35.669  14.190   5.604  0.00  0.00     0.073 C 
BRANCH  22  23
HETATM   23  C   UNK N   1      35.834  13.420   6.895  0.00  0.00    -0.055 A 
HETATM   24  C   UNK N   1      36.893  13.746   7.751  0.00  0.00     0.019 A 
HETATM   25  C   UNK N   1      37.025  13.102   8.986  0.00  0.00    -0.025 A 
HETATM   26  C   UNK N   1      38.086  13.420   9.837  0.00  0.00     0.012 A 
HETATM   27  C   UNK N   1      36.074  12.132   9.381  0.00  0.00    -0.026 A 
HETATM   28  C   UNK N   1      38.203  12.783  11.077  0.00  0.00     0.001 A 
HETATM   29  C   UNK N   1      37.254  11.832  11.471  0.00  0.00     0.001 A 
HETATM   30  C   UNK N   1      36.192  11.506  10.624  0.00  0.00     0.012 A 
HETATM   31  C   UNK N   1      35.024  11.800   8.524  0.00  0.00     0.013 A 
HETATM   32  C   UNK N   1      34.910  12.434   7.285  0.00  0.00     0.008 A 
ENDBRANCH  22  23
ENDBRANCH  21  22
BRANCH  21  33
HETATM   33  N   UNK N   1      34.616  14.157   3.384  0.00  0.00    -0.348 N 
HETATM   34  C   UNK N   1      34.131  13.404   2.359  0.00  0.00     0.214 C 
HETATM   35  O   UNK N   1      34.276  13.789   1.212  0.00  0.00    -0.274 OA
HETATM   36  C   UNK N   1      33.420  12.108   2.602  0.00  0.00     0.117 C 
HETATM   37  H   UNK N   1      35.122  14.974   3.168  0.00  0.00     0.163 HD
ENDBRANCH  21  33
ENDBRANCH  18  21
ENDBRANCH  16  17
BRANCH  16  38
HETATM   38  C   UNK N   1      32.605  17.529   7.177  0.00  0.00     0.073 C 
BRANCH  38  39
HETATM   39  C   UNK N   1      33.247  16.831   8.338  0.00  0.00    -0.056 A 
HETATM   40  C   UNK N   1      34.431  17.354   8.870  0.00  0.00     0.009 A 
HETATM   41  C   UNK N   1      35.071  16.712   9.934  0.00  0.00     0.024 A 
HETATM   42  C   UNK N   1      34.528  15.543  10.474  0.00  0.00     0.034 A 
HETATM   43  C   UNK N   1      33.352  15.006   9.938  0.00  0.00     0.024 A 
HETATM   44 Cl   UNK N   1      35.310  14.766  11.834  0.00  0.00    -0.084 Cl
HETATM   45  C   UNK N   1      32.718  15.641   8.863  0.00  0.00     0.009 A 
ENDBRANCH  38  39
ENDBRANCH  16  38
ENDBRANCH  13  16
ENDBRANCH  11  12
BRANCH  11  46
HETATM   46  C   UNK N   1      28.635  18.627   6.798  0.00  0.00     0.074 C 
BRANCH  46  47
HETATM   47  C   UNK N   1      27.799  19.396   5.816  0.00  0.00    -0.040 A 
HETATM   48  C   UNK N   1      28.095  19.313   4.456  0.00  0.00     0.094 A 
HETATM   49  N   UNK N   1      27.346  19.996   3.548  0.00  0.00    -0.375 N 
HETATM   50  C   UNK N   1      26.294  20.770   3.930  0.00  0.00     0.087 A 
ATOM     51  HN  UNK N   1      27.579  19.927   2.557  1.00  0.00     0.164 HD
HETATM   52  C   UNK N   1      25.957  20.877   5.280  0.00  0.00     0.018 A 
HETATM   53  C   UNK N   1      26.713  20.183   6.224  0.00  0.00     0.010 A 
ENDBRANCH  46  47
ENDBRANCH  11  46
ENDBRANCH   8  11
ENDBRANCH   6   7
BRANCH   6  54
HETATM   54  C   UNK N   1      25.542  14.382   6.741  0.00  0.00     0.199 C 
BRANCH  54  55
HETATM   55  O   UNK N   1      24.586  13.672   6.007  0.00  0.00    -0.398 OA
HETATM   56  H   UNK N   1      24.606  13.589   5.042  0.00  0.00     0.209 HD
ENDBRANCH  54  55
ENDBRANCH   6  54
ENDBRANCH   3   6
ENDBRANCH   1   2
BRANCH   1  57
HETATM   57  C   UNK N   1      21.942  17.158   6.410  0.00  0.00     0.241 C 
HETATM   58  N   UNK N   1      21.631  15.861   6.630  0.00  0.00    -0.346 N 
HETATM   59  H   UNK N   1      22.344  15.206   6.454  0.00  0.00     0.163 HD
HETATM   60  O   UNK N   1      21.255  18.077   6.830  0.00  0.00    -0.271 OA
BRANCH  58  61
HETATM   61  C   UNK N   1      20.398  15.334   7.086  0.00  0.00     0.176 C 
BRANCH  61  62
HETATM   62  C   UNK N   1      20.740  14.320   8.101  0.00  0.00     0.241 C 
HETATM   63  N   UNK N   1      21.862  13.603   7.909  0.00  0.00    -0.346 N 
HETATM   64  H   UNK N   1      22.716  14.050   7.705  0.00  0.00     0.163 HD
HETATM   65  O   UNK N   1      19.946  14.030   8.983  0.00  0.00    -0.271 OA
BRANCH  63  66
HETATM   66  C   UNK N   1      21.792  12.196   8.007  0.00  0.00     0.177 C 
BRANCH  66  67
HETATM   67  C   UNK N   1      21.787  11.701   6.593  0.00  0.00     0.241 C 
HETATM   68  N   UNK N   1      22.923  11.209   6.032  0.00  0.00    -0.346 N 
HETATM   69  H   UNK N   1      23.793  11.598   6.279  0.00  0.00     0.163 HD
HETATM   70  O   UNK N   1      20.715  11.598   6.014  0.00  0.00    -0.271 OA
BRANCH  68  71
HETATM   71  C   UNK N   1      22.873  10.124   5.079  0.00  0.00     0.176 C 
BRANCH  71  72
HETATM   72  C   UNK N   1      23.943  10.418   4.055  0.00  0.00     0.243 C 
HETATM   73  N   UNK N   1      23.687  11.078   2.908  0.00  0.00    -0.337 N 
HETATM   74  C   UNK N   1      24.741  11.449   2.016  0.00  0.00     0.179 A 
HETATM   75  C   UNK N   1      22.368  11.491   2.519  0.00  0.00     0.127 A 
HETATM   76  C   UNK N   1      24.054  12.109   0.840  0.00  0.00     0.037 A 
HETATM   77  C   UNK N   1      22.574  12.234   1.211  0.00  0.00     0.022 A 
HETATM   78  O   UNK N   1      25.112  10.103   4.293  0.00  0.00    -0.271 OA
BRANCH  74  79
HETATM   79  C   UNK N   1      25.685  12.408   2.703  0.00  0.00     0.241 C 
HETATM   80  O   UNK N   1      25.259  13.468   3.145  0.00  0.00    -0.271 OA
HETATM   81  N   UNK N   1      26.993  12.079   2.850  0.00  0.00    -0.346 N 
HETATM   82  H   UNK N   1      27.296  11.186   2.565  0.00  0.00     0.163 HD
BRANCH  81  83
HETATM   83  C   UNK N   1      27.954  13.002   3.410  0.00  0.00     0.172 C 
HETATM   84  C   UNK N   1      29.223  12.255   3.795  0.00  0.00     0.042 C 
BRANCH  83  85
HETATM   85  C   UNK N   1      28.221  14.105   2.413  0.00  0.00     0.237 C 
HETATM   86  O   UNK N   1      28.799  13.847   1.371  0.00  0.00    -0.271 OA
HETATM   87  N   UNK N   1      27.849  15.377   2.666  0.00  0.00    -0.368 N 
HETATM   88  H   UNK N   1      27.213  15.678   3.354  0.00  0.00     0.159 HD
HETATM   89  H   UNK N   1      28.255  16.076   2.103  0.00  0.00     0.159 HD
ENDBRANCH  83  85
ENDBRANCH  81  83
ENDBRANCH  74  79
ENDBRANCH  71  72
BRANCH  71  90
HETATM   90  C   UNK N   1      23.113   8.742   5.688  0.00  0.00     0.036 C 
BRANCH  90  91
HETATM   91  C   UNK N   1      23.712   8.780   7.081  0.00  0.00     0.023 C 
BRANCH  91  92
HETATM   92  C   UNK N   1      23.897   7.350   7.572  0.00  0.00     0.138 C 
BRANCH  92  93
HETATM   93  N   UNK N   1      23.976   6.445   6.449  0.00  0.00    -0.227 N 
HETATM   94  C   UNK N   1      24.158   5.049   6.614  0.00  0.00     0.665 C 
HETATM   95  N   UNK N   1      24.353   4.547   7.778  0.00  0.00    -0.235 N 
HETATM   96  N   UNK N   1      24.074   4.199   5.490  0.00  0.00    -0.235 N 
HETATM   97  H   UNK N   1      24.502   3.678   8.215  0.00  0.00     0.174 HD
ATOM     98  HN  UNK N   1      24.354   5.289   8.478  1.00  0.00     0.174 HD
HETATM   99  H   UNK N   1      23.340   4.300   4.843  0.00  0.00     0.174 HD
HETATM  100  H   UNK N   1      24.753   3.500   5.354  0.00  0.00     0.174 HD
HETATM  101  H   UNK N   1      23.901   6.811   5.538  0.00  0.00     0.177 HD
ENDBRANCH  92  93
ENDBRANCH  91  92
ENDBRANCH  90  91
ENDBRANCH  71  90
ENDBRANCH  68  71
ENDBRANCH  66  67
BRANCH  66 102
HETATM  102  C   UNK N   1      22.932  11.608   8.825  0.00  0.00     0.038 C 
BRANCH 102 103
HETATM  103  C   UNK N   1      23.255  12.510  10.009  0.00  0.00    -0.020 C 
HETATM  104  C   UNK N   1      22.559  12.054  11.281  0.00  0.00     0.009 C 
HETATM  105  C   UNK N   1      24.749  12.500  10.245  0.00  0.00     0.009 C 
ENDBRANCH 102 103
ENDBRANCH  66 102
ENDBRANCH  63  66
ENDBRANCH  61  62
BRANCH  61 106
HETATM  106  C   UNK N   1      19.575  14.728   5.945  0.00  0.00     0.036 C 
BRANCH 106 107
HETATM  107  C   UNK N   1      20.380  14.687   4.662  0.00  0.00     0.022 C 
BRANCH 107 108
HETATM  108  C   UNK N   1      19.611  15.371   3.541  0.00  0.00     0.124 C 
BRANCH 108 109
HETATM  109  N   UNK N   1      19.168  14.422   2.545  0.00  0.00    -0.343 N 
HETATM  110  C   UNK N   1      19.646  14.417   1.276  0.00  0.00     0.313 C 
HETATM  111  O   UNK N   1      20.469  15.247   0.917  0.00  0.00    -0.248 OA
HETATM  112  N   UNK N   1      19.224  13.481   0.406  0.00  0.00    -0.352 N 
HETATM  113  H   UNK N   1      18.299  13.148   0.449  0.00  0.00     0.160 HD
HETATM  114  H   UNK N   1      19.841  13.130  -0.277  0.00  0.00     0.160 HD
HETATM  115  H   UNK N   1      18.491  13.751   2.797  0.00  0.00     0.164 HD
ENDBRANCH 108 109
ENDBRANCH 107 108
ENDBRANCH 106 107
ENDBRANCH  61 106
ENDBRANCH  58  61
ENDBRANCH   1  57
BRANCH   1 116
HETATM  116  C   UNK N   1      22.683  17.262   4.076  0.00  0.00     0.073 C 
BRANCH 116 117
HETATM  117  C   UNK N   1      22.160  18.505   3.393  0.00  0.00    -0.056 A 
HETATM  118  C   UNK N   1      20.864  18.486   2.859  0.00  0.00     0.010 A 
HETATM  119  C   UNK N   1      20.350  19.611   2.205  0.00  0.00     0.037 A 
HETATM  120  C   UNK N   1      21.132  20.761   2.072  0.00  0.00     0.065 A 
HETATM  121  C   UNK N   1      22.427  20.788   2.600  0.00  0.00     0.037 A 
HETATM  122  C   UNK N   1      22.939  19.665   3.260  0.00  0.00     0.010 A 
BRANCH 120 123
HETATM  123  O   UNK N   1      20.640  21.840   1.440  0.00  0.00    -0.361 OA
HETATM  124  H   UNK N   1      20.246  22.534   1.930  0.00  0.00     0.217 HD
ENDBRANCH 120 123
ENDBRANCH 116 117
ENDBRANCH   1 116
TORSDOF 40
ENDMDL
MODEL 8
REMARK VINA RESULT:      -8.2      2.601      6.529
REMARK WARNING: 32 MAX_TORS EXCEEDED!!!
REMARK  40 active torsions:
REMARK  status: ('A' for Active; 'I' for Inactive)
REMARK    1  A    between atoms: C_13  and  C_8 
REMARK    2  A    between atoms: C_13  and  C_11 
REMARK    3  A    between atoms: C_15  and  C_11 
REMARK    4  A    between atoms: C_11  and  N_12 
REMARK       I    between atoms: C_102  and  N_12 
REMARK       I    between atoms: C_15  and  N_14 
REMARK    5  A    between atoms: C_16  and  N_14 
REMARK    6  A    between atoms: C_16  and  C_19 
REMARK    7  A    between atoms: C_17  and  C_16 
REMARK       I    between atoms: N_21  and  C_17 
REMARK    8  A    between atoms: C_20  and  C_19 
REMARK    9  A    between atoms: C_27  and  N_21 
REMARK   10  A    between atoms: C_29  and  C_27 
REMARK   11  A    between atoms: C_27  and  C_28 
REMARK   12  A    between atoms: C_31  and  C_28 
REMARK       I    between atoms: N_30  and  C_29 
REMARK   13  A    between atoms: C_38  and  N_30 
REMARK   14  A    between atoms: C_39  and  C_38 
REMARK   15  A    between atoms: C_38  and  C_50 
REMARK       I    between atoms: N_41  and  C_39 
REMARK   16  A    between atoms: C_42  and  N_41 
REMARK   17  A    between atoms: C_44  and  C_42 
REMARK   18  A    between atoms: C_42  and  C_43 
REMARK   19  A    between atoms: C_46  and  C_43 
REMARK       I    between atoms: N_45  and  C_44 
REMARK   20  A    between atoms: C_59  and  N_45 
REMARK   21  A    between atoms: O_51  and  C_50 
REMARK   22  A    between atoms: O_58  and  C_54 
REMARK   23  A    between atoms: C_60  and  C_59 
REMARK   24  A    between atoms: C_59  and  C_74 
REMARK       I    between atoms: N_62  and  C_60 
REMARK   25  A    between atoms: C_63  and  N_62 
REMARK   26  A    between atoms: C_65  and  C_63 
REMARK   27  A    between atoms: C_63  and  C_64 
REMARK   28  A    between atoms: C_73  and  C_64 
REMARK       I    between atoms: N_66  and  C_65 
REMARK   29  A    between atoms: C_67  and  N_66 
REMARK   30  A    between atoms: C_68  and  C_67 
REMARK   31  A    between atoms: C_67  and  C_82 
REMARK       I    between atoms: N_70  and  C_68 
REMARK   32  A    between atoms: C_90  and  C_72 
REMARK       I    between atoms: N_94  and  C_72 
REMARK   33  A    between atoms: C_75  and  C_74 
REMARK   34  A    between atoms: C_76  and  C_75 
REMARK   35  A    between atoms: N_77  and  C_76 
REMARK       I    between atoms: C_78  and  N_77 
REMARK       I    between atoms: N_80  and  C_78 
REMARK   36  A    between atoms: C_83  and  C_82 
REMARK   37  A    between atoms: C_84  and  C_83 
REMARK   38  A    between atoms: N_85  and  C_84 
REMARK       I    between atoms: C_86  and  N_85 
REMARK       I    between atoms: N_89  and  C_86 
REMARK   39  A    between atoms: C_95  and  N_94 
REMARK   40  A    between atoms: C_96  and  C_95 
REMARK       I    between atoms: N_99  and  C_96 
ROOT
HETATM    1  C   UNK N   1      26.155  17.384   4.795  0.00  0.00     0.180 C 
ENDROOT
BRANCH   1   2
HETATM    2  N   UNK N   1      26.823  17.244   6.068  0.00  0.00    -0.346 N 
HETATM    3  C   UNK N   1      27.996  17.851   6.445  0.00  0.00     0.243 C 
HETATM    4  O   UNK N   1      28.548  18.692   5.755  0.00  0.00    -0.271 OA
HETATM    5  H   UNK N   1      26.396  16.655   6.731  0.00  0.00     0.163 HD
BRANCH   3   6
HETATM    6  C   UNK N   1      28.488  17.623   7.821  0.00  0.00     0.200 C 
BRANCH   6   7
HETATM    7  N   UNK N   1      29.891  17.866   7.670  0.00  0.00    -0.344 N 
HETATM    8  C   UNK N   1      30.754  17.250   8.513  0.00  0.00     0.241 C 
HETATM    9  O   UNK N   1      30.392  16.903   9.631  0.00  0.00    -0.271 OA
HETATM   10  H   UNK N   1      30.221  18.471   6.968  0.00  0.00     0.163 HD
BRANCH   8  11
HETATM   11  C   UNK N   1      31.995  16.669   7.927  0.00  0.00     0.180 C 
BRANCH  11  12
HETATM   12  N   UNK N   1      32.044  15.241   7.704  0.00  0.00    -0.346 N 
HETATM   13  C   UNK N   1      32.874  14.374   8.331  0.00  0.00     0.241 C 
HETATM   14  O   UNK N   1      32.772  13.184   8.083  0.00  0.00    -0.271 OA
HETATM   15  H   UNK N   1      31.420  14.867   7.039  0.00  0.00     0.163 HD
BRANCH  13  16
HETATM   16  C   UNK N   1      33.865  14.840   9.370  0.00  0.00     0.180 C 
BRANCH  16  17
HETATM   17  N   UNK N   1      34.188  13.772  10.282  0.00  0.00    -0.346 N 
HETATM   18  C   UNK N   1      34.676  13.968  11.530  0.00  0.00     0.241 C 
HETATM   19  O   UNK N   1      34.852  15.094  11.974  0.00  0.00    -0.271 OA
HETATM   20  H   UNK N   1      34.047  12.846   9.979  0.00  0.00     0.163 HD
BRANCH  18  21
HETATM   21  C   UNK N   1      34.978  12.774  12.373  0.00  0.00     0.180 C 
BRANCH  21  22
HETATM   22  C   UNK N   1      36.117  13.061  13.370  0.00  0.00     0.073 C 
BRANCH  22  23
HETATM   23  C   UNK N   1      35.837  12.642  14.795  0.00  0.00    -0.055 A 
HETATM   24  C   UNK N   1      36.379  11.442  15.270  0.00  0.00     0.019 A 
HETATM   25  C   UNK N   1      36.199  11.068  16.606  0.00  0.00    -0.025 A 
HETATM   26  C   UNK N   1      36.730   9.865  17.079  0.00  0.00     0.012 A 
HETATM   27  C   UNK N   1      35.483  11.913  17.485  0.00  0.00    -0.026 A 
HETATM   28  C   UNK N   1      36.559   9.505  18.420  0.00  0.00     0.001 A 
HETATM   29  C   UNK N   1      35.862  10.349  19.292  0.00  0.00     0.001 A 
HETATM   30  C   UNK N   1      35.323  11.551  18.825  0.00  0.00     0.012 A 
HETATM   31  C   UNK N   1      34.934  13.105  17.009  0.00  0.00     0.013 A 
HETATM   32  C   UNK N   1      35.103  13.462  15.670  0.00  0.00     0.008 A 
ENDBRANCH  22  23
ENDBRANCH  21  22
BRANCH  21  33
HETATM   33  N   UNK N   1      35.323  11.658  11.515  0.00  0.00    -0.348 N 
HETATM   34  C   UNK N   1      34.801  10.410  11.673  0.00  0.00     0.214 C 
HETATM   35  O   UNK N   1      35.089   9.535  10.875  0.00  0.00    -0.274 OA
HETATM   36  C   UNK N   1      33.878  10.081  12.807  0.00  0.00     0.117 C 
HETATM   37  H   UNK N   1      35.966  11.808  10.784  0.00  0.00     0.163 HD
ENDBRANCH  21  33
ENDBRANCH  18  21
ENDBRANCH  16  17
BRANCH  16  38
HETATM   38  C   UNK N   1      35.137  15.468   8.791  0.00  0.00     0.073 C 
BRANCH  38  39
HETATM   39  C   UNK N   1      35.996  14.518   8.012  0.00  0.00    -0.056 A 
HETATM   40  C   UNK N   1      36.963  13.769   8.692  0.00  0.00     0.009 A 
HETATM   41  C   UNK N   1      37.800  12.896   7.992  0.00  0.00     0.024 A 
HETATM   42  C   UNK N   1      37.674  12.764   6.606  0.00  0.00     0.034 A 
HETATM   43  C   UNK N   1      36.719  13.520   5.917  0.00  0.00     0.024 A 
HETATM   44 Cl   UNK N   1      38.695  11.637   5.740  0.00  0.00    -0.084 Cl
HETATM   45  C   UNK N   1      35.889  14.406   6.616  0.00  0.00     0.009 A 
ENDBRANCH  38  39
ENDBRANCH  16  38
ENDBRANCH  13  16
ENDBRANCH  11  12
BRANCH  11  46
HETATM   46  C   UNK N   1      32.796  17.526   6.951  0.00  0.00     0.074 C 
BRANCH  46  47
HETATM   47  C   UNK N   1      32.609  17.096   5.525  0.00  0.00    -0.040 A 
HETATM   48  C   UNK N   1      31.464  17.497   4.837  0.00  0.00     0.094 A 
HETATM   49  N   UNK N   1      31.277  17.125   3.541  0.00  0.00    -0.375 N 
HETATM   50  C   UNK N   1      32.190  16.361   2.880  0.00  0.00     0.087 A 
ATOM     51  HN  UNK N   1      30.433  17.425   3.054  1.00  0.00     0.164 HD
HETATM   52  C   UNK N   1      33.352  15.943   3.527  0.00  0.00     0.018 A 
HETATM   53  C   UNK N   1      33.562  16.315   4.855  0.00  0.00     0.010 A 
ENDBRANCH  46  47
ENDBRANCH  11  46
ENDBRANCH   8  11
ENDBRANCH   6   7
BRANCH   6  54
HETATM   54  C   UNK N   1      27.838  18.637   8.752  0.00  0.00     0.199 C 
BRANCH  54  55
HETATM   55  O   UNK N   1      27.147  19.596   8.005  0.00  0.00    -0.398 OA
HETATM   56  H   UNK N   1      26.266  19.448   7.627  0.00  0.00     0.209 HD
ENDBRANCH  54  55
ENDBRANCH   6  54
ENDBRANCH   3   6
ENDBRANCH   1   2
BRANCH   1  57
HETATM   57  C   UNK N   1      24.965  18.227   4.998  0.00  0.00     0.241 C 
HETATM   58  N   UNK N   1      23.784  17.583   5.145  0.00  0.00    -0.346 N 
HETATM   59  H   UNK N   1      23.835  16.632   5.394  0.00  0.00     0.163 HD
HETATM   60  O   UNK N   1      25.045  19.446   4.951  0.00  0.00    -0.271 OA
BRANCH  58  61
HETATM   61  C   UNK N   1      22.483  18.118   4.984  0.00  0.00     0.176 C 
BRANCH  61  62
HETATM   62  C   UNK N   1      21.788  17.889   6.264  0.00  0.00     0.241 C 
HETATM   63  N   UNK N   1      21.790  16.636   6.757  0.00  0.00    -0.346 N 
HETATM   64  H   UNK N   1      22.630  16.127   6.834  0.00  0.00     0.163 HD
HETATM   65  O   UNK N   1      21.098  18.764   6.763  0.00  0.00    -0.271 OA
BRANCH  63  66
HETATM   66  C   UNK N   1      20.564  16.066   7.162  0.00  0.00     0.177 C 
BRANCH  66  67
HETATM   67  C   UNK N   1      20.598  14.656   6.658  0.00  0.00     0.241 C 
HETATM   68  N   UNK N   1      21.269  14.347   5.517  0.00  0.00    -0.346 N 
HETATM   69  H   UNK N   1      21.294  14.999   4.780  0.00  0.00     0.163 HD
HETATM   70  O   UNK N   1      20.153  13.769   7.373  0.00  0.00    -0.271 OA
BRANCH  68  71
HETATM   71  C   UNK N   1      21.947  13.080   5.371  0.00  0.00     0.176 C 
BRANCH  71  72
HETATM   72  C   UNK N   1      21.573  12.562   4.003  0.00  0.00     0.243 C 
HETATM   73  N   UNK N   1      22.091  13.071   2.868  0.00  0.00    -0.337 N 
HETATM   74  C   UNK N   1      21.812  12.481   1.596  0.00  0.00     0.179 A 
HETATM   75  C   UNK N   1      22.983  14.197   2.850  0.00  0.00     0.127 A 
HETATM   76  C   UNK N   1      22.518  13.359   0.586  0.00  0.00     0.037 A 
HETATM   77  C   UNK N   1      23.345  14.370   1.385  0.00  0.00     0.022 A 
HETATM   78  O   UNK N   1      20.811  11.596   3.908  0.00  0.00    -0.271 OA
BRANCH  74  79
HETATM   79  C   UNK N   1      22.344  11.068   1.554  0.00  0.00     0.241 C 
HETATM   80  O   UNK N   1      23.540  10.863   1.724  0.00  0.00    -0.271 OA
HETATM   81  N   UNK N   1      21.491  10.032   1.355  0.00  0.00    -0.346 N 
HETATM   82  H   UNK N   1      20.524  10.211   1.308  0.00  0.00     0.163 HD
BRANCH  81  83
HETATM   83  C   UNK N   1      21.963   8.673   1.209  0.00  0.00     0.172 C 
HETATM   84  C   UNK N   1      21.311   7.785   2.259  0.00  0.00     0.042 C 
BRANCH  83  85
HETATM   85  C   UNK N   1      21.678   8.198  -0.196  0.00  0.00     0.237 C 
HETATM   86  O   UNK N   1      20.898   7.277  -0.374  0.00  0.00    -0.271 OA
HETATM   87  N   UNK N   1      22.288   8.762  -1.258  0.00  0.00    -0.368 N 
HETATM   88  H   UNK N   1      22.769   9.621  -1.274  0.00  0.00     0.159 HD
HETATM   89  H   UNK N   1      22.249   8.263  -2.107  0.00  0.00     0.159 HD
ENDBRANCH  83  85
ENDBRANCH  81  83
ENDBRANCH  74  79
ENDBRANCH  71  72
BRANCH  71  90
HETATM   90  C   UNK N   1      23.469  13.165   5.488  0.00  0.00     0.036 C 
BRANCH  90  91
HETATM   91  C   UNK N   1      24.054  12.268   6.562  0.00  0.00     0.023 C 
BRANCH  91  92
HETATM   92  C   UNK N   1      23.474  12.679   7.911  0.00  0.00     0.138 C 
BRANCH  92  93
HETATM   93  N   UNK N   1      24.508  13.244   8.745  0.00  0.00    -0.227 N 
HETATM   94  C   UNK N   1      24.668  12.876  10.105  0.00  0.00     0.665 C 
HETATM   95  N   UNK N   1      23.832  12.087  10.672  0.00  0.00    -0.235 N 
HETATM   96  N   UNK N   1      25.788  13.344  10.825  0.00  0.00    -0.235 N 
HETATM   97  H   UNK N   1      23.662  11.657  11.541  0.00  0.00     0.174 HD
ATOM     98  HN  UNK N   1      23.106  11.818  10.008  1.00  0.00     0.174 HD
HETATM   99  H   UNK N   1      26.688  13.306  10.428  0.00  0.00     0.174 HD
HETATM  100  H   UNK N   1      25.668  13.711  11.730  0.00  0.00     0.174 HD
HETATM  101  H   UNK N   1      25.123  13.907   8.356  0.00  0.00     0.177 HD
ENDBRANCH  92  93
ENDBRANCH  91  92
ENDBRANCH  90  91
ENDBRANCH  71  90
ENDBRANCH  68  71
ENDBRANCH  66  67
BRANCH  66 102
HETATM  102  C   UNK N   1      20.351  16.140   8.666  0.00  0.00     0.038 C 
BRANCH 102 103
HETATM  103  C   UNK N   1      19.033  16.836   8.981  0.00  0.00    -0.020 C 
HETATM  104  C   UNK N   1      19.236  18.281   9.407  0.00  0.00     0.009 C 
HETATM  105  C   UNK N   1      18.156  16.813   7.748  0.00  0.00     0.009 C 
ENDBRANCH 102 103
ENDBRANCH  66 102
ENDBRANCH  63  66
ENDBRANCH  61  62
BRANCH  61 106
HETATM  106  C   UNK N   1      21.735  17.467   3.817  0.00  0.00     0.036 C 
BRANCH 106 107
HETATM  107  C   UNK N   1      20.464  18.228   3.499  0.00  0.00     0.022 C 
BRANCH 107 108
HETATM  108  C   UNK N   1      20.444  18.621   2.030  0.00  0.00     0.124 C 
BRANCH 108 109
HETATM  109  N   UNK N   1      19.357  17.983   1.323  0.00  0.00    -0.343 N 
HETATM  110  C   UNK N   1      19.539  16.898   0.529  0.00  0.00     0.313 C 
HETATM  111  O   UNK N   1      20.654  16.428   0.362  0.00  0.00    -0.248 OA
HETATM  112  N   UNK N   1      18.479  16.323  -0.069  0.00  0.00    -0.352 N 
HETATM  113  H   UNK N   1      17.722  16.876  -0.371  0.00  0.00     0.160 HD
HETATM  114  H   UNK N   1      18.460  15.348  -0.207  0.00  0.00     0.160 HD
HETATM  115  H   UNK N   1      18.448  18.349   1.423  0.00  0.00     0.164 HD
ENDBRANCH 108 109
ENDBRANCH 107 108
ENDBRANCH 106 107
ENDBRANCH  61 106
ENDBRANCH  58  61
ENDBRANCH   1  57
BRANCH   1 116
HETATM  116  C   UNK N   1      25.708  16.012   4.255  0.00  0.00     0.073 C 
BRANCH 116 117
HETATM  117  C   UNK N   1      26.770  15.184   3.570  0.00  0.00    -0.056 A 
HETATM  118  C   UNK N   1      27.740  15.837   2.797  0.00  0.00     0.010 A 
HETATM  119  C   UNK N   1      28.730  15.103   2.134  0.00  0.00     0.037 A 
HETATM  120  C   UNK N   1      28.751  13.711   2.230  0.00  0.00     0.065 A 
HETATM  121  C   UNK N   1      27.785  13.050   2.997  0.00  0.00     0.037 A 
HETATM  122  C   UNK N   1      26.799  13.783   3.666  0.00  0.00     0.010 A 
BRANCH 120 123
HETATM  123  O   UNK N   1      29.698  13.006   1.589  0.00  0.00    -0.361 OA
HETATM  124  H   UNK N   1      29.978  13.262   0.732  0.00  0.00     0.217 HD
ENDBRANCH 120 123
ENDBRANCH 116 117
ENDBRANCH   1 116
TORSDOF 40
ENDMDL
MODEL 9
REMARK VINA RESULT:      -8.2      2.429      4.699
REMARK WARNING: 32 MAX_TORS EXCEEDED!!!
REMARK  40 active torsions:
REMARK  status: ('A' for Active; 'I' for Inactive)
REMARK    1  A    between atoms: C_13  and  C_8 
REMARK    2  A    between atoms: C_13  and  C_11 
REMARK    3  A    between atoms: C_15  and  C_11 
REMARK    4  A    between atoms: C_11  and  N_12 
REMARK       I    between atoms: C_102  and  N_12 
REMARK       I    between atoms: C_15  and  N_14 
REMARK    5  A    between atoms: C_16  and  N_14 
REMARK    6  A    between atoms: C_16  and  C_19 
REMARK    7  A    between atoms: C_17  and  C_16 
REMARK       I    between atoms: N_21  and  C_17 
REMARK    8  A    between atoms: C_20  and  C_19 
REMARK    9  A    between atoms: C_27  and  N_21 
REMARK   10  A    between atoms: C_29  and  C_27 
REMARK   11  A    between atoms: C_27  and  C_28 
REMARK   12  A    between atoms: C_31  and  C_28 
REMARK       I    between atoms: N_30  and  C_29 
REMARK   13  A    between atoms: C_38  and  N_30 
REMARK   14  A    between atoms: C_39  and  C_38 
REMARK   15  A    between atoms: C_38  and  C_50 
REMARK       I    between atoms: N_41  and  C_39 
REMARK   16  A    between atoms: C_42  and  N_41 
REMARK   17  A    between atoms: C_44  and  C_42 
REMARK   18  A    between atoms: C_42  and  C_43 
REMARK   19  A    between atoms: C_46  and  C_43 
REMARK       I    between atoms: N_45  and  C_44 
REMARK   20  A    between atoms: C_59  and  N_45 
REMARK   21  A    between atoms: O_51  and  C_50 
REMARK   22  A    between atoms: O_58  and  C_54 
REMARK   23  A    between atoms: C_60  and  C_59 
REMARK   24  A    between atoms: C_59  and  C_74 
REMARK       I    between atoms: N_62  and  C_60 
REMARK   25  A    between atoms: C_63  and  N_62 
REMARK   26  A    between atoms: C_65  and  C_63 
REMARK   27  A    between atoms: C_63  and  C_64 
REMARK   28  A    between atoms: C_73  and  C_64 
REMARK       I    between atoms: N_66  and  C_65 
REMARK   29  A    between atoms: C_67  and  N_66 
REMARK   30  A    between atoms: C_68  and  C_67 
REMARK   31  A    between atoms: C_67  and  C_82 
REMARK       I    between atoms: N_70  and  C_68 
REMARK   32  A    between atoms: C_90  and  C_72 
REMARK       I    between atoms: N_94  and  C_72 
REMARK   33  A    between atoms: C_75  and  C_74 
REMARK   34  A    between atoms: C_76  and  C_75 
REMARK   35  A    between atoms: N_77  and  C_76 
REMARK       I    between atoms: C_78  and  N_77 
REMARK       I    between atoms: N_80  and  C_78 
REMARK   36  A    between atoms: C_83  and  C_82 
REMARK   37  A    between atoms: C_84  and  C_83 
REMARK   38  A    between atoms: N_85  and  C_84 
REMARK       I    between atoms: C_86  and  N_85 
REMARK       I    between atoms: N_89  and  C_86 
REMARK   39  A    between atoms: C_95  and  N_94 
REMARK   40  A    between atoms: C_96  and  C_95 
REMARK       I    between atoms: N_99  and  C_96 
ROOT
HETATM    1  C   UNK N   1      28.514  16.170   4.513  0.00  0.00     0.180 C 
ENDROOT
BRANCH   1   2
HETATM    2  N   UNK N   1      29.418  15.219   3.906  0.00  0.00    -0.346 N 
HETATM    3  C   UNK N   1      30.069  14.192   4.542  0.00  0.00     0.243 C 
HETATM    4  O   UNK N   1      29.849  13.899   5.706  0.00  0.00    -0.271 OA
HETATM    5  H   UNK N   1      29.583  15.319   2.941  0.00  0.00     0.163 HD
BRANCH   3   6
HETATM    6  C   UNK N   1      30.910  13.289   3.727  0.00  0.00     0.200 C 
BRANCH   6   7
HETATM    7  N   UNK N   1      32.195  13.462   4.336  0.00  0.00    -0.344 N 
HETATM    8  C   UNK N   1      33.047  14.376   3.814  0.00  0.00     0.241 C 
HETATM    9  O   UNK N   1      32.972  14.694   2.633  0.00  0.00    -0.271 OA
HETATM   10  H   UNK N   1      32.454  12.925   5.119  0.00  0.00     0.163 HD
BRANCH   8  11
HETATM   11  C   UNK N   1      33.793  15.247   4.766  0.00  0.00     0.180 C 
BRANCH  11  12
HETATM   12  N   UNK N   1      35.164  14.909   5.074  0.00  0.00    -0.346 N 
HETATM   13  C   UNK N   1      35.629  14.539   6.291  0.00  0.00     0.241 C 
HETATM   14  O   UNK N   1      36.804  14.230   6.399  0.00  0.00    -0.271 OA
HETATM   15  H   UNK N   1      35.816  14.951   4.336  0.00  0.00     0.163 HD
BRANCH  13  16
HETATM   16  C   UNK N   1      34.716  14.438   7.489  0.00  0.00     0.180 C 
BRANCH  16  17
HETATM   17  N   UNK N   1      34.564  13.065   7.901  0.00  0.00    -0.346 N 
HETATM   18  C   UNK N   1      33.454  12.325   7.664  0.00  0.00     0.241 C 
HETATM   19  O   UNK N   1      32.502  12.787   7.050  0.00  0.00    -0.271 OA
HETATM   20  H   UNK N   1      35.310  12.641   8.382  0.00  0.00     0.163 HD
BRANCH  18  21
HETATM   21  C   UNK N   1      33.420  10.915   8.151  0.00  0.00     0.180 C 
BRANCH  21  22
HETATM   22  C   UNK N   1      34.798  10.468   8.677  0.00  0.00     0.073 C 
BRANCH  22  23
HETATM   23  C   UNK N   1      34.831  10.099  10.143  0.00  0.00    -0.055 A 
HETATM   24  C   UNK N   1      35.990   9.520  10.672  0.00  0.00     0.019 A 
HETATM   25  C   UNK N   1      36.075   9.239  12.041  0.00  0.00    -0.025 A 
HETATM   26  C   UNK N   1      37.227   8.651  12.569  0.00  0.00     0.012 A 
HETATM   27  C   UNK N   1      34.994   9.558  12.895  0.00  0.00    -0.026 A 
HETATM   28  C   UNK N   1      37.311   8.387  13.941  0.00  0.00     0.001 A 
HETATM   29  C   UNK N   1      36.245   8.715  14.787  0.00  0.00     0.001 A 
HETATM   30  C   UNK N   1      35.087   9.299  14.265  0.00  0.00     0.012 A 
HETATM   31  C   UNK N   1      33.835  10.127  12.366  0.00  0.00     0.013 A 
HETATM   32  C   UNK N   1      33.751  10.388  10.997  0.00  0.00     0.008 A 
ENDBRANCH  22  23
ENDBRANCH  21  22
BRANCH  21  33
HETATM   33  N   UNK N   1      32.981  10.048   7.077  0.00  0.00    -0.348 N 
HETATM   34  C   UNK N   1      32.074   9.047   7.254  0.00  0.00     0.214 C 
HETATM   35  O   UNK N   1      31.704   8.398   6.291  0.00  0.00    -0.274 OA
HETATM   36  C   UNK N   1      31.517   8.720   8.605  0.00  0.00     0.117 C 
HETATM   37  H   UNK N   1      33.356  10.188   6.177  0.00  0.00     0.163 HD
ENDBRANCH  21  33
ENDBRANCH  18  21
ENDBRANCH  16  17
BRANCH  16  38
HETATM   38  C   UNK N   1      35.127  15.321   8.672  0.00  0.00     0.073 C 
BRANCH  38  39
HETATM   39  C   UNK N   1      35.611  14.562   9.871  0.00  0.00    -0.056 A 
HETATM   40  C   UNK N   1      36.910  14.044   9.863  0.00  0.00     0.009 A 
HETATM   41  C   UNK N   1      37.383  13.306  10.952  0.00  0.00     0.024 A 
HETATM   42  C   UNK N   1      36.558  13.086  12.059  0.00  0.00     0.034 A 
HETATM   43  C   UNK N   1      35.253  13.589  12.068  0.00  0.00     0.024 A 
HETATM   44 Cl   UNK N   1      37.169  12.199  13.439  0.00  0.00    -0.084 Cl
HETATM   45  C   UNK N   1      34.774  14.316  10.971  0.00  0.00     0.009 A 
ENDBRANCH  38  39
ENDBRANCH  16  38
ENDBRANCH  13  16
ENDBRANCH  11  12
BRANCH  11  46
HETATM   46  C   UNK N   1      33.447  16.733   4.799  0.00  0.00     0.074 C 
BRANCH  46  47
HETATM   47  C   UNK N   1      32.888  17.161   6.124  0.00  0.00    -0.040 A 
HETATM   48  C   UNK N   1      31.604  16.752   6.487  0.00  0.00     0.094 A 
HETATM   49  N   UNK N   1      31.080  17.122   7.686  0.00  0.00    -0.375 N 
HETATM   50  C   UNK N   1      31.781  17.890   8.565  0.00  0.00     0.087 A 
ATOM     51  HN  UNK N   1      30.138  16.817   7.934  1.00  0.00     0.164 HD
HETATM   52  C   UNK N   1      33.071  18.316   8.247  0.00  0.00     0.018 A 
HETATM   53  C   UNK N   1      33.625  17.946   7.022  0.00  0.00     0.010 A 
ENDBRANCH  46  47
ENDBRANCH  11  46
ENDBRANCH   8  11
ENDBRANCH   6   7
BRANCH   6  54
HETATM   54  C   UNK N   1      30.401  11.864   3.885  0.00  0.00     0.199 C 
BRANCH  54  55
HETATM   55  O   UNK N   1      30.938  11.289   5.042  0.00  0.00    -0.398 OA
HETATM   56  H   UNK N   1      30.593  10.480   5.447  0.00  0.00     0.209 HD
ENDBRANCH  54  55
ENDBRANCH   6  54
ENDBRANCH   3   6
ENDBRANCH   1   2
BRANCH   1  57
HETATM   57  C   UNK N   1      27.143  15.813   4.111  0.00  0.00     0.241 C 
HETATM   58  N   UNK N   1      26.141  16.298   4.878  0.00  0.00    -0.346 N 
HETATM   59  H   UNK N   1      26.365  17.066   5.452  0.00  0.00     0.163 HD
HETATM   60  O   UNK N   1      26.943  15.050   3.177  0.00  0.00    -0.271 OA
BRANCH  58  61
HETATM   61  C   UNK N   1      24.807  15.831   4.952  0.00  0.00     0.176 C 
BRANCH  61  62
HETATM   62  C   UNK N   1      23.960  16.945   4.484  0.00  0.00     0.241 C 
HETATM   63  N   UNK N   1      22.734  17.064   5.026  0.00  0.00    -0.346 N 
HETATM   64  H   UNK N   1      22.613  17.052   6.004  0.00  0.00     0.163 HD
HETATM   65  O   UNK N   1      24.296  17.622   3.524  0.00  0.00    -0.271 OA
BRANCH  63  66
HETATM   66  C   UNK N   1      21.624  17.207   4.165  0.00  0.00     0.177 C 
BRANCH  66  67
HETATM   67  C   UNK N   1      20.623  16.199   4.640  0.00  0.00     0.241 C 
HETATM   68  N   UNK N   1      21.025  15.104   5.336  0.00  0.00    -0.346 N 
HETATM   69  H   UNK N   1      21.891  14.686   5.123  0.00  0.00     0.163 HD
HETATM   70  O   UNK N   1      19.434  16.462   4.531  0.00  0.00    -0.271 OA
BRANCH  68  71
HETATM   71  C   UNK N   1      20.203  14.544   6.385  0.00  0.00     0.176 C 
BRANCH  71  72
HETATM   72  C   UNK N   1      20.286  13.045   6.223  0.00  0.00     0.243 C 
HETATM   73  N   UNK N   1      19.679  12.390   5.215  0.00  0.00    -0.337 N 
HETATM   74  C   UNK N   1      19.875  10.987   5.018  0.00  0.00     0.179 A 
HETATM   75  C   UNK N   1      18.839  13.042   4.249  0.00  0.00     0.127 A 
HETATM   76  C   UNK N   1      18.997  10.623   3.841  0.00  0.00     0.037 A 
HETATM   77  C   UNK N   1      18.435  11.936   3.290  0.00  0.00     0.022 A 
HETATM   78  O   UNK N   1      20.982  12.390   7.003  0.00  0.00    -0.271 OA
BRANCH  74  79
HETATM   79  C   UNK N   1      21.329  10.706   4.719  0.00  0.00     0.241 C 
HETATM   80  O   UNK N   1      21.850  11.194   3.724  0.00  0.00    -0.271 OA
HETATM   81  N   UNK N   1      22.056   9.938   5.568  0.00  0.00    -0.346 N 
HETATM   82  H   UNK N   1      21.642   9.628   6.407  0.00  0.00     0.163 HD
BRANCH  81  83
HETATM   83  C   UNK N   1      23.420   9.558   5.277  0.00  0.00     0.172 C 
HETATM   84  C   UNK N   1      24.191   9.367   6.575  0.00  0.00     0.042 C 
BRANCH  83  85
HETATM   85  C   UNK N   1      23.418   8.311   4.426  0.00  0.00     0.237 C 
HETATM   86  O   UNK N   1      24.473   7.754   4.171  0.00  0.00    -0.271 OA
HETATM   87  N   UNK N   1      22.269   7.813   3.925  0.00  0.00    -0.368 N 
HETATM   88  H   UNK N   1      21.355   8.038   4.212  0.00  0.00     0.159 HD
HETATM   89  H   UNK N   1      22.353   7.154   3.197  0.00  0.00     0.159 HD
ENDBRANCH  83  85
ENDBRANCH  81  83
ENDBRANCH  74  79
ENDBRANCH  71  72
BRANCH  71  90
HETATM   90  C   UNK N   1      20.638  14.932   7.798  0.00  0.00     0.036 C 
BRANCH  90  91
HETATM   91  C   UNK N   1      20.747  16.429   8.018  0.00  0.00     0.023 C 
BRANCH  91  92
HETATM   92  C   UNK N   1      19.383  16.961   8.441  0.00  0.00     0.138 C 
BRANCH  92  93
HETATM   93  N   UNK N   1      19.541  18.168   9.218  0.00  0.00    -0.227 N 
HETATM   94  C   UNK N   1      18.513  18.666  10.059  0.00  0.00     0.665 C 
HETATM   95  N   UNK N   1      17.361  18.103  10.088  0.00  0.00    -0.235 N 
HETATM   96  N   UNK N   1      18.779  19.761  10.909  0.00  0.00    -0.235 N 
HETATM   97  H   UNK N   1      16.486  18.186  10.530  0.00  0.00     0.174 HD
ATOM     98  HN  UNK N   1      17.347  17.314   9.443  1.00  0.00     0.174 HD
HETATM   99  H   UNK N   1      19.603  19.785  11.447  0.00  0.00     0.174 HD
HETATM  100  H   UNK N   1      18.136  20.504  10.964  0.00  0.00     0.174 HD
HETATM  101  H   UNK N   1      20.390  18.663   9.162  0.00  0.00     0.177 HD
ENDBRANCH  92  93
ENDBRANCH  91  92
ENDBRANCH  90  91
ENDBRANCH  71  90
ENDBRANCH  68  71
ENDBRANCH  66  67
BRANCH  66 102
HETATM  102  C   UNK N   1      21.066  18.622   4.160  0.00  0.00     0.038 C 
BRANCH 102 103
HETATM  103  C   UNK N   1      21.191  19.236   2.771  0.00  0.00    -0.020 C 
HETATM  104  C   UNK N   1      20.345  18.501   1.743  0.00  0.00     0.009 C 
HETATM  105  C   UNK N   1      20.740  20.679   2.826  0.00  0.00     0.009 C 
ENDBRANCH 102 103
ENDBRANCH  66 102
ENDBRANCH  63  66
ENDBRANCH  61  62
BRANCH  61 106
HETATM  106  C   UNK N   1      24.426  15.398   6.371  0.00  0.00     0.036 C 
BRANCH 106 107
HETATM  107  C   UNK N   1      25.602  14.744   7.067  0.00  0.00     0.022 C 
BRANCH 107 108
HETATM  108  C   UNK N   1      25.198  13.377   7.601  0.00  0.00     0.124 C 
BRANCH 108 109
HETATM  109  N   UNK N   1      25.207  13.347   9.046  0.00  0.00    -0.343 N 
HETATM  110  C   UNK N   1      24.379  12.547   9.765  0.00  0.00     0.313 C 
HETATM  111  O   UNK N   1      23.566  11.828   9.205  0.00  0.00    -0.248 OA
HETATM  112  N   UNK N   1      24.465  12.534  11.109  0.00  0.00    -0.352 N 
HETATM  113  H   UNK N   1      24.696  13.357  11.597  0.00  0.00     0.160 HD
HETATM  114  H   UNK N   1      24.295  11.700  11.603  0.00  0.00     0.160 HD
HETATM  115  H   UNK N   1      25.839  13.928   9.528  0.00  0.00     0.164 HD
ENDBRANCH 108 109
ENDBRANCH 107 108
ENDBRANCH 106 107
ENDBRANCH  61 106
ENDBRANCH  58  61
ENDBRANCH   1  57
BRANCH   1 116
HETATM  116  C   UNK N   1      28.818  17.601   4.032  0.00  0.00     0.073 C 
BRANCH 116 117
HETATM  117  C   UNK N   1      28.181  18.722   4.821  0.00  0.00    -0.056 A 
HETATM  118  C   UNK N   1      28.280  18.703   6.219  0.00  0.00     0.010 A 
HETATM  119  C   UNK N   1      27.689  19.714   6.985  0.00  0.00     0.037 A 
HETATM  120  C   UNK N   1      26.986  20.745   6.360  0.00  0.00     0.065 A 
HETATM  121  C   UNK N   1      26.879  20.770   4.965  0.00  0.00     0.037 A 
HETATM  122  C   UNK N   1      27.476  19.763   4.198  0.00  0.00     0.010 A 
BRANCH 120 123
HETATM  123  O   UNK N   1      26.414  21.713   7.096  0.00  0.00    -0.361 OA
HETATM  124  H   UNK N   1      26.037  22.462   6.678  0.00  0.00     0.217 HD
ENDBRANCH 120 123
ENDBRANCH 116 117
ENDBRANCH   1 116
TORSDOF 40
ENDMDL
