MODEL 1
REMARK VINA RESULT:      -6.6      0.000      0.000
REMARK  9 active torsions:
REMARK  status: ('A' for Active; 'I' for Inactive)
REMARK    1  A    between atoms: O_1  and  C_12 
REMARK    2  A    between atoms: O_1  and  C_20 
REMARK    3  A    between atoms: N_2  and  C_19 
REMARK    4  A    between atoms: C_3  and  C_5 
REMARK    5  A    between atoms: C_3  and  C_7 
REMARK    6  A    between atoms: C_4  and  C_6 
REMARK    7  A    between atoms: C_4  and  C_8 
REMARK    8  A    between atoms: C_19  and  C_20 
REMARK    9  A    between atoms: C_25  and  O_29 
ROOT
HETATM    1  C   UNK N   1      27.352  25.482  -5.374  0.00  0.00    -0.009 C 
HETATM    2  C   UNK N   1      26.679  24.904  -6.458  0.00  0.00    -0.036 C 
ENDROOT
BRANCH   1   3
HETATM    3  C   UNK N   1      28.364  24.687  -4.555  0.00  0.00    -0.024 A 
HETATM    4  C   UNK N   1      29.748  24.804  -4.790  0.00  0.00     0.015 A 
HETATM    5  C   UNK N   1      30.680  24.122  -4.004  0.00  0.00     0.037 A 
HETATM    6  C   UNK N   1      30.255  23.304  -2.956  0.00  0.00     0.068 A 
HETATM    7  C   UNK N   1      28.881  23.195  -2.690  0.00  0.00     0.037 A 
HETATM    8  C   UNK N   1      27.956  23.891  -3.469  0.00  0.00     0.015 A 
BRANCH   6   9
HETATM    9  O   UNK N   1      31.176  22.632  -2.224  0.00  0.00    -0.349 OA
BRANCH   9  10
HETATM   10  C   UNK N   1      32.136  21.812  -2.779  0.00  0.00     0.206 C 
BRANCH  10  11
HETATM   11  C   UNK N   1      31.467  20.779  -3.671  0.00  0.00     0.297 C 
BRANCH  11  12
HETATM   12  N   UNK N   1      32.466  20.093  -4.469  0.00  0.00     0.082 N 
HETATM   13  C   UNK N   1      33.742  20.260  -3.796  0.00  0.00     0.309 C 
HETATM   14  C   UNK N   1      32.559  20.799  -5.734  0.00  0.00     0.309 C 
ENDBRANCH  11  12
ENDBRANCH  10  11
ENDBRANCH   9  10
ENDBRANCH   6   9
ENDBRANCH   1   3
BRANCH   1  15
HETATM   15  C   UNK N   1      27.036  26.914  -4.906  0.00  0.00    -0.024 A 
HETATM   16  C   UNK N   1      27.567  28.055  -5.539  0.00  0.00     0.015 A 
HETATM   17  C   UNK N   1      27.255  29.349  -5.112  0.00  0.00     0.037 A 
HETATM   18  C   UNK N   1      26.400  29.534  -4.029  0.00  0.00     0.065 A 
HETATM   19  C   UNK N   1      25.861  28.429  -3.376  0.00  0.00     0.037 A 
HETATM   20  C   UNK N   1      26.173  27.139  -3.813  0.00  0.00     0.015 A 
BRANCH  18  21
HETATM   21  O   UNK N   1      26.097  30.776  -3.617  0.00  0.00    -0.361 OA
HETATM   22  H   UNK N   1      25.563  30.900  -2.856  0.00  0.00     0.217 HD
ENDBRANCH  18  21
ENDBRANCH   1  15
BRANCH   2  23
HETATM   23  C   UNK N   1      25.559  25.643  -7.151  0.00  0.00     0.036 C 
HETATM   24  C   UNK N   1      25.984  26.154  -8.516  0.00  0.00     0.010 C 
ENDBRANCH   2  23
BRANCH   2  25
HETATM   25  C   UNK N   1      27.015  23.569  -7.082  0.00  0.00    -0.029 A 
HETATM   26  C   UNK N   1      28.251  23.329  -7.710  0.00  0.00     0.012 A 
HETATM   27  C   UNK N   1      28.513  22.110  -8.342  0.00  0.00     0.001 A 
HETATM   28  C   UNK N   1      27.533  21.117  -8.377  0.00  0.00     0.000 A 
HETATM   29  C   UNK N   1      26.286  21.351  -7.798  0.00  0.00     0.001 A 
HETATM   30  C   UNK N   1      26.025  22.572  -7.171  0.00  0.00     0.012 A 
ENDBRANCH   2  25
TORSDOF 9
ENDMDL
MODEL 2
REMARK VINA RESULT:      -6.5     11.941     14.492
REMARK  9 active torsions:
REMARK  status: ('A' for Active; 'I' for Inactive)
REMARK    1  A    between atoms: O_1  and  C_12 
REMARK    2  A    between atoms: O_1  and  C_20 
REMARK    3  A    between atoms: N_2  and  C_19 
REMARK    4  A    between atoms: C_3  and  C_5 
REMARK    5  A    between atoms: C_3  and  C_7 
REMARK    6  A    between atoms: C_4  and  C_6 
REMARK    7  A    between atoms: C_4  and  C_8 
REMARK    8  A    between atoms: C_19  and  C_20 
REMARK    9  A    between atoms: C_25  and  O_29 
ROOT
HETATM    1  C   UNK N   1      30.252  17.260   6.316  0.00  0.00    -0.009 C 
HETATM    2  C   UNK N   1      30.704  17.619   7.593  0.00  0.00    -0.036 C 
ENDROOT
BRANCH   1   3
HETATM    3  C   UNK N   1      31.211  16.714   5.262  0.00  0.00    -0.024 A 
HETATM    4  C   UNK N   1      31.344  15.329   5.043  0.00  0.00     0.015 A 
HETATM    5  C   UNK N   1      32.177  14.829   4.039  0.00  0.00     0.037 A 
HETATM    6  C   UNK N   1      32.899  15.700   3.222  0.00  0.00     0.068 A 
HETATM    7  C   UNK N   1      32.758  17.083   3.407  0.00  0.00     0.037 A 
HETATM    8  C   UNK N   1      31.912  17.578   4.401  0.00  0.00     0.015 A 
BRANCH   6   9
HETATM    9  O   UNK N   1      33.720  15.190   2.272  0.00  0.00    -0.349 OA
BRANCH   9  10
HETATM   10  C   UNK N   1      34.542  14.103   2.483  0.00  0.00     0.206 C 
BRANCH  10  11
HETATM   11  C   UNK N   1      34.559  13.231   1.238  0.00  0.00     0.297 C 
BRANCH  11  12
HETATM   12  N   UNK N   1      35.911  13.136   0.720  0.00  0.00     0.082 N 
HETATM   13  C   UNK N   1      36.815  13.302   1.843  0.00  0.00     0.309 C 
HETATM   14  C   UNK N   1      36.112  14.276  -0.157  0.00  0.00     0.309 C 
ENDBRANCH  11  12
ENDBRANCH  10  11
ENDBRANCH   9  10
ENDBRANCH   6   9
ENDBRANCH   1   3
BRANCH   1  15
HETATM   15  C   UNK N   1      28.790  17.483   5.892  0.00  0.00    -0.024 A 
HETATM   16  C   UNK N   1      28.357  18.657   5.244  0.00  0.00     0.015 A 
HETATM   17  C   UNK N   1      27.028  18.835   4.849  0.00  0.00     0.037 A 
HETATM   18  C   UNK N   1      26.091  17.836   5.098  0.00  0.00     0.065 A 
HETATM   19  C   UNK N   1      26.482  16.665   5.741  0.00  0.00     0.037 A 
HETATM   20  C   UNK N   1      27.814  16.491   6.128  0.00  0.00     0.015 A 
BRANCH  18  21
HETATM   21  O   UNK N   1      24.813  18.003   4.719  0.00  0.00    -0.361 OA
HETATM   22  H   UNK N   1      24.421  17.402   4.116  0.00  0.00     0.217 HD
ENDBRANCH  18  21
ENDBRANCH   1  15
BRANCH   2  23
HETATM   23  C   UNK N   1      29.784  18.315   8.567  0.00  0.00     0.036 C 
HETATM   24  C   UNK N   1      29.193  17.344   9.573  0.00  0.00     0.010 C 
ENDBRANCH   2  23
BRANCH   2  25
HETATM   25  C   UNK N   1      32.074  17.310   8.152  0.00  0.00    -0.029 A 
HETATM   26  C   UNK N   1      33.150  18.207   8.027  0.00  0.00     0.012 A 
HETATM   27  C   UNK N   1      34.425  17.869   8.490  0.00  0.00     0.001 A 
HETATM   28  C   UNK N   1      34.651  16.618   9.066  0.00  0.00     0.000 A 
HETATM   29  C   UNK N   1      33.607  15.698   9.161  0.00  0.00     0.001 A 
HETATM   30  C   UNK N   1      32.334  16.036   8.692  0.00  0.00     0.012 A 
ENDBRANCH   2  25
TORSDOF 9
ENDMDL
MODEL 3
REMARK VINA RESULT:      -6.5     12.176     15.110
REMARK  9 active torsions:
REMARK  status: ('A' for Active; 'I' for Inactive)
REMARK    1  A    between atoms: O_1  and  C_12 
REMARK    2  A    between atoms: O_1  and  C_20 
REMARK    3  A    between atoms: N_2  and  C_19 
REMARK    4  A    between atoms: C_3  and  C_5 
REMARK    5  A    between atoms: C_3  and  C_7 
REMARK    6  A    between atoms: C_4  and  C_6 
REMARK    7  A    between atoms: C_4  and  C_8 
REMARK    8  A    between atoms: C_19  and  C_20 
REMARK    9  A    between atoms: C_25  and  O_29 
ROOT
HETATM    1  C   UNK N   1      31.095  16.830   6.856  0.00  0.00    -0.009 C 
HETATM    2  C   UNK N   1      29.900  17.481   7.192  0.00  0.00    -0.036 C 
ENDROOT
BRANCH   1   3
HETATM    3  C   UNK N   1      31.173  15.889   5.658  0.00  0.00    -0.024 A 
HETATM    4  C   UNK N   1      30.789  14.538   5.764  0.00  0.00     0.015 A 
HETATM    5  C   UNK N   1      30.804  13.688   4.655  0.00  0.00     0.037 A 
HETATM    6  C   UNK N   1      31.200  14.166   3.406  0.00  0.00     0.068 A 
HETATM    7  C   UNK N   1      31.561  15.515   3.274  0.00  0.00     0.037 A 
HETATM    8  C   UNK N   1      31.528  16.363   4.382  0.00  0.00     0.015 A 
BRANCH   6   9
HETATM    9  O   UNK N   1      31.231  13.316   2.350  0.00  0.00    -0.349 OA
BRANCH   9  10
HETATM   10  C   UNK N   1      30.204  12.448   2.044  0.00  0.00     0.206 C 
BRANCH  10  11
HETATM   11  C   UNK N   1      29.093  13.206   1.338  0.00  0.00     0.297 C 
BRANCH  11  12
HETATM   12  N   UNK N   1      27.826  12.954   1.999  0.00  0.00     0.082 N 
HETATM   13  C   UNK N   1      27.531  14.115   2.818  0.00  0.00     0.309 C 
HETATM   14  C   UNK N   1      28.032  11.838   2.904  0.00  0.00     0.309 C 
ENDBRANCH  11  12
ENDBRANCH  10  11
ENDBRANCH   9  10
ENDBRANCH   6   9
ENDBRANCH   1   3
BRANCH   1  15
HETATM   15  C   UNK N   1      32.354  16.966   7.729  0.00  0.00    -0.024 A 
HETATM   16  C   UNK N   1      33.275  18.021   7.577  0.00  0.00     0.015 A 
HETATM   17  C   UNK N   1      34.405  18.139   8.391  0.00  0.00     0.037 A 
HETATM   18  C   UNK N   1      34.645  17.193   9.384  0.00  0.00     0.065 A 
HETATM   19  C   UNK N   1      33.759  16.134   9.559  0.00  0.00     0.037 A 
HETATM   20  C   UNK N   1      32.629  16.026   8.745  0.00  0.00     0.015 A 
BRANCH  18  21
HETATM   21  O   UNK N   1      35.729  17.304  10.170  0.00  0.00    -0.361 OA
HETATM   22  H   UNK N   1      36.386  16.636  10.158  0.00  0.00     0.217 HD
ENDBRANCH  18  21
ENDBRANCH   1  15
BRANCH   2  23
HETATM   23  C   UNK N   1      29.789  18.272   8.473  0.00  0.00     0.036 C 
HETATM   24  C   UNK N   1      29.147  17.459   9.582  0.00  0.00     0.010 C 
ENDBRANCH   2  23
BRANCH   2  25
HETATM   25  C   UNK N   1      28.660  17.529   6.329  0.00  0.00    -0.029 A 
HETATM   26  C   UNK N   1      27.651  16.553   6.418  0.00  0.00     0.012 A 
HETATM   27  C   UNK N   1      26.547  16.579   5.561  0.00  0.00     0.001 A 
HETATM   28  C   UNK N   1      26.445  17.569   4.583  0.00  0.00     0.000 A 
HETATM   29  C   UNK N   1      27.456  18.521   4.450  0.00  0.00     0.001 A 
HETATM   30  C   UNK N   1      28.561  18.490   5.304  0.00  0.00     0.012 A 
ENDBRANCH   2  25
TORSDOF 9
ENDMDL
MODEL 4
REMARK VINA RESULT:      -6.4     11.427     14.334
REMARK  9 active torsions:
REMARK  status: ('A' for Active; 'I' for Inactive)
REMARK    1  A    between atoms: O_1  and  C_12 
REMARK    2  A    between atoms: O_1  and  C_20 
REMARK    3  A    between atoms: N_2  and  C_19 
REMARK    4  A    between atoms: C_3  and  C_5 
REMARK    5  A    between atoms: C_3  and  C_7 
REMARK    6  A    between atoms: C_4  and  C_6 
REMARK    7  A    between atoms: C_4  and  C_8 
REMARK    8  A    between atoms: C_19  and  C_20 
REMARK    9  A    between atoms: C_25  and  O_29 
ROOT
HETATM    1  C   UNK N   1      29.812  17.497   6.001  0.00  0.00    -0.009 C 
HETATM    2  C   UNK N   1      30.183  17.703   7.336  0.00  0.00    -0.036 C 
ENDROOT
BRANCH   1   3
HETATM    3  C   UNK N   1      30.782  16.886   4.995  0.00  0.00    -0.024 A 
HETATM    4  C   UNK N   1      31.877  17.619   4.497  0.00  0.00     0.015 A 
HETATM    5  C   UNK N   1      32.800  17.043   3.620  0.00  0.00     0.037 A 
HETATM    6  C   UNK N   1      32.657  15.714   3.219  0.00  0.00     0.068 A 
HETATM    7  C   UNK N   1      31.588  14.960   3.725  0.00  0.00     0.037 A 
HETATM    8  C   UNK N   1      30.678  15.536   4.612  0.00  0.00     0.015 A 
BRANCH   6   9
HETATM    9  O   UNK N   1      33.550  15.185   2.348  0.00  0.00    -0.349 OA
BRANCH   9  10
HETATM   10  C   UNK N   1      34.021  13.892   2.435  0.00  0.00     0.206 C 
BRANCH  10  11
HETATM   11  C   UNK N   1      35.100  13.816   3.503  0.00  0.00     0.297 C 
BRANCH  11  12
HETATM   12  N   UNK N   1      34.824  12.715   4.407  0.00  0.00     0.082 N 
HETATM   13  C   UNK N   1      33.761  11.926   3.812  0.00  0.00     0.309 C 
HETATM   14  C   UNK N   1      34.292  13.291   5.629  0.00  0.00     0.309 C 
ENDBRANCH  11  12
ENDBRANCH  10  11
ENDBRANCH   9  10
ENDBRANCH   6   9
ENDBRANCH   1   3
BRANCH   1  15
HETATM   15  C   UNK N   1      28.443  17.960   5.469  0.00  0.00    -0.024 A 
HETATM   16  C   UNK N   1      28.253  19.210   4.849  0.00  0.00     0.015 A 
HETATM   17  C   UNK N   1      27.007  19.607   4.355  0.00  0.00     0.037 A 
HETATM   18  C   UNK N   1      25.911  18.757   4.475  0.00  0.00     0.065 A 
HETATM   19  C   UNK N   1      26.062  17.516   5.088  0.00  0.00     0.037 A 
HETATM   20  C   UNK N   1      27.312  17.124   5.574  0.00  0.00     0.015 A 
BRANCH  18  21
HETATM   21  O   UNK N   1      24.712  19.134   4.001  0.00  0.00    -0.361 OA
HETATM   22  H   UNK N   1      23.931  18.903   4.464  0.00  0.00     0.217 HD
ENDBRANCH  18  21
ENDBRANCH   1  15
BRANCH   2  23
HETATM   23  C   UNK N   1      29.280  18.462   8.278  0.00  0.00     0.036 C 
HETATM   24  C   UNK N   1      28.441  17.525   9.129  0.00  0.00     0.010 C 
ENDBRANCH   2  23
BRANCH   2  25
HETATM   25  C   UNK N   1      31.435  17.160   7.987  0.00  0.00    -0.029 A 
HETATM   26  C   UNK N   1      32.569  17.962   8.207  0.00  0.00     0.012 A 
HETATM   27  C   UNK N   1      33.740  17.420   8.746  0.00  0.00     0.001 A 
HETATM   28  C   UNK N   1      33.804  16.060   9.052  0.00  0.00     0.000 A 
HETATM   29  C   UNK N   1      32.704  15.239   8.802  0.00  0.00     0.001 A 
HETATM   30  C   UNK N   1      31.537  15.782   8.258  0.00  0.00     0.012 A 
ENDBRANCH   2  25
TORSDOF 9
ENDMDL
MODEL 5
REMARK VINA RESULT:      -6.4     10.426     13.787
REMARK  9 active torsions:
REMARK  status: ('A' for Active; 'I' for Inactive)
REMARK    1  A    between atoms: O_1  and  C_12 
REMARK    2  A    between atoms: O_1  and  C_20 
REMARK    3  A    between atoms: N_2  and  C_19 
REMARK    4  A    between atoms: C_3  and  C_5 
REMARK    5  A    between atoms: C_3  and  C_7 
REMARK    6  A    between atoms: C_4  and  C_6 
REMARK    7  A    between atoms: C_4  and  C_8 
REMARK    8  A    between atoms: C_19  and  C_20 
REMARK    9  A    between atoms: C_25  and  O_29 
ROOT
HETATM    1  C   UNK N   1      27.987  17.849   5.508  0.00  0.00    -0.009 C 
HETATM    2  C   UNK N   1      27.360  19.101   5.468  0.00  0.00    -0.036 C 
ENDROOT
BRANCH   1   3
HETATM    3  C   UNK N   1      27.481  16.683   4.663  0.00  0.00    -0.024 A 
HETATM    4  C   UNK N   1      26.501  15.798   5.152  0.00  0.00     0.015 A 
HETATM    5  C   UNK N   1      25.994  14.764   4.359  0.00  0.00     0.037 A 
HETATM    6  C   UNK N   1      26.451  14.589   3.052  0.00  0.00     0.068 A 
HETATM    7  C   UNK N   1      27.408  15.477   2.539  0.00  0.00     0.037 A 
HETATM    8  C   UNK N   1      27.899  16.517   3.330  0.00  0.00     0.015 A 
BRANCH   6   9
HETATM    9  O   UNK N   1      25.964  13.564   2.312  0.00  0.00    -0.349 OA
BRANCH   9  10
HETATM   10  C   UNK N   1      24.617  13.353   2.101  0.00  0.00     0.206 C 
BRANCH  10  11
HETATM   11  C   UNK N   1      24.158  14.165   0.901  0.00  0.00     0.297 C 
BRANCH  11  12
HETATM   12  N   UNK N   1      22.782  14.586   1.087  0.00  0.00     0.082 N 
HETATM   13  C   UNK N   1      22.572  14.751   2.514  0.00  0.00     0.309 C 
HETATM   14  C   UNK N   1      21.938  13.485   0.660  0.00  0.00     0.309 C 
ENDBRANCH  11  12
ENDBRANCH  10  11
ENDBRANCH   9  10
ENDBRANCH   6   9
ENDBRANCH   1   3
BRANCH   1  15
HETATM   15  C   UNK N   1      29.154  17.568   6.471  0.00  0.00    -0.024 A 
HETATM   16  C   UNK N   1      30.468  17.326   6.022  0.00  0.00     0.015 A 
HETATM   17  C   UNK N   1      31.520  17.091   6.911  0.00  0.00     0.037 A 
HETATM   18  C   UNK N   1      31.281  17.087   8.283  0.00  0.00     0.065 A 
HETATM   19  C   UNK N   1      29.994  17.318   8.761  0.00  0.00     0.037 A 
HETATM   20  C   UNK N   1      28.949  17.558   7.866  0.00  0.00     0.015 A 
BRANCH  18  21
HETATM   21  O   UNK N   1      32.290  16.863   9.141  0.00  0.00    -0.361 OA
HETATM   22  H   UNK N   1      32.501  15.987   9.397  0.00  0.00     0.217 HD
ENDBRANCH  18  21
ENDBRANCH   1  15
BRANCH   2  23
HETATM   23  C   UNK N   1      27.760  20.193   6.431  0.00  0.00     0.036 C 
HETATM   24  C   UNK N   1      26.564  21.019   6.871  0.00  0.00     0.010 C 
ENDBRANCH   2  23
BRANCH   2  25
HETATM   25  C   UNK N   1      26.310  19.519   4.464  0.00  0.00    -0.029 A 
HETATM   26  C   UNK N   1      26.601  20.389   3.398  0.00  0.00     0.012 A 
HETATM   27  C   UNK N   1      25.598  20.817   2.524  0.00  0.00     0.001 A 
HETATM   28  C   UNK N   1      24.280  20.401   2.715  0.00  0.00     0.000 A 
HETATM   29  C   UNK N   1      23.962  19.572   3.791  0.00  0.00     0.001 A 
HETATM   30  C   UNK N   1      24.966  19.150   4.667  0.00  0.00     0.012 A 
ENDBRANCH   2  25
TORSDOF 9
ENDMDL
MODEL 6
REMARK VINA RESULT:      -6.3     10.397     13.407
REMARK  9 active torsions:
REMARK  status: ('A' for Active; 'I' for Inactive)
REMARK    1  A    between atoms: O_1  and  C_12 
REMARK    2  A    between atoms: O_1  and  C_20 
REMARK    3  A    between atoms: N_2  and  C_19 
REMARK    4  A    between atoms: C_3  and  C_5 
REMARK    5  A    between atoms: C_3  and  C_7 
REMARK    6  A    between atoms: C_4  and  C_6 
REMARK    7  A    between atoms: C_4  and  C_8 
REMARK    8  A    between atoms: C_19  and  C_20 
REMARK    9  A    between atoms: C_25  and  O_29 
ROOT
HETATM    1  C   UNK N   1      26.867  18.430   5.251  0.00  0.00    -0.009 C 
HETATM    2  C   UNK N   1      27.394  19.083   6.373  0.00  0.00    -0.036 C 
ENDROOT
BRANCH   1   3
HETATM    3  C   UNK N   1      27.473  17.127   4.736  0.00  0.00    -0.024 A 
HETATM    4  C   UNK N   1      27.125  15.886   5.303  0.00  0.00     0.015 A 
HETATM    5  C   UNK N   1      27.632  14.687   4.797  0.00  0.00     0.037 A 
HETATM    6  C   UNK N   1      28.501  14.694   3.705  0.00  0.00     0.068 A 
HETATM    7  C   UNK N   1      28.839  15.919   3.110  0.00  0.00     0.037 A 
HETATM    8  C   UNK N   1      28.315  17.112   3.610  0.00  0.00     0.015 A 
BRANCH   6   9
HETATM    9  O   UNK N   1      29.001  13.521   3.247  0.00  0.00    -0.349 OA
BRANCH   9  10
HETATM   10  C   UNK N   1      28.241  12.379   3.098  0.00  0.00     0.206 C 
BRANCH  10  11
HETATM   11  C   UNK N   1      27.442  12.467   1.808  0.00  0.00     0.297 C 
BRANCH  11  12
HETATM   12  N   UNK N   1      26.025  12.346   2.096  0.00  0.00     0.082 N 
HETATM   13  C   UNK N   1      25.458  11.460   1.097  0.00  0.00     0.309 C 
HETATM   14  C   UNK N   1      25.434  13.655   1.886  0.00  0.00     0.309 C 
ENDBRANCH  11  12
ENDBRANCH  10  11
ENDBRANCH   9  10
ENDBRANCH   6   9
ENDBRANCH   1   3
BRANCH   1  15
HETATM   15  C   UNK N   1      25.714  19.042   4.435  0.00  0.00    -0.024 A 
HETATM   16  C   UNK N   1      24.364  18.708   4.658  0.00  0.00     0.015 A 
HETATM   17  C   UNK N   1      23.329  19.288   3.920  0.00  0.00     0.037 A 
HETATM   18  C   UNK N   1      23.621  20.221   2.929  0.00  0.00     0.065 A 
HETATM   19  C   UNK N   1      24.945  20.570   2.677  0.00  0.00     0.037 A 
HETATM   20  C   UNK N   1      25.975  19.991   3.424  0.00  0.00     0.015 A 
BRANCH  18  21
HETATM   21  O   UNK N   1      22.628  20.781   2.218  0.00  0.00    -0.361 OA
HETATM   22  H   UNK N   1      22.713  20.875   1.290  0.00  0.00     0.217 HD
ENDBRANCH  18  21
ENDBRANCH   1  15
BRANCH   2  23
HETATM   23  C   UNK N   1      26.898  20.453   6.769  0.00  0.00     0.036 C 
HETATM   24  C   UNK N   1      27.773  21.554   6.196  0.00  0.00     0.010 C 
ENDBRANCH   2  23
BRANCH   2  25
HETATM   25  C   UNK N   1      28.419  18.501   7.319  0.00  0.00    -0.029 A 
HETATM   26  C   UNK N   1      29.635  17.963   6.862  0.00  0.00     0.012 A 
HETATM   27  C   UNK N   1      30.537  17.367   7.748  0.00  0.00     0.001 A 
HETATM   28  C   UNK N   1      30.226  17.278   9.106  0.00  0.00     0.000 A 
HETATM   29  C   UNK N   1      29.006  17.767   9.573  0.00  0.00     0.001 A 
HETATM   30  C   UNK N   1      28.104  18.357   8.684  0.00  0.00     0.012 A 
ENDBRANCH   2  25
TORSDOF 9
ENDMDL
MODEL 7
REMARK VINA RESULT:      -6.3     17.240     22.080
REMARK  9 active torsions:
REMARK  status: ('A' for Active; 'I' for Inactive)
REMARK    1  A    between atoms: O_1  and  C_12 
REMARK    2  A    between atoms: O_1  and  C_20 
REMARK    3  A    between atoms: N_2  and  C_19 
REMARK    4  A    between atoms: C_3  and  C_5 
REMARK    5  A    between atoms: C_3  and  C_7 
REMARK    6  A    between atoms: C_4  and  C_6 
REMARK    7  A    between atoms: C_4  and  C_8 
REMARK    8  A    between atoms: C_19  and  C_20 
REMARK    9  A    between atoms: C_25  and  O_29 
ROOT
HETATM    1  C   UNK N   1      36.305  13.301  13.179  0.00  0.00    -0.009 C 
HETATM    2  C   UNK N   1      37.155  12.270  12.757  0.00  0.00    -0.036 C 
ENDROOT
BRANCH   1   3
HETATM    3  C   UNK N   1      35.702  14.287  12.183  0.00  0.00    -0.024 A 
HETATM    4  C   UNK N   1      36.320  15.525  11.915  0.00  0.00     0.015 A 
HETATM    5  C   UNK N   1      35.802  16.405  10.961  0.00  0.00     0.037 A 
HETATM    6  C   UNK N   1      34.653  16.070  10.244  0.00  0.00     0.068 A 
HETATM    7  C   UNK N   1      34.039  14.831  10.478  0.00  0.00     0.037 A 
HETATM    8  C   UNK N   1      34.570  13.949  11.420  0.00  0.00     0.015 A 
BRANCH   6   9
HETATM    9  O   UNK N   1      34.155  16.951   9.342  0.00  0.00    -0.349 OA
BRANCH   9  10
HETATM   10  C   UNK N   1      33.542  16.569   8.167  0.00  0.00     0.206 C 
BRANCH  10  11
HETATM   11  C   UNK N   1      33.982  17.491   7.042  0.00  0.00     0.297 C 
BRANCH  11  12
HETATM   12  N   UNK N   1      32.989  17.489   5.985  0.00  0.00     0.082 N 
HETATM   13  C   UNK N   1      31.772  16.924   6.539  0.00  0.00     0.309 C 
HETATM   14  C   UNK N   1      33.456  16.571   4.962  0.00  0.00     0.309 C 
ENDBRANCH  11  12
ENDBRANCH  10  11
ENDBRANCH   9  10
ENDBRANCH   6   9
ENDBRANCH   1   3
BRANCH   1  15
HETATM   15  C   UNK N   1      36.014  13.540  14.672  0.00  0.00    -0.024 A 
HETATM   16  C   UNK N   1      34.933  12.934  15.341  0.00  0.00     0.015 A 
HETATM   17  C   UNK N   1      34.694  13.148  16.702  0.00  0.00     0.037 A 
HETATM   18  C   UNK N   1      35.536  13.983  17.431  0.00  0.00     0.065 A 
HETATM   19  C   UNK N   1      36.612  14.603  16.800  0.00  0.00     0.037 A 
HETATM   20  C   UNK N   1      36.848  14.379  15.441  0.00  0.00     0.015 A 
BRANCH  18  21
HETATM   21  O   UNK N   1      35.311  14.190  18.739  0.00  0.00    -0.361 OA
HETATM   22  H   UNK N   1      35.400  15.050  19.099  0.00  0.00     0.217 HD
ENDBRANCH  18  21
ENDBRANCH   1  15
BRANCH   2  23
HETATM   23  C   UNK N   1      37.879  11.409  13.765  0.00  0.00     0.036 C 
HETATM   24  C   UNK N   1      37.086  10.162  14.111  0.00  0.00     0.010 C 
ENDBRANCH   2  23
BRANCH   2  25
HETATM   25  C   UNK N   1      37.387  11.865  11.320  0.00  0.00    -0.029 A 
HETATM   26  C   UNK N   1      38.363  12.485  10.519  0.00  0.00     0.012 A 
HETATM   27  C   UNK N   1      38.513  12.142   9.172  0.00  0.00     0.001 A 
HETATM   28  C   UNK N   1      37.672  11.188   8.597  0.00  0.00     0.000 A 
HETATM   29  C   UNK N   1      36.670  10.593   9.362  0.00  0.00     0.001 A 
HETATM   30  C   UNK N   1      36.519  10.941  10.707  0.00  0.00     0.012 A 
ENDBRANCH   2  25
TORSDOF 9
ENDMDL
MODEL 8
REMARK VINA RESULT:      -6.2     11.595     14.331
REMARK  9 active torsions:
REMARK  status: ('A' for Active; 'I' for Inactive)
REMARK    1  A    between atoms: O_1  and  C_12 
REMARK    2  A    between atoms: O_1  and  C_20 
REMARK    3  A    between atoms: N_2  and  C_19 
REMARK    4  A    between atoms: C_3  and  C_5 
REMARK    5  A    between atoms: C_3  and  C_7 
REMARK    6  A    between atoms: C_4  and  C_6 
REMARK    7  A    between atoms: C_4  and  C_8 
REMARK    8  A    between atoms: C_19  and  C_20 
REMARK    9  A    between atoms: C_25  and  O_29 
ROOT
HETATM    1  C   UNK N   1      28.758  16.198   4.138  0.00  0.00    -0.009 C 
HETATM    2  C   UNK N   1      27.700  17.116   4.130  0.00  0.00    -0.036 C 
ENDROOT
BRANCH   1   3
HETATM    3  C   UNK N   1      30.118  16.563   4.726  0.00  0.00    -0.024 A 
HETATM    4  C   UNK N   1      31.071  17.276   3.974  0.00  0.00     0.015 A 
HETATM    5  C   UNK N   1      32.295  17.663   4.529  0.00  0.00     0.037 A 
HETATM    6  C   UNK N   1      32.598  17.349   5.854  0.00  0.00     0.068 A 
HETATM    7  C   UNK N   1      31.650  16.662   6.627  0.00  0.00     0.037 A 
HETATM    8  C   UNK N   1      30.424  16.293   6.072  0.00  0.00     0.015 A 
BRANCH   6   9
HETATM    9  O   UNK N   1      33.801  17.711   6.362  0.00  0.00    -0.349 OA
BRANCH   9  10
HETATM   10  C   UNK N   1      34.517  16.932   7.246  0.00  0.00     0.206 C 
BRANCH  10  11
HETATM   11  C   UNK N   1      34.534  17.598   8.611  0.00  0.00     0.297 C 
BRANCH  11  12
HETATM   12  N   UNK N   1      34.314  16.606   9.647  0.00  0.00     0.082 N 
HETATM   13  C   UNK N   1      35.411  16.718  10.590  0.00  0.00     0.309 C 
HETATM   14  C   UNK N   1      34.427  15.302   9.020  0.00  0.00     0.309 C 
ENDBRANCH  11  12
ENDBRANCH  10  11
ENDBRANCH   9  10
ENDBRANCH   6   9
ENDBRANCH   1   3
BRANCH   1  15
HETATM   15  C   UNK N   1      28.624  14.815   3.475  0.00  0.00    -0.024 A 
HETATM   16  C   UNK N   1      28.154  13.683   4.167  0.00  0.00     0.015 A 
HETATM   17  C   UNK N   1      28.021  12.439   3.544  0.00  0.00     0.037 A 
HETATM   18  C   UNK N   1      28.364  12.295   2.202  0.00  0.00     0.065 A 
HETATM   19  C   UNK N   1      28.838  13.392   1.488  0.00  0.00     0.037 A 
HETATM   20  C   UNK N   1      28.961  14.634   2.117  0.00  0.00     0.015 A 
BRANCH  18  21
HETATM   21  O   UNK N   1      28.237  11.101   1.600  0.00  0.00    -0.361 OA
HETATM   22  H   UNK N   1      28.741  10.907   0.835  0.00  0.00     0.217 HD
ENDBRANCH  18  21
ENDBRANCH   1  15
BRANCH   2  23
HETATM   23  C   UNK N   1      26.417  16.806   3.395  0.00  0.00     0.036 C 
HETATM   24  C   UNK N   1      25.296  16.442   4.352  0.00  0.00     0.010 C 
ENDBRANCH   2  23
BRANCH   2  25
HETATM   25  C   UNK N   1      27.681  18.432   4.874  0.00  0.00    -0.029 A 
HETATM   26  C   UNK N   1      27.767  18.497   6.276  0.00  0.00     0.012 A 
HETATM   27  C   UNK N   1      27.677  19.720   6.946  0.00  0.00     0.001 A 
HETATM   28  C   UNK N   1      27.474  20.898   6.226  0.00  0.00     0.000 A 
HETATM   29  C   UNK N   1      27.343  20.850   4.839  0.00  0.00     0.001 A 
HETATM   30  C   UNK N   1      27.429  19.626   4.171  0.00  0.00     0.012 A 
ENDBRANCH   2  25
TORSDOF 9
ENDMDL
MODEL 9
REMARK VINA RESULT:      -6.2     10.175     13.071
REMARK  9 active torsions:
REMARK  status: ('A' for Active; 'I' for Inactive)
REMARK    1  A    between atoms: O_1  and  C_12 
REMARK    2  A    between atoms: O_1  and  C_20 
REMARK    3  A    between atoms: N_2  and  C_19 
REMARK    4  A    between atoms: C_3  and  C_5 
REMARK    5  A    between atoms: C_3  and  C_7 
REMARK    6  A    between atoms: C_4  and  C_6 
REMARK    7  A    between atoms: C_4  and  C_8 
REMARK    8  A    between atoms: C_19  and  C_20 
REMARK    9  A    between atoms: C_25  and  O_29 
ROOT
HETATM    1  C   UNK N   1      26.874  18.430   5.226  0.00  0.00    -0.009 C 
HETATM    2  C   UNK N   1      27.394  19.067   6.360  0.00  0.00    -0.036 C 
ENDROOT
BRANCH   1   3
HETATM    3  C   UNK N   1      27.488  17.139   4.692  0.00  0.00    -0.024 A 
HETATM    4  C   UNK N   1      28.417  17.155   3.634  0.00  0.00     0.015 A 
HETATM    5  C   UNK N   1      29.025  15.981   3.182  0.00  0.00     0.037 A 
HETATM    6  C   UNK N   1      28.723  14.756   3.778  0.00  0.00     0.068 A 
HETATM    7  C   UNK N   1      27.820  14.723   4.851  0.00  0.00     0.037 A 
HETATM    8  C   UNK N   1      27.229  15.901   5.309  0.00  0.00     0.015 A 
BRANCH   6   9
HETATM    9  O   UNK N   1      29.306  13.627   3.305  0.00  0.00    -0.349 OA
BRANCH   9  10
HETATM   10  C   UNK N   1      30.554  13.606   2.718  0.00  0.00     0.206 C 
BRANCH  10  11
HETATM   11  C   UNK N   1      31.618  13.477   3.796  0.00  0.00     0.297 C 
BRANCH  11  12
HETATM   12  N   UNK N   1      32.938  13.555   3.197  0.00  0.00     0.082 N 
HETATM   13  C   UNK N   1      33.236  14.961   2.994  0.00  0.00     0.309 C 
HETATM   14  C   UNK N   1      32.846  12.948   1.882  0.00  0.00     0.309 C 
ENDBRANCH  11  12
ENDBRANCH  10  11
ENDBRANCH   9  10
ENDBRANCH   6   9
ENDBRANCH   1   3
BRANCH   1  15
HETATM   15  C   UNK N   1      25.720  19.049   4.417  0.00  0.00    -0.024 A 
HETATM   16  C   UNK N   1      24.370  18.723   4.650  0.00  0.00     0.015 A 
HETATM   17  C   UNK N   1      23.333  19.309   3.918  0.00  0.00     0.037 A 
HETATM   18  C   UNK N   1      23.625  20.240   2.925  0.00  0.00     0.065 A 
HETATM   19  C   UNK N   1      24.949  20.581   2.664  0.00  0.00     0.037 A 
HETATM   20  C   UNK N   1      25.980  19.996   3.404  0.00  0.00     0.015 A 
BRANCH  18  21
HETATM   21  O   UNK N   1      22.631  20.806   2.220  0.00  0.00    -0.361 OA
HETATM   22  H   UNK N   1      22.744  21.661   1.855  0.00  0.00     0.217 HD
ENDBRANCH  18  21
ENDBRANCH   1  15
BRANCH   2  23
HETATM   23  C   UNK N   1      26.890  20.428   6.777  0.00  0.00     0.036 C 
HETATM   24  C   UNK N   1      27.755  21.543   6.216  0.00  0.00     0.010 C 
ENDBRANCH   2  23
BRANCH   2  25
HETATM   25  C   UNK N   1      28.420  18.476   7.299  0.00  0.00    -0.029 A 
HETATM   26  C   UNK N   1      29.656  17.983   6.841  0.00  0.00     0.012 A 
HETATM   27  C   UNK N   1      30.559  17.377   7.718  0.00  0.00     0.001 A 
HETATM   28  C   UNK N   1      30.233  17.231   9.067  0.00  0.00     0.000 A 
HETATM   29  C   UNK N   1      28.995  17.674   9.534  0.00  0.00     0.001 A 
HETATM   30  C   UNK N   1      28.091  18.275   8.654  0.00  0.00     0.012 A 
ENDBRANCH   2  25
TORSDOF 9
ENDMDL
