MODEL 1
REMARK VINA RESULT:      -6.8      0.000      0.000
REMARK  3 active torsions:
REMARK  status: ('A' for Active; 'I' for Inactive)
REMARK    1  A    between atoms: C_8  and  O_1 
REMARK    2  A    between atoms: O_2  and  C_20 
REMARK    3  A    between atoms: O_3  and  C_21 
ROOT
HETATM    1  C   UNK N   1      26.523  17.539   4.794  0.00  0.00    -0.014 C 
HETATM    2  C   UNK N   1      26.059  18.923   4.401  0.00  0.00     0.001 C 
HETATM    3  C   UNK N   1      24.743  18.947   3.624  0.00  0.00    -0.001 C 
HETATM    4  C   UNK N   1      23.699  18.231   4.495  0.00  0.00     0.024 C 
HETATM    5  C   UNK N   1      27.800  17.931   5.508  0.00  0.00     0.126 C 
HETATM    6  C   UNK N   1      25.473  16.883   5.687  0.00  0.00     0.013 C 
HETATM    7  C   UNK N   1      27.286  19.593   3.801  0.00  0.00     0.008 C 
HETATM    8  C   UNK N   1      24.128  16.823   4.951  0.00  0.00     0.010 C 
HETATM    9  C   UNK N   1      28.449  18.968   4.587  0.00  0.00     0.033 C 
HETATM   10  C   UNK N   1      24.292  20.399   3.472  0.00  0.00     0.010 C 
HETATM   11  C   UNK N   1      26.811  16.650   3.573  0.00  0.00     0.018 C 
HETATM   12  C   UNK N   1      22.315  18.308   3.908  0.00  0.00    -0.044 A 
HETATM   13  C   UNK N   1      22.902  20.547   2.839  0.00  0.00     0.039 C 
HETATM   14  C   UNK N   1      21.930  19.442   3.161  0.00  0.00    -0.049 A 
HETATM   15  C   UNK N   1      21.386  17.281   4.128  0.00  0.00     0.047 A 
HETATM   16  C   UNK N   1      20.623  19.537   2.673  0.00  0.00     0.047 A 
HETATM   17  C   UNK N   1      20.078  17.374   3.627  0.00  0.00     0.101 A 
HETATM   18  C   UNK N   1      19.697  18.517   2.910  0.00  0.00     0.099 A 
ENDROOT
BRANCH   5  19
HETATM   19  O   UNK N   1      28.642  16.847   5.762  0.00  0.00    -0.395 OA
HETATM   20  H   UNK N   1      29.602  16.913   5.637  0.00  0.00     0.210 HD
ENDBRANCH   5  19
BRANCH  17  21
HETATM   21  O   UNK N   1      19.177  16.380   3.823  0.00  0.00    -0.353 OA
HETATM   22  C   UNK N   1      18.961  15.789   5.049  0.00  0.00     0.210 C 
ENDBRANCH  17  21
BRANCH  18  23
HETATM   23  O   UNK N   1      18.444  18.636   2.441  0.00  0.00    -0.358 OA
HETATM   24  H   UNK N   1      18.094  17.995   1.853  0.00  0.00     0.217 HD
ENDBRANCH  18  23
TORSDOF 3
ENDMDL
MODEL 2
REMARK VINA RESULT:      -6.8     11.528     13.809
REMARK  3 active torsions:
REMARK  status: ('A' for Active; 'I' for Inactive)
REMARK    1  A    between atoms: C_8  and  O_1 
REMARK    2  A    between atoms: O_2  and  C_20 
REMARK    3  A    between atoms: O_3  and  C_21 
ROOT
HETATM    1  C   UNK N   1      26.870  22.250  -8.471  0.00  0.00    -0.014 C 
HETATM    2  C   UNK N   1      27.093  23.390  -7.504  0.00  0.00     0.001 C 
HETATM    3  C   UNK N   1      27.772  22.982  -6.197  0.00  0.00    -0.001 C 
HETATM    4  C   UNK N   1      29.096  22.301  -6.577  0.00  0.00     0.024 C 
HETATM    5  C   UNK N   1      26.204  23.033  -9.584  0.00  0.00     0.126 C 
HETATM    6  C   UNK N   1      28.213  21.629  -8.847  0.00  0.00     0.013 C 
HETATM    7  C   UNK N   1      25.762  24.126  -7.451  0.00  0.00     0.008 C 
HETATM    8  C   UNK N   1      28.935  21.145  -7.583  0.00  0.00     0.010 C 
HETATM    9  C   UNK N   1      25.195  23.933  -8.866  0.00  0.00     0.033 C 
HETATM   10  C   UNK N   1      28.118  24.247  -5.412  0.00  0.00     0.010 C 
HETATM   11  C   UNK N   1      25.930  21.175  -7.899  0.00  0.00     0.018 C 
HETATM   12  C   UNK N   1      29.937  21.975  -5.372  0.00  0.00    -0.044 A 
HETATM   13  C   UNK N   1      28.941  23.976  -4.145  0.00  0.00     0.039 C 
HETATM   14  C   UNK N   1      29.892  22.810  -4.236  0.00  0.00    -0.049 A 
HETATM   15  C   UNK N   1      30.799  20.869  -5.379  0.00  0.00     0.047 A 
HETATM   16  C   UNK N   1      30.723  22.539  -3.144  0.00  0.00     0.047 A 
HETATM   17  C   UNK N   1      31.623  20.591  -4.277  0.00  0.00     0.101 A 
HETATM   18  C   UNK N   1      31.592  21.444  -3.165  0.00  0.00     0.099 A 
ENDROOT
BRANCH   5  19
HETATM   19  O   UNK N   1      25.599  22.218 -10.542  0.00  0.00    -0.395 OA
HETATM   20  H   UNK N   1      25.954  21.339 -10.753  0.00  0.00     0.210 HD
ENDBRANCH   5  19
BRANCH  17  21
HETATM   21  O   UNK N   1      32.449  19.516  -4.269  0.00  0.00    -0.353 OA
HETATM   22  C   UNK N   1      33.625  19.463  -4.986  0.00  0.00     0.210 C 
ENDBRANCH  17  21
BRANCH  18  23
HETATM   23  O   UNK N   1      32.388  21.210  -2.109  0.00  0.00    -0.358 OA
HETATM   24  H   UNK N   1      32.312  21.729  -1.332  0.00  0.00     0.217 HD
ENDBRANCH  18  23
TORSDOF 3
ENDMDL
MODEL 3
REMARK VINA RESULT:      -6.8     15.405     18.176
REMARK  3 active torsions:
REMARK  status: ('A' for Active; 'I' for Inactive)
REMARK    1  A    between atoms: C_8  and  O_1 
REMARK    2  A    between atoms: O_2  and  C_20 
REMARK    3  A    between atoms: O_3  and  C_21 
ROOT
HETATM    1  C   UNK N   1      35.768  11.805  11.951  0.00  0.00    -0.014 C 
HETATM    2  C   UNK N   1      35.331  10.640  12.810  0.00  0.00     0.001 C 
HETATM    3  C   UNK N   1      35.669  10.791  14.293  0.00  0.00    -0.001 C 
HETATM    4  C   UNK N   1      35.029  12.106  14.764  0.00  0.00     0.024 C 
HETATM    5  C   UNK N   1      35.274  11.290  10.615  0.00  0.00     0.126 C 
HETATM    6  C   UNK N   1      35.080  13.080  12.433  0.00  0.00     0.013 C 
HETATM    7  C   UNK N   1      35.805   9.403  12.063  0.00  0.00     0.008 C 
HETATM    8  C   UNK N   1      35.417  13.327  13.909  0.00  0.00     0.010 C 
HETATM    9  C   UNK N   1      35.711   9.823  10.588  0.00  0.00     0.033 C 
HETATM   10  C   UNK N   1      34.998   9.654  15.064  0.00  0.00     0.010 C 
HETATM   11  C   UNK N   1      37.294  11.993  11.954  0.00  0.00     0.018 C 
HETATM   12  C   UNK N   1      35.165  12.308  16.250  0.00  0.00    -0.044 A 
HETATM   13  C   UNK N   1      35.139   9.781  16.587  0.00  0.00     0.039 C 
HETATM   14  C   UNK N   1      35.166  11.192  17.113  0.00  0.00    -0.049 A 
HETATM   15  C   UNK N   1      35.252  13.598  16.791  0.00  0.00     0.047 A 
HETATM   16  C   UNK N   1      35.228  11.389  18.496  0.00  0.00     0.047 A 
HETATM   17  C   UNK N   1      35.327  13.792  18.180  0.00  0.00     0.101 A 
HETATM   18  C   UNK N   1      35.298  12.679  19.031  0.00  0.00     0.099 A 
ENDROOT
BRANCH   5  19
HETATM   19  O   UNK N   1      35.775  12.012   9.530  0.00  0.00    -0.395 OA
HETATM   20  H   UNK N   1      36.069  11.566   8.720  0.00  0.00     0.210 HD
ENDBRANCH   5  19
BRANCH  17  21
HETATM   21  O   UNK N   1      35.425  15.036  18.712  0.00  0.00    -0.353 OA
HETATM   22  C   UNK N   1      36.167  16.045  18.139  0.00  0.00     0.210 C 
ENDBRANCH  17  21
BRANCH  18  23
HETATM   23  O   UNK N   1      35.346  12.843  20.363  0.00  0.00    -0.358 OA
HETATM   24  H   UNK N   1      36.132  13.144  20.777  0.00  0.00     0.217 HD
ENDBRANCH  18  23
TORSDOF 3
ENDMDL
MODEL 4
REMARK VINA RESULT:      -6.7     12.650     14.476
REMARK  3 active torsions:
REMARK  status: ('A' for Active; 'I' for Inactive)
REMARK    1  A    between atoms: C_8  and  O_1 
REMARK    2  A    between atoms: O_2  and  C_20 
REMARK    3  A    between atoms: O_3  and  C_21 
ROOT
HETATM    1  C   UNK N   1      26.593  28.331  -4.738  0.00  0.00    -0.014 C 
HETATM    2  C   UNK N   1      27.196  28.529  -6.110  0.00  0.00     0.001 C 
HETATM    3  C   UNK N   1      27.398  27.236  -6.900  0.00  0.00    -0.001 C 
HETATM    4  C   UNK N   1      26.028  26.546  -6.984  0.00  0.00     0.024 C 
HETATM    5  C   UNK N   1      26.560  29.781  -4.302  0.00  0.00     0.126 C 
HETATM    6  C   UNK N   1      25.220  27.678  -4.874  0.00  0.00     0.013 C 
HETATM    7  C   UNK N   1      28.381  29.456  -5.888  0.00  0.00     0.008 C 
HETATM    8  C   UNK N   1      25.351  26.341  -5.615  0.00  0.00     0.010 C 
HETATM    9  C   UNK N   1      27.928  30.334  -4.712  0.00  0.00     0.033 C 
HETATM   10  C   UNK N   1      27.816  27.595  -8.326  0.00  0.00     0.010 C 
HETATM   11  C   UNK N   1      27.493  27.487  -3.821  0.00  0.00     0.018 C 
HETATM   12  C   UNK N   1      26.056  25.324  -7.862  0.00  0.00    -0.044 A 
HETATM   13  C   UNK N   1      27.904  26.383  -9.263  0.00  0.00     0.039 C 
HETATM   14  C   UNK N   1      26.920  25.278  -8.976  0.00  0.00    -0.049 A 
HETATM   15  C   UNK N   1      25.202  24.241  -7.609  0.00  0.00     0.047 A 
HETATM   16  C   UNK N   1      26.896  24.168  -9.826  0.00  0.00     0.047 A 
HETATM   17  C   UNK N   1      25.188  23.122  -8.457  0.00  0.00     0.101 A 
HETATM   18  C   UNK N   1      26.030  23.099  -9.577  0.00  0.00     0.099 A 
ENDROOT
BRANCH   5  19
HETATM   19  O   UNK N   1      26.312  29.938  -2.938  0.00  0.00    -0.395 OA
HETATM   20  H   UNK N   1      25.469  29.663  -2.544  0.00  0.00     0.210 HD
ENDBRANCH   5  19
BRANCH  17  21
HETATM   21  O   UNK N   1      24.375  22.064  -8.212  0.00  0.00    -0.353 OA
HETATM   22  C   UNK N   1      24.442  21.312  -7.060  0.00  0.00     0.210 C 
ENDBRANCH  17  21
BRANCH  18  23
HETATM   23  O   UNK N   1      26.017  22.048 -10.414  0.00  0.00    -0.358 OA
HETATM   24  H   UNK N   1      25.334  21.956 -11.051  0.00  0.00     0.217 HD
ENDBRANCH  18  23
TORSDOF 3
ENDMDL
MODEL 5
REMARK VINA RESULT:      -6.7     16.186     19.104
REMARK  3 active torsions:
REMARK  status: ('A' for Active; 'I' for Inactive)
REMARK    1  A    between atoms: C_8  and  O_1 
REMARK    2  A    between atoms: O_2  and  C_20 
REMARK    3  A    between atoms: O_3  and  C_21 
ROOT
HETATM    1  C   UNK N   1      36.243  11.773  13.443  0.00  0.00    -0.014 C 
HETATM    2  C   UNK N   1      36.297  12.950  14.389  0.00  0.00     0.001 C 
HETATM    3  C   UNK N   1      35.575  12.722  15.718  0.00  0.00    -0.001 C 
HETATM    4  C   UNK N   1      36.192  11.465  16.349  0.00  0.00     0.024 C 
HETATM    5  C   UNK N   1      37.034  12.375  12.299  0.00  0.00     0.126 C 
HETATM    6  C   UNK N   1      36.900  10.561  14.098  0.00  0.00     0.013 C 
HETATM    7  C   UNK N   1      35.923  14.155  13.539  0.00  0.00     0.008 C 
HETATM    8  C   UNK N   1      36.191  10.236  15.420  0.00  0.00     0.010 C 
HETATM    9  C   UNK N   1      36.470  13.791  12.151  0.00  0.00     0.033 C 
HETATM   10  C   UNK N   1      35.880  13.897  16.646  0.00  0.00     0.010 C 
HETATM   11  C   UNK N   1      34.806  11.432  13.015  0.00  0.00     0.018 C 
HETATM   12  C   UNK N   1      35.668  11.206  17.737  0.00  0.00    -0.044 A 
HETATM   13  C   UNK N   1      35.332  13.712  18.068  0.00  0.00     0.039 C 
HETATM   14  C   UNK N   1      35.308  12.289  18.565  0.00  0.00    -0.049 A 
HETATM   15  C   UNK N   1      35.570   9.898  18.232  0.00  0.00     0.047 A 
HETATM   16  C   UNK N   1      34.882  12.046  19.875  0.00  0.00     0.047 A 
HETATM   17  C   UNK N   1      35.130   9.656  19.543  0.00  0.00     0.101 A 
HETATM   18  C   UNK N   1      34.802  10.740  20.368  0.00  0.00     0.099 A 
ENDROOT
BRANCH   5  19
HETATM   19  O   UNK N   1      36.936  11.639  11.117  0.00  0.00    -0.395 OA
HETATM   20  H   UNK N   1      37.717  11.235  10.708  0.00  0.00     0.210 HD
ENDBRANCH   5  19
BRANCH  17  21
HETATM   21  O   UNK N   1      35.019   8.393  20.026  0.00  0.00    -0.353 OA
HETATM   22  C   UNK N   1      34.043   7.513  19.616  0.00  0.00     0.210 C 
ENDBRANCH  17  21
BRANCH  18  23
HETATM   23  O   UNK N   1      34.401  10.533  21.633  0.00  0.00    -0.358 OA
HETATM   24  H   UNK N   1      34.984  10.698  22.350  0.00  0.00     0.217 HD
ENDBRANCH  18  23
TORSDOF 3
ENDMDL
MODEL 6
REMARK VINA RESULT:      -6.6     11.700     13.410
REMARK  3 active torsions:
REMARK  status: ('A' for Active; 'I' for Inactive)
REMARK    1  A    between atoms: C_8  and  O_1 
REMARK    2  A    between atoms: O_2  and  C_20 
REMARK    3  A    between atoms: O_3  and  C_21 
ROOT
HETATM    1  C   UNK N   1      27.012  26.242  -4.467  0.00  0.00    -0.014 C 
HETATM    2  C   UNK N   1      26.146  25.566  -5.505  0.00  0.00     0.001 C 
HETATM    3  C   UNK N   1      26.901  24.608  -6.427  0.00  0.00    -0.001 C 
HETATM    4  C   UNK N   1      27.600  23.580  -5.524  0.00  0.00     0.024 C 
HETATM    5  C   UNK N   1      25.938  27.070  -3.791  0.00  0.00     0.126 C 
HETATM    6  C   UNK N   1      27.654  25.185  -3.572  0.00  0.00     0.013 C 
HETATM    7  C   UNK N   1      25.320  26.687  -6.117  0.00  0.00     0.008 C 
HETATM    8  C   UNK N   1      28.478  24.211  -4.426  0.00  0.00     0.010 C 
HETATM    9  C   UNK N   1      25.133  27.667  -4.948  0.00  0.00     0.033 C 
HETATM   10  C   UNK N   1      25.885  23.850  -7.280  0.00  0.00     0.010 C 
HETATM   11  C   UNK N   1      28.095  27.132  -5.099  0.00  0.00     0.018 C 
HETATM   12  C   UNK N   1      28.268  22.486  -6.313  0.00  0.00    -0.044 A 
HETATM   13  C   UNK N   1      26.512  22.746  -8.143  0.00  0.00     0.039 C 
HETATM   14  C   UNK N   1      27.711  22.063  -7.538  0.00  0.00    -0.049 A 
HETATM   15  C   UNK N   1      29.420  21.853  -5.826  0.00  0.00     0.047 A 
HETATM   16  C   UNK N   1      28.299  21.003  -8.235  0.00  0.00     0.047 A 
HETATM   17  C   UNK N   1      30.016  20.797  -6.534  0.00  0.00     0.101 A 
HETATM   18  C   UNK N   1      29.438  20.365  -7.735  0.00  0.00     0.099 A 
ENDROOT
BRANCH   5  19
HETATM   19  O   UNK N   1      26.455  28.051  -2.943  0.00  0.00    -0.395 OA
HETATM   20  H   UNK N   1      27.112  28.693  -3.256  0.00  0.00     0.210 HD
ENDBRANCH   5  19
BRANCH  17  21
HETATM   21  O   UNK N   1      31.138  20.188  -6.076  0.00  0.00    -0.353 OA
HETATM   22  C   UNK N   1      31.559  20.269  -4.768  0.00  0.00     0.210 C 
ENDBRANCH  17  21
BRANCH  18  23
HETATM   23  O   UNK N   1      29.978  19.342  -8.418  0.00  0.00    -0.358 OA
HETATM   24  H   UNK N   1      30.442  18.663  -7.968  0.00  0.00     0.217 HD
ENDBRANCH  18  23
TORSDOF 3
ENDMDL
MODEL 7
REMARK VINA RESULT:      -6.5      1.222      6.607
REMARK  3 active torsions:
REMARK  status: ('A' for Active; 'I' for Inactive)
REMARK    1  A    between atoms: C_8  and  O_1 
REMARK    2  A    between atoms: O_2  and  C_20 
REMARK    3  A    between atoms: O_3  and  C_21 
ROOT
HETATM    1  C   UNK N   1      21.405  18.115   3.815  0.00  0.00    -0.014 C 
HETATM    2  C   UNK N   1      22.269  19.169   3.160  0.00  0.00     0.001 C 
HETATM    3  C   UNK N   1      23.653  19.329   3.791  0.00  0.00    -0.001 C 
HETATM    4  C   UNK N   1      24.323  17.947   3.748  0.00  0.00     0.024 C 
HETATM    5  C   UNK N   1      20.178  18.264   2.940  0.00  0.00     0.126 C 
HETATM    6  C   UNK N   1      22.094  16.757   3.715  0.00  0.00     0.013 C 
HETATM    7  C   UNK N   1      21.369  20.388   3.029  0.00  0.00     0.008 C 
HETATM    8  C   UNK N   1      23.476  16.824   4.378  0.00  0.00     0.010 C 
HETATM    9  C   UNK N   1      19.975  19.777   2.823  0.00  0.00     0.033 C 
HETATM   10  C   UNK N   1      24.483  20.267   2.915  0.00  0.00     0.010 C 
HETATM   11  C   UNK N   1      21.093  18.445   5.284  0.00  0.00     0.018 C 
HETATM   12  C   UNK N   1      25.755  17.992   4.211  0.00  0.00    -0.044 A 
HETATM   13  C   UNK N   1      25.946  20.389   3.363  0.00  0.00     0.039 C 
HETATM   14  C   UNK N   1      26.534  19.145   3.978  0.00  0.00    -0.049 A 
HETATM   15  C   UNK N   1      26.338  16.883   4.841  0.00  0.00     0.047 A 
HETATM   16  C   UNK N   1      27.880  19.157   4.353  0.00  0.00     0.047 A 
HETATM   17  C   UNK N   1      27.688  16.902   5.227  0.00  0.00     0.101 A 
HETATM   18  C   UNK N   1      28.461  18.042   4.964  0.00  0.00     0.099 A 
ENDROOT
BRANCH   5  19
HETATM   19  O   UNK N   1      19.054  17.617   3.458  0.00  0.00    -0.395 OA
HETATM   20  H   UNK N   1      19.129  16.766   3.917  0.00  0.00     0.210 HD
ENDBRANCH   5  19
BRANCH  17  21
HETATM   21  O   UNK N   1      28.257  15.839   5.848  0.00  0.00    -0.353 OA
HETATM   22  C   UNK N   1      28.650  14.699   5.183  0.00  0.00     0.210 C 
ENDBRANCH  17  21
BRANCH  18  23
HETATM   23  O   UNK N   1      29.759  18.073   5.306  0.00  0.00    -0.358 OA
HETATM   24  H   UNK N   1      30.055  17.654   6.091  0.00  0.00     0.217 HD
ENDBRANCH  18  23
TORSDOF 3
ENDMDL
MODEL 8
REMARK VINA RESULT:      -6.4      4.413      9.418
REMARK  3 active torsions:
REMARK  status: ('A' for Active; 'I' for Inactive)
REMARK    1  A    between atoms: C_8  and  O_1 
REMARK    2  A    between atoms: O_2  and  C_20 
REMARK    3  A    between atoms: O_3  and  C_21 
ROOT
HETATM    1  C   UNK N   1      27.668  16.031   3.717  0.00  0.00    -0.014 C 
HETATM    2  C   UNK N   1      27.351  16.807   4.975  0.00  0.00     0.001 C 
HETATM    3  C   UNK N   1      28.413  16.692   6.069  0.00  0.00    -0.001 C 
HETATM    4  C   UNK N   1      29.743  17.148   5.449  0.00  0.00     0.024 C 
HETATM    5  C   UNK N   1      26.429  16.388   2.922  0.00  0.00     0.126 C 
HETATM    6  C   UNK N   1      28.975  16.543   3.118  0.00  0.00     0.013 C 
HETATM    7  C   UNK N   1      25.909  16.453   5.302  0.00  0.00     0.008 C 
HETATM    8  C   UNK N   1      30.107  16.409   4.146  0.00  0.00     0.010 C 
HETATM    9  C   UNK N   1      25.278  16.230   3.919  0.00  0.00     0.033 C 
HETATM   10  C   UNK N   1      28.071  17.675   7.188  0.00  0.00     0.010 C 
HETATM   11  C   UNK N   1      27.758  14.518   3.971  0.00  0.00     0.018 C 
HETATM   12  C   UNK N   1      30.853  17.219   6.463  0.00  0.00    -0.044 A 
HETATM   13  C   UNK N   1      29.147  17.762   8.278  0.00  0.00     0.039 C 
HETATM   14  C   UNK N   1      30.562  17.562   7.800  0.00  0.00    -0.049 A 
HETATM   15  C   UNK N   1      32.183  16.985   6.086  0.00  0.00     0.047 A 
HETATM   16  C   UNK N   1      31.604  17.689   8.724  0.00  0.00     0.047 A 
HETATM   17  C   UNK N   1      33.226  17.102   7.019  0.00  0.00     0.101 A 
HETATM   18  C   UNK N   1      32.930  17.472   8.338  0.00  0.00     0.099 A 
ENDROOT
BRANCH   5  19
HETATM   19  O   UNK N   1      26.260  15.595   1.786  0.00  0.00    -0.395 OA
HETATM   20  H   UNK N   1      25.798  15.931   1.001  0.00  0.00     0.210 HD
ENDBRANCH   5  19
BRANCH  17  21
HETATM   21  O   UNK N   1      34.514  16.865   6.666  0.00  0.00    -0.353 OA
HETATM   22  C   UNK N   1      34.936  15.682   6.101  0.00  0.00     0.210 C 
ENDBRANCH  17  21
BRANCH  18  23
HETATM   23  O   UNK N   1      33.915  17.611   9.240  0.00  0.00    -0.358 OA
HETATM   24  H   UNK N   1      34.181  18.464   9.525  0.00  0.00     0.217 HD
ENDBRANCH  18  23
TORSDOF 3
ENDMDL
MODEL 9
REMARK VINA RESULT:      -6.3     16.997     19.406
REMARK  3 active torsions:
REMARK  status: ('A' for Active; 'I' for Inactive)
REMARK    1  A    between atoms: C_8  and  O_1 
REMARK    2  A    between atoms: O_2  and  C_20 
REMARK    3  A    between atoms: O_3  and  C_21 
ROOT
HETATM    1  C   UNK N   1      35.315   9.261  18.879  0.00  0.00    -0.014 C 
HETATM    2  C   UNK N   1      34.964  10.731  18.840  0.00  0.00     0.001 C 
HETATM    3  C   UNK N   1      35.698  11.524  17.759  0.00  0.00    -0.001 C 
HETATM    4  C   UNK N   1      35.390  10.839  16.418  0.00  0.00     0.024 C 
HETATM    5  C   UNK N   1      34.421   8.853  20.032  0.00  0.00     0.126 C 
HETATM    6  C   UNK N   1      34.958   8.617  17.542  0.00  0.00     0.013 C 
HETATM    7  C   UNK N   1      35.052  11.194  20.287  0.00  0.00     0.008 C 
HETATM    8  C   UNK N   1      35.703   9.330  16.405  0.00  0.00     0.010 C 
HETATM    9  C   UNK N   1      34.630   9.948  21.082  0.00  0.00     0.033 C 
HETATM   10  C   UNK N   1      35.105  12.932  17.699  0.00  0.00     0.010 C 
HETATM   11  C   UNK N   1      36.798   9.023  19.204  0.00  0.00     0.018 C 
HETATM   12  C   UNK N   1      35.939  11.606  15.245  0.00  0.00    -0.044 A 
HETATM   13  C   UNK N   1      35.657  13.781  16.546  0.00  0.00     0.039 C 
HETATM   14  C   UNK N   1      36.015  13.014  15.299  0.00  0.00    -0.049 A 
HETATM   15  C   UNK N   1      36.341  10.939  14.079  0.00  0.00     0.047 A 
HETATM   16  C   UNK N   1      36.465  13.725  14.183  0.00  0.00     0.047 A 
HETATM   17  C   UNK N   1      36.804  11.655  12.963  0.00  0.00     0.101 A 
HETATM   18  C   UNK N   1      36.848  13.055  13.017  0.00  0.00     0.099 A 
ENDROOT
BRANCH   5  19
HETATM   19  O   UNK N   1      34.713   7.581  20.527  0.00  0.00    -0.395 OA
HETATM   20  H   UNK N   1      34.645   6.793  19.965  0.00  0.00     0.210 HD
ENDBRANCH   5  19
BRANCH  17  21
HETATM   21  O   UNK N   1      37.207  11.018  11.836  0.00  0.00    -0.353 OA
HETATM   22  C   UNK N   1      36.400  10.155  11.128  0.00  0.00     0.210 C 
ENDBRANCH  17  21
BRANCH  18  23
HETATM   23  O   UNK N   1      37.267  13.761  11.954  0.00  0.00    -0.358 OA
HETATM   24  H   UNK N   1      38.034  13.500  11.482  0.00  0.00     0.217 HD
ENDBRANCH  18  23
TORSDOF 3
ENDMDL
