MODEL 1
REMARK VINA RESULT:      -6.6      0.000      0.000
REMARK  9 active torsions:
REMARK  status: ('A' for Active; 'I' for Inactive)
REMARK    1  A    between atoms: C_10  and  O_11 
REMARK    2  A    between atoms: C_24  and  C_23 
REMARK    3  A    between atoms: C_23  and  O_30 
REMARK    4  A    between atoms: C_32  and  C_24 
REMARK    5  A    between atoms: O_30  and  C_26 
REMARK    6  A    between atoms: C_26  and  C_27 
REMARK    7  A    between atoms: C_32  and  O_33 
REMARK    8  A    between atoms: O_33  and  C_34 
REMARK    9  A    between atoms: C_34  and  C_36 
ROOT
HETATM    1  C   UNK N   1      35.125  11.134  14.946  0.00  0.00     0.022 A 
HETATM    2  C   UNK N   1      35.775   9.918  15.610  0.00  0.00    -0.062 A 
HETATM    3  C   UNK N   1      37.132   9.322  13.643  0.00  0.00     0.011 C 
HETATM    4  C   UNK N   1      36.208   8.786  14.733  0.00  0.00     0.036 C 
HETATM    5  C   UNK N   1      36.127  11.671  13.853  0.00  0.00     0.081 C 
HETATM    6  C   UNK N   1      36.498  10.504  12.881  0.00  0.00     0.018 C 
HETATM    7  C   UNK N   1      36.206  10.120   9.974  0.00  0.00     0.026 C 
HETATM    8  C   UNK N   1      37.538   9.899  10.662  0.00  0.00     0.013 C 
HETATM    9  C   UNK N   1      35.865   9.213   8.801  0.00  0.00     0.013 C 
HETATM   10  C   UNK N   1      35.502  12.805  12.995  0.00  0.00     0.144 C 
HETATM   11  C   UNK N   1      34.744  12.226  15.936  0.00  0.00    -0.007 A 
HETATM   12  C   UNK N   1      36.009   9.850  16.928  0.00  0.00     0.058 A 
HETATM   13  C   UNK N   1      34.971  12.142  17.251  0.00  0.00     0.052 A 
HETATM   14  C   UNK N   1      35.617  10.953  17.816  0.00  0.00     0.172 A 
HETATM   15  O   UNK N   1      35.827  10.882  19.015  0.00  0.00    -0.289 OA
HETATM   16 Cl   UNK N   1      37.618  12.299  14.665  0.00  0.00    -0.115 Cl
HETATM   17  C   UNK N   1      36.968  12.208  10.970  0.00  0.00     0.002 C 
HETATM   18  C   UNK N   1      38.220  12.832  10.356  0.00  0.00     0.019 C 
HETATM   19  C   UNK N   1      37.465  10.964  11.751  0.00  0.00     0.004 C 
HETATM   20  C   UNK N   1      33.818  10.669  14.305  0.00  0.00     0.027 C 
HETATM   21  C   UNK N   1      36.464  13.302  11.918  0.00  0.00     0.046 C 
HETATM   22  C   UNK N   1      35.950  11.638   9.875  0.00  0.00     0.144 C 
ENDROOT
BRANCH  22  23
HETATM   23  C   UNK N   1      36.174  12.075   8.407  0.00  0.00     0.187 C 
HETATM   24  O   UNK N   1      36.971  11.471   7.704  0.00  0.00    -0.292 OA
BRANCH  23  25
HETATM   25  C   UNK N   1      35.450  13.242   7.811  0.00  0.00     0.260 C 
BRANCH  25  26
HETATM   26  O   UNK N   1      35.666  14.424   8.472  0.00  0.00    -0.314 OA
BRANCH  26  27
HETATM   27  C   UNK N   1      34.616  15.146   8.939  0.00  0.00     0.258 C 
HETATM   28  O   UNK N   1      33.490  14.667   8.973  0.00  0.00    -0.265 OA
BRANCH  27  29
HETATM   29  C   UNK N   1      34.821  16.559   9.352  0.00  0.00     0.106 C 
HETATM   30  C   UNK N   1      35.380  16.588  10.762  0.00  0.00     0.015 C 
ENDBRANCH  27  29
ENDBRANCH  26  27
ENDBRANCH  25  26
ENDBRANCH  23  25
ENDBRANCH  22  23
BRANCH  22  31
HETATM   31  O   UNK N   1      34.622  11.866  10.246  0.00  0.00    -0.301 OA
BRANCH  31  32
HETATM   32  C   UNK N   1      33.582  11.013   9.970  0.00  0.00     0.259 C 
HETATM   33  O   UNK N   1      32.930  11.128   8.945  0.00  0.00    -0.265 OA
BRANCH  32  34
HETATM   34  C   UNK N   1      33.241   9.923  10.933  0.00  0.00     0.106 C 
HETATM   35  C   UNK N   1      32.483   8.814  10.221  0.00  0.00     0.015 C 
ENDBRANCH  32  34
ENDBRANCH  31  32
ENDBRANCH  22  31
BRANCH  10  36
HETATM   36  O   UNK N   1      35.127  13.900  13.776  0.00  0.00    -0.394 OA
HETATM   37  H   UNK N   1      34.361  14.482  13.650  0.00  0.00     0.210 HD
ENDBRANCH  10  36
TORSDOF 9
ENDMDL
MODEL 2
REMARK VINA RESULT:      -6.5     18.701     23.362
REMARK  9 active torsions:
REMARK  status: ('A' for Active; 'I' for Inactive)
REMARK    1  A    between atoms: C_10  and  O_11 
REMARK    2  A    between atoms: C_24  and  C_23 
REMARK    3  A    between atoms: C_23  and  O_30 
REMARK    4  A    between atoms: C_32  and  C_24 
REMARK    5  A    between atoms: O_30  and  C_26 
REMARK    6  A    between atoms: C_26  and  C_27 
REMARK    7  A    between atoms: C_32  and  O_33 
REMARK    8  A    between atoms: O_33  and  C_34 
REMARK    9  A    between atoms: C_34  and  C_36 
ROOT
HETATM    1  C   UNK N   1      31.473  23.272  -4.598  0.00  0.00     0.022 A 
HETATM    2  C   UNK N   1      31.575  22.630  -3.213  0.00  0.00    -0.062 A 
HETATM    3  C   UNK N   1      29.179  22.879  -2.701  0.00  0.00     0.011 C 
HETATM    4  C   UNK N   1      30.596  23.058  -2.165  0.00  0.00     0.036 C 
HETATM    5  C   UNK N   1      30.005  23.035  -5.124  0.00  0.00     0.081 C 
HETATM    6  C   UNK N   1      28.988  23.575  -4.066  0.00  0.00     0.018 C 
HETATM    7  C   UNK N   1      26.866  25.616  -4.156  0.00  0.00     0.026 C 
HETATM    8  C   UNK N   1      26.587  24.222  -3.632  0.00  0.00     0.013 C 
HETATM    9  C   UNK N   1      26.133  26.773  -3.492  0.00  0.00     0.013 C 
HETATM   10  C   UNK N   1      29.732  23.789  -6.454  0.00  0.00     0.144 C 
HETATM   11  C   UNK N   1      32.507  22.744  -5.582  0.00  0.00    -0.007 A 
HETATM   12  C   UNK N   1      32.471  21.676  -2.919  0.00  0.00     0.058 A 
HETATM   13  C   UNK N   1      33.404  21.802  -5.275  0.00  0.00     0.052 A 
HETATM   14  C   UNK N   1      33.433  21.216  -3.931  0.00  0.00     0.172 A 
HETATM   15  O   UNK N   1      34.249  20.354  -3.655  0.00  0.00    -0.289 OA
HETATM   16 Cl   UNK N   1      29.742  21.263  -5.387  0.00  0.00    -0.115 Cl
HETATM   17  C   UNK N   1      27.223  23.989  -5.933  0.00  0.00     0.002 C 
HETATM   18  C   UNK N   1      25.982  23.255  -6.436  0.00  0.00     0.019 C 
HETATM   19  C   UNK N   1      27.511  23.403  -4.527  0.00  0.00     0.004 C 
HETATM   20  C   UNK N   1      31.760  24.764  -4.441  0.00  0.00     0.027 C 
HETATM   21  C   UNK N   1      28.300  23.582  -6.944  0.00  0.00     0.046 C 
HETATM   22  C   UNK N   1      26.972  25.552  -5.693  0.00  0.00     0.144 C 
ENDROOT
BRANCH  22  23
HETATM   23  C   UNK N   1      25.684  26.162  -6.297  0.00  0.00     0.187 C 
HETATM   24  O   UNK N   1      24.654  26.188  -5.640  0.00  0.00    -0.292 OA
BRANCH  23  25
HETATM   25  C   UNK N   1      25.649  26.716  -7.687  0.00  0.00     0.260 C 
BRANCH  25  26
HETATM   26  O   UNK N   1      25.788  25.766  -8.666  0.00  0.00    -0.314 OA
BRANCH  26  27
HETATM   27  C   UNK N   1      26.587  26.002  -9.737  0.00  0.00     0.258 C 
HETATM   28  O   UNK N   1      26.356  25.482 -10.820  0.00  0.00    -0.265 OA
BRANCH  27  29
HETATM   29  C   UNK N   1      27.799  26.851  -9.578  0.00  0.00     0.106 C 
HETATM   30  C   UNK N   1      29.030  25.964  -9.586  0.00  0.00     0.015 C 
ENDBRANCH  27  29
ENDBRANCH  26  27
ENDBRANCH  25  26
ENDBRANCH  23  25
ENDBRANCH  22  23
BRANCH  22  31
HETATM   31  O   UNK N   1      28.085  26.310  -6.070  0.00  0.00    -0.301 OA
BRANCH  31  32
HETATM   32  C   UNK N   1      28.534  27.417  -5.393  0.00  0.00     0.259 C 
HETATM   33  O   UNK N   1      29.408  27.323  -4.546  0.00  0.00    -0.265 OA
BRANCH  32  34
HETATM   34  C   UNK N   1      27.953  28.759  -5.695  0.00  0.00     0.106 C 
HETATM   35  C   UNK N   1      28.495  29.280  -7.016  0.00  0.00     0.015 C 
ENDBRANCH  32  34
ENDBRANCH  31  32
ENDBRANCH  22  31
BRANCH  10  36
HETATM   36  O   UNK N   1      30.598  23.382  -7.469  0.00  0.00    -0.394 OA
HETATM   37  H   UNK N   1      30.549  23.601  -8.413  0.00  0.00     0.210 HD
ENDBRANCH  10  36
TORSDOF 9
ENDMDL
MODEL 3
REMARK VINA RESULT:      -6.4      1.173      1.469
REMARK  9 active torsions:
REMARK  status: ('A' for Active; 'I' for Inactive)
REMARK    1  A    between atoms: C_10  and  O_11 
REMARK    2  A    between atoms: C_24  and  C_23 
REMARK    3  A    between atoms: C_23  and  O_30 
REMARK    4  A    between atoms: C_32  and  C_24 
REMARK    5  A    between atoms: O_30  and  C_26 
REMARK    6  A    between atoms: C_26  and  C_27 
REMARK    7  A    between atoms: C_32  and  O_33 
REMARK    8  A    between atoms: O_33  and  C_34 
REMARK    9  A    between atoms: C_34  and  C_36 
ROOT
HETATM    1  C   UNK N   1      34.876  11.537  15.313  0.00  0.00     0.022 A 
HETATM    2  C   UNK N   1      35.410  10.497  16.301  0.00  0.00    -0.062 A 
HETATM    3  C   UNK N   1      36.749   9.296  14.618  0.00  0.00     0.011 C 
HETATM    4  C   UNK N   1      35.763   9.142  15.772  0.00  0.00     0.036 C 
HETATM    5  C   UNK N   1      35.940  11.685  14.158  0.00  0.00     0.081 C 
HETATM    6  C   UNK N   1      36.230  10.276  13.545  0.00  0.00     0.018 C 
HETATM    7  C   UNK N   1      35.962   9.155  10.834  0.00  0.00     0.026 C 
HETATM    8  C   UNK N   1      37.257   9.025  11.609  0.00  0.00     0.013 C 
HETATM    9  C   UNK N   1      35.567   7.997   9.930  0.00  0.00     0.013 C 
HETATM   10  C   UNK N   1      35.429  12.594  13.007  0.00  0.00     0.144 C 
HETATM   11  C   UNK N   1      34.571  12.879  15.964  0.00  0.00    -0.007 A 
HETATM   12  C   UNK N   1      35.613  10.764  17.599  0.00  0.00     0.058 A 
HETATM   13  C   UNK N   1      34.765  13.132  17.262  0.00  0.00     0.052 A 
HETATM   14  C   UNK N   1      35.298  12.091  18.146  0.00  0.00     0.172 A 
HETATM   15  O   UNK N   1      35.479  12.326  19.329  0.00  0.00    -0.289 OA
HETATM   16 Cl   UNK N   1      37.463  12.392  14.835  0.00  0.00    -0.115 Cl
HETATM   17  C   UNK N   1      36.877  11.369  11.273  0.00  0.00     0.002 C 
HETATM   18  C   UNK N   1      38.188  11.710  10.567  0.00  0.00     0.019 C 
HETATM   19  C   UNK N   1      37.253  10.344  12.374  0.00  0.00     0.004 C 
HETATM   20  C   UNK N   1      33.547  11.019  14.766  0.00  0.00     0.027 C 
HETATM   21  C   UNK N   1      36.449  12.711  11.876  0.00  0.00     0.046 C 
HETATM   22  C   UNK N   1      35.836  10.606  10.327  0.00  0.00     0.144 C 
ENDROOT
BRANCH  22  23
HETATM   23  C   UNK N   1      36.122  10.617   8.806  0.00  0.00     0.187 C 
HETATM   24  O   UNK N   1      37.066   9.983   8.357  0.00  0.00    -0.292 OA
BRANCH  23  25
HETATM   25  C   UNK N   1      35.282  11.405   7.850  0.00  0.00     0.260 C 
BRANCH  25  26
HETATM   26  O   UNK N   1      35.871  12.567   7.421  0.00  0.00    -0.314 OA
BRANCH  26  27
HETATM   27  C   UNK N   1      35.960  13.634   8.253  0.00  0.00     0.258 C 
HETATM   28  O   UNK N   1      37.047  14.114   8.546  0.00  0.00    -0.265 OA
BRANCH  27  29
HETATM   29  C   UNK N   1      34.727  14.188   8.874  0.00  0.00     0.106 C 
HETATM   30  C   UNK N   1      35.047  15.534   9.497  0.00  0.00     0.015 C 
ENDBRANCH  27  29
ENDBRANCH  26  27
ENDBRANCH  25  26
ENDBRANCH  23  25
ENDBRANCH  22  23
BRANCH  22  31
HETATM   31  O   UNK N   1      34.524  11.025  10.571  0.00  0.00    -0.301 OA
BRANCH  31  32
HETATM   32  C   UNK N   1      33.463  10.177  10.766  0.00  0.00     0.259 C 
HETATM   33  O   UNK N   1      33.265   9.658  11.853  0.00  0.00    -0.265 OA
BRANCH  32  34
HETATM   34  C   UNK N   1      32.530   9.882   9.637  0.00  0.00     0.106 C 
HETATM   35  C   UNK N   1      31.908   8.507   9.817  0.00  0.00     0.015 C 
ENDBRANCH  32  34
ENDBRANCH  31  32
ENDBRANCH  22  31
BRANCH  10  36
HETATM   36  O   UNK N   1      35.133  13.882  13.455  0.00  0.00    -0.394 OA
HETATM   37  H   UNK N   1      34.264  14.240  13.696  0.00  0.00     0.210 HD
ENDBRANCH  10  36
TORSDOF 9
ENDMDL
MODEL 4
REMARK VINA RESULT:      -6.3     21.377     25.238
REMARK  9 active torsions:
REMARK  status: ('A' for Active; 'I' for Inactive)
REMARK    1  A    between atoms: C_10  and  O_11 
REMARK    2  A    between atoms: C_24  and  C_23 
REMARK    3  A    between atoms: C_23  and  O_30 
REMARK    4  A    between atoms: C_32  and  C_24 
REMARK    5  A    between atoms: O_30  and  C_26 
REMARK    6  A    between atoms: C_26  and  C_27 
REMARK    7  A    between atoms: C_32  and  O_33 
REMARK    8  A    between atoms: O_33  and  C_34 
REMARK    9  A    between atoms: C_34  and  C_36 
ROOT
HETATM    1  C   UNK N   1      27.804  23.766  -9.389  0.00  0.00     0.022 A 
HETATM    2  C   UNK N   1      27.197  22.370  -9.544  0.00  0.00    -0.062 A 
HETATM    3  C   UNK N   1      25.909  22.482  -7.447  0.00  0.00     0.011 C 
HETATM    4  C   UNK N   1      26.834  21.620  -8.301  0.00  0.00     0.036 C 
HETATM    5  C   UNK N   1      26.801  24.629  -8.530  0.00  0.00     0.081 C 
HETATM    6  C   UNK N   1      26.504  23.883  -7.189  0.00  0.00     0.018 C 
HETATM    7  C   UNK N   1      26.872  24.593  -4.354  0.00  0.00     0.026 C 
HETATM    8  C   UNK N   1      25.538  24.090  -4.866  0.00  0.00     0.013 C 
HETATM    9  C   UNK N   1      27.279  24.188  -2.944  0.00  0.00     0.013 C 
HETATM   10  C   UNK N   1      27.391  26.018  -8.166  0.00  0.00     0.144 C 
HETATM   11  C   UNK N   1      28.114  24.436 -10.721  0.00  0.00    -0.007 A 
HETATM   12  C   UNK N   1      26.940  21.818 -10.738  0.00  0.00     0.058 A 
HETATM   13  C   UNK N   1      27.864  23.872 -11.907  0.00  0.00     0.052 A 
HETATM   14  C   UNK N   1      27.262  22.537 -11.979  0.00  0.00     0.172 A 
HETATM   15  O   UNK N   1      27.032  22.027 -13.062  0.00  0.00    -0.289 OA
HETATM   16 Cl   UNK N   1      25.267  24.865  -9.461  0.00  0.00    -0.115 Cl
HETATM   17  C   UNK N   1      25.995  26.147  -6.011  0.00  0.00     0.002 C 
HETATM   18  C   UNK N   1      24.729  26.908  -5.621  0.00  0.00     0.019 C 
HETATM   19  C   UNK N   1      25.540  24.688  -6.269  0.00  0.00     0.004 C 
HETATM   20  C   UNK N   1      29.144  23.613  -8.671  0.00  0.00     0.027 C 
HETATM   21  C   UNK N   1      26.429  26.839  -7.308  0.00  0.00     0.046 C 
HETATM   22  C   UNK N   1      27.060  26.051  -4.820  0.00  0.00     0.144 C 
ENDROOT
BRANCH  22  23
HETATM   23  C   UNK N   1      26.847  26.984  -3.604  0.00  0.00     0.187 C 
HETATM   24  O   UNK N   1      26.129  26.630  -2.680  0.00  0.00    -0.292 OA
BRANCH  23  25
HETATM   25  C   UNK N   1      27.484  28.336  -3.524  0.00  0.00     0.260 C 
BRANCH  25  26
HETATM   26  O   UNK N   1      27.383  28.925  -2.290  0.00  0.00    -0.314 OA
BRANCH  26  27
HETATM   27  C   UNK N   1      28.145  30.006  -1.986  0.00  0.00     0.258 C 
HETATM   28  O   UNK N   1      28.161  30.989  -2.715  0.00  0.00    -0.265 OA
BRANCH  27  29
HETATM   29  C   UNK N   1      29.025  29.972  -0.787  0.00  0.00     0.106 C 
HETATM   30  C   UNK N   1      28.163  29.890   0.459  0.00  0.00     0.015 C 
ENDBRANCH  27  29
ENDBRANCH  26  27
ENDBRANCH  25  26
ENDBRANCH  23  25
ENDBRANCH  22  23
BRANCH  22  31
HETATM   31  O   UNK N   1      28.369  26.176  -5.296  0.00  0.00    -0.301 OA
BRANCH  31  32
HETATM   32  C   UNK N   1      29.397  25.328  -4.967  0.00  0.00     0.259 C 
HETATM   33  O   UNK N   1      29.588  24.298  -5.595  0.00  0.00    -0.265 OA
BRANCH  32  34
HETATM   34  C   UNK N   1      30.303  25.665  -3.828  0.00  0.00     0.106 C 
HETATM   35  C   UNK N   1      30.984  24.408  -3.310  0.00  0.00     0.015 C 
ENDBRANCH  32  34
ENDBRANCH  31  32
ENDBRANCH  22  31
BRANCH  10  36
HETATM   36  O   UNK N   1      27.699  26.766  -9.303  0.00  0.00    -0.394 OA
HETATM   37  H   UNK N   1      28.577  27.033  -9.616  0.00  0.00     0.210 HD
ENDBRANCH  10  36
TORSDOF 9
ENDMDL
MODEL 5
REMARK VINA RESULT:      -6.3     11.896     15.349
REMARK  9 active torsions:
REMARK  status: ('A' for Active; 'I' for Inactive)
REMARK    1  A    between atoms: C_10  and  O_11 
REMARK    2  A    between atoms: C_24  and  C_23 
REMARK    3  A    between atoms: C_23  and  O_30 
REMARK    4  A    between atoms: C_32  and  C_24 
REMARK    5  A    between atoms: O_30  and  C_26 
REMARK    6  A    between atoms: C_26  and  C_27 
REMARK    7  A    between atoms: C_32  and  O_33 
REMARK    8  A    between atoms: O_33  and  C_34 
REMARK    9  A    between atoms: C_34  and  C_36 
ROOT
HETATM    1  C   UNK N   1      27.461  16.692   4.280  0.00  0.00     0.022 A 
HETATM    2  C   UNK N   1      28.198  16.575   5.616  0.00  0.00    -0.062 A 
HETATM    3  C   UNK N   1      26.269  15.631   6.823  0.00  0.00     0.011 C 
HETATM    4  C   UNK N   1      27.392  16.664   6.873  0.00  0.00     0.036 C 
HETATM    5  C   UNK N   1      26.334  15.588   4.260  0.00  0.00     0.081 C 
HETATM    6  C   UNK N   1      25.436  15.750   5.529  0.00  0.00     0.018 C 
HETATM    7  C   UNK N   1      22.560  16.250   5.922  0.00  0.00     0.026 C 
HETATM    8  C   UNK N   1      23.257  15.105   6.629  0.00  0.00     0.013 C 
HETATM    9  C   UNK N   1      21.445  16.962   6.676  0.00  0.00     0.013 C 
HETATM   10  C   UNK N   1      25.410  15.720   3.019  0.00  0.00     0.144 C 
HETATM   11  C   UNK N   1      28.382  16.569   3.075  0.00  0.00    -0.007 A 
HETATM   12  C   UNK N   1      29.517  16.354   5.700  0.00  0.00     0.058 A 
HETATM   13  C   UNK N   1      29.699  16.361   3.170  0.00  0.00     0.052 A 
HETATM   14  C   UNK N   1      30.335  16.239   4.485  0.00  0.00     0.172 A 
HETATM   15  O   UNK N   1      31.536  16.045   4.568  0.00  0.00    -0.289 OA
HETATM   16 Cl   UNK N   1      27.104  13.950   4.250  0.00  0.00    -0.115 Cl
HETATM   17  C   UNK N   1      23.423  14.678   4.275  0.00  0.00     0.002 C 
HETATM   18  C   UNK N   1      22.770  13.298   4.250  0.00  0.00     0.019 C 
HETATM   19  C   UNK N   1      24.278  14.710   5.567  0.00  0.00     0.004 C 
HETATM   20  C   UNK N   1      26.852  18.092   4.206  0.00  0.00     0.027 C 
HETATM   21  C   UNK N   1      24.302  14.668   3.019  0.00  0.00     0.046 C 
HETATM   22  C   UNK N   1      22.367  15.869   4.441  0.00  0.00     0.144 C 
ENDROOT
BRANCH  22  23
HETATM   23  C   UNK N   1      20.874  15.527   4.215  0.00  0.00     0.187 C 
HETATM   24  O   UNK N   1      20.252  14.912   5.070  0.00  0.00    -0.292 OA
BRANCH  23  25
HETATM   25  C   UNK N   1      20.156  15.911   2.960  0.00  0.00     0.260 C 
BRANCH  25  26
HETATM   26  O   UNK N   1      19.954  14.868   2.094  0.00  0.00    -0.314 OA
BRANCH  26  27
HETATM   27  C   UNK N   1      20.933  14.497   1.232  0.00  0.00     0.258 C 
HETATM   28  O   UNK N   1      21.662  15.331   0.712  0.00  0.00    -0.265 OA
BRANCH  27  29
HETATM   29  C   UNK N   1      21.081  13.065   0.859  0.00  0.00     0.106 C 
HETATM   30  C   UNK N   1      22.473  12.840   0.298  0.00  0.00     0.015 C 
ENDBRANCH  27  29
ENDBRANCH  26  27
ENDBRANCH  25  26
ENDBRANCH  23  25
ENDBRANCH  22  23
BRANCH  22  31
HETATM   31  O   UNK N   1      22.725  16.980   3.670  0.00  0.00    -0.301 OA
BRANCH  31  32
HETATM   32  C   UNK N   1      22.742  18.272   4.134  0.00  0.00     0.259 C 
HETATM   33  O   UNK N   1      23.698  18.702   4.759  0.00  0.00    -0.265 OA
BRANCH  32  34
HETATM   34  C   UNK N   1      21.579  19.171   3.869  0.00  0.00     0.106 C 
HETATM   35  C   UNK N   1      21.955  20.226   2.841  0.00  0.00     0.015 C 
ENDBRANCH  32  34
ENDBRANCH  31  32
ENDBRANCH  22  31
BRANCH  10  36
HETATM   36  O   UNK N   1      26.121  15.596   1.826  0.00  0.00    -0.394 OA
HETATM   37  H   UNK N   1      26.739  14.891   1.575  0.00  0.00     0.210 HD
ENDBRANCH  10  36
TORSDOF 9
ENDMDL
MODEL 6
REMARK VINA RESULT:      -6.3      1.972      2.580
REMARK  9 active torsions:
REMARK  status: ('A' for Active; 'I' for Inactive)
REMARK    1  A    between atoms: C_10  and  O_11 
REMARK    2  A    between atoms: C_24  and  C_23 
REMARK    3  A    between atoms: C_23  and  O_30 
REMARK    4  A    between atoms: C_32  and  C_24 
REMARK    5  A    between atoms: O_30  and  C_26 
REMARK    6  A    between atoms: C_26  and  C_27 
REMARK    7  A    between atoms: C_32  and  O_33 
REMARK    8  A    between atoms: O_33  and  C_34 
REMARK    9  A    between atoms: C_34  and  C_36 
ROOT
HETATM    1  C   UNK N   1      34.975  10.350  13.319  0.00  0.00     0.022 A 
HETATM    2  C   UNK N   1      35.790   9.056  13.358  0.00  0.00    -0.062 A 
HETATM    3  C   UNK N   1      37.145   9.615  11.378  0.00  0.00     0.011 C 
HETATM    4  C   UNK N   1      36.329   8.525  12.067  0.00  0.00     0.036 C 
HETATM    5  C   UNK N   1      35.868  11.453  12.630  0.00  0.00     0.081 C 
HETATM    6  C   UNK N   1      36.346  10.928  11.237  0.00  0.00     0.018 C 
HETATM    7  C   UNK N   1      36.008  11.909   8.480  0.00  0.00     0.026 C 
HETATM    8  C   UNK N   1      37.379  11.559   9.022  0.00  0.00     0.013 C 
HETATM    9  C   UNK N   1      35.741  11.618   7.010  0.00  0.00     0.013 C 
HETATM   10  C   UNK N   1      35.082  12.770  12.383  0.00  0.00     0.144 C 
HETATM   11  C   UNK N   1      34.497  10.800  14.692  0.00  0.00    -0.007 A 
HETATM   12  C   UNK N   1      36.074   8.410  14.499  0.00  0.00     0.058 A 
HETATM   13  C   UNK N   1      34.776  10.142  15.822  0.00  0.00     0.052 A 
HETATM   14  C   UNK N   1      35.580   8.917  15.787  0.00  0.00     0.172 A 
HETATM   15  O   UNK N   1      35.835   8.322  16.820  0.00  0.00    -0.289 OA
HETATM   16 Cl   UNK N   1      37.297  11.809  13.682  0.00  0.00    -0.115 Cl
HETATM   17  C   UNK N   1      36.543  13.369  10.355  0.00  0.00     0.002 C 
HETATM   18  C   UNK N   1      37.688  14.356  10.137  0.00  0.00     0.019 C 
HETATM   19  C   UNK N   1      37.212  11.976  10.479  0.00  0.00     0.004 C 
HETATM   20  C   UNK N   1      33.714  10.080  12.499  0.00  0.00     0.027 C 
HETATM   21  C   UNK N   1      35.940  13.825  11.688  0.00  0.00     0.046 C 
HETATM   22  C   UNK N   1      35.566  13.254   9.091  0.00  0.00     0.144 C 
ENDROOT
BRANCH  22  23
HETATM   23  C   UNK N   1      35.687  14.348   8.003  0.00  0.00     0.187 C 
HETATM   24  O   UNK N   1      36.494  14.220   7.094  0.00  0.00    -0.292 OA
BRANCH  23  25
HETATM   25  C   UNK N   1      34.848  15.587   8.033  0.00  0.00     0.260 C 
BRANCH  25  26
HETATM   26  O   UNK N   1      34.173  15.829   6.864  0.00  0.00    -0.314 OA
BRANCH  26  27
HETATM   27  C   UNK N   1      34.057  17.095   6.393  0.00  0.00     0.258 C 
HETATM   28  O   UNK N   1      34.542  18.040   7.002  0.00  0.00    -0.265 OA
BRANCH  27  29
HETATM   29  C   UNK N   1      33.272  17.351   5.155  0.00  0.00     0.106 C 
HETATM   30  C   UNK N   1      33.429  16.170   4.216  0.00  0.00     0.015 C 
ENDBRANCH  27  29
ENDBRANCH  26  27
ENDBRANCH  25  26
ENDBRANCH  23  25
ENDBRANCH  22  23
BRANCH  22  31
HETATM   31  O   UNK N   1      34.233  13.118   9.489  0.00  0.00    -0.301 OA
BRANCH  31  32
HETATM   32  C   UNK N   1      33.304  12.346   8.836  0.00  0.00     0.259 C 
HETATM   33  O   UNK N   1      32.794  12.723   7.793  0.00  0.00    -0.265 OA
BRANCH  32  34
HETATM   34  C   UNK N   1      32.910  11.020   9.402  0.00  0.00     0.106 C 
HETATM   35  C   UNK N   1      32.958   9.954   8.319  0.00  0.00     0.015 C 
ENDBRANCH  32  34
ENDBRANCH  31  32
ENDBRANCH  22  31
BRANCH  10  36
HETATM   36  O   UNK N   1      34.602  13.319  13.572  0.00  0.00    -0.394 OA
HETATM   37  H   UNK N   1      35.095  13.843  14.224  0.00  0.00     0.210 HD
ENDBRANCH  10  36
TORSDOF 9
ENDMDL
MODEL 7
REMARK VINA RESULT:      -6.2     20.805     24.351
REMARK  9 active torsions:
REMARK  status: ('A' for Active; 'I' for Inactive)
REMARK    1  A    between atoms: C_10  and  O_11 
REMARK    2  A    between atoms: C_24  and  C_23 
REMARK    3  A    between atoms: C_23  and  O_30 
REMARK    4  A    between atoms: C_32  and  C_24 
REMARK    5  A    between atoms: O_30  and  C_26 
REMARK    6  A    between atoms: C_26  and  C_27 
REMARK    7  A    between atoms: C_32  and  O_33 
REMARK    8  A    between atoms: O_33  and  C_34 
REMARK    9  A    between atoms: C_34  and  C_36 
ROOT
HETATM    1  C   UNK N   1      27.466  26.980  -4.777  0.00  0.00     0.022 A 
HETATM    2  C   UNK N   1      27.573  28.275  -5.586  0.00  0.00    -0.062 A 
HETATM    3  C   UNK N   1      27.464  27.150  -7.774  0.00  0.00     0.011 C 
HETATM    4  C   UNK N   1      28.192  28.205  -6.946  0.00  0.00     0.036 C 
HETATM    5  C   UNK N   1      26.681  25.933  -5.657  0.00  0.00     0.081 C 
HETATM    6  C   UNK N   1      27.392  25.793  -7.043  0.00  0.00     0.018 C 
HETATM    7  C   UNK N   1      28.610  23.523  -8.472  0.00  0.00     0.026 C 
HETATM    8  C   UNK N   1      27.588  24.414  -9.148  0.00  0.00     0.013 C 
HETATM    9  C   UNK N   1      29.736  22.970  -9.334  0.00  0.00     0.013 C 
HETATM   10  C   UNK N   1      26.657  24.524  -5.006  0.00  0.00     0.144 C 
HETATM   11  C   UNK N   1      26.804  27.174  -3.420  0.00  0.00    -0.007 A 
HETATM   12  C   UNK N   1      27.097  29.448  -5.144  0.00  0.00     0.058 A 
HETATM   13  C   UNK N   1      26.344  28.350  -2.984  0.00  0.00     0.052 A 
HETATM   14  C   UNK N   1      26.463  29.548  -3.822  0.00  0.00     0.172 A 
HETATM   15  O   UNK N   1      26.038  30.619  -3.424  0.00  0.00    -0.289 OA
HETATM   16 Cl   UNK N   1      24.979  26.504  -5.890  0.00  0.00    -0.115 Cl
HETATM   17  C   UNK N   1      26.483  23.367  -7.295  0.00  0.00     0.002 C 
HETATM   18  C   UNK N   1      25.334  22.712  -8.059  0.00  0.00     0.019 C 
HETATM   19  C   UNK N   1      26.691  24.751  -7.962  0.00  0.00     0.004 C 
HETATM   20  C   UNK N   1      28.886  26.494  -4.490  0.00  0.00     0.027 C 
HETATM   21  C   UNK N   1      25.922  23.505  -5.875  0.00  0.00     0.046 C 
HETATM   22  C   UNK N   1      27.876  22.600  -7.478  0.00  0.00     0.144 C 
ENDROOT
BRANCH  22  23
HETATM   23  C   UNK N   1      27.825  21.176  -8.083  0.00  0.00     0.187 C 
HETATM   24  O   UNK N   1      27.244  20.981  -9.140  0.00  0.00    -0.292 OA
BRANCH  23  25
HETATM   25  C   UNK N   1      28.455  20.004  -7.398  0.00  0.00     0.260 C 
BRANCH  25  26
HETATM   26  O   UNK N   1      28.842  19.004  -8.252  0.00  0.00    -0.314 OA
BRANCH  26  27
HETATM   27  C   UNK N   1      30.061  19.048  -8.847  0.00  0.00     0.258 C 
HETATM   28  O   UNK N   1      31.074  19.249  -8.190  0.00  0.00    -0.265 OA
BRANCH  27  29
HETATM   29  C   UNK N   1      30.164  18.917 -10.324  0.00  0.00     0.106 C 
HETATM   30  C   UNK N   1      30.583  17.500 -10.669  0.00  0.00     0.015 C 
ENDBRANCH  27  29
ENDBRANCH  26  27
ENDBRANCH  25  26
ENDBRANCH  23  25
ENDBRANCH  22  23
BRANCH  22  31
HETATM   31  O   UNK N   1      28.613  22.590  -6.290  0.00  0.00    -0.301 OA
BRANCH  31  32
HETATM   32  C   UNK N   1      29.915  23.013  -6.182  0.00  0.00     0.259 C 
HETATM   33  O   UNK N   1      30.195  24.200  -6.217  0.00  0.00    -0.265 OA
BRANCH  32  34
HETATM   34  C   UNK N   1      31.010  22.010  -6.014  0.00  0.00     0.106 C 
HETATM   35  C   UNK N   1      30.714  21.105  -4.828  0.00  0.00     0.015 C 
ENDBRANCH  32  34
ENDBRANCH  31  32
ENDBRANCH  22  31
BRANCH  10  36
HETATM   36  O   UNK N   1      26.044  24.541  -3.753  0.00  0.00    -0.394 OA
HETATM   37  H   UNK N   1      26.043  23.839  -3.084  0.00  0.00     0.210 HD
ENDBRANCH  10  36
TORSDOF 9
ENDMDL
MODEL 8
REMARK VINA RESULT:      -6.0     21.036     24.969
REMARK  9 active torsions:
REMARK  status: ('A' for Active; 'I' for Inactive)
REMARK    1  A    between atoms: C_10  and  O_11 
REMARK    2  A    between atoms: C_24  and  C_23 
REMARK    3  A    between atoms: C_23  and  O_30 
REMARK    4  A    between atoms: C_32  and  C_24 
REMARK    5  A    between atoms: O_30  and  C_26 
REMARK    6  A    between atoms: C_26  and  C_27 
REMARK    7  A    between atoms: C_32  and  O_33 
REMARK    8  A    between atoms: O_33  and  C_34 
REMARK    9  A    between atoms: C_34  and  C_36 
ROOT
HETATM    1  C   UNK N   1      27.521  27.160  -4.872  0.00  0.00     0.022 A 
HETATM    2  C   UNK N   1      27.661  28.437  -5.704  0.00  0.00    -0.062 A 
HETATM    3  C   UNK N   1      27.471  27.281  -7.871  0.00  0.00     0.011 C 
HETATM    4  C   UNK N   1      28.252  28.322  -7.073  0.00  0.00     0.036 C 
HETATM    5  C   UNK N   1      26.682  26.129  -5.721  0.00  0.00     0.081 C 
HETATM    6  C   UNK N   1      27.363  25.940  -7.116  0.00  0.00     0.018 C 
HETATM    7  C   UNK N   1      28.469  23.603  -8.527  0.00  0.00     0.026 C 
HETATM    8  C   UNK N   1      27.469  24.521  -9.200  0.00  0.00     0.013 C 
HETATM    9  C   UNK N   1      29.559  22.995  -9.399  0.00  0.00     0.013 C 
HETATM   10  C   UNK N   1      26.617  24.732  -5.045  0.00  0.00     0.144 C 
HETATM   11  C   UNK N   1      26.890  27.400  -3.507  0.00  0.00    -0.007 A 
HETATM   12  C   UNK N   1      27.237  29.634  -5.274  0.00  0.00     0.058 A 
HETATM   13  C   UNK N   1      26.482  28.601  -3.083  0.00  0.00     0.052 A 
HETATM   14  C   UNK N   1      26.631  29.779  -3.943  0.00  0.00     0.172 A 
HETATM   15  O   UNK N   1      26.253  30.872  -3.556  0.00  0.00    -0.289 OA
HETATM   16 Cl   UNK N   1      24.998  26.760  -5.933  0.00  0.00    -0.115 Cl
HETATM   17  C   UNK N   1      26.360  23.546  -7.310  0.00  0.00     0.002 C 
HETATM   18  C   UNK N   1      25.174  22.922  -8.043  0.00  0.00     0.019 C 
HETATM   19  C   UNK N   1      26.606  24.910  -8.005  0.00  0.00     0.004 C 
HETATM   20  C   UNK N   1      28.926  26.626  -4.601  0.00  0.00     0.027 C 
HETATM   21  C   UNK N   1      25.830  23.728  -5.884  0.00  0.00     0.046 C 
HETATM   22  C   UNK N   1      27.720  22.724  -7.505  0.00  0.00     0.144 C 
ENDROOT
BRANCH  22  23
HETATM   23  C   UNK N   1      27.605  21.294  -8.084  0.00  0.00     0.187 C 
HETATM   24  O   UNK N   1      28.364  20.416  -7.700  0.00  0.00    -0.292 OA
BRANCH  23  25
HETATM   25  C   UNK N   1      26.592  20.944  -9.129  0.00  0.00     0.260 C 
BRANCH  25  26
HETATM   26  O   UNK N   1      27.077  20.990 -10.410  0.00  0.00    -0.314 OA
BRANCH  26  27
HETATM   27  C   UNK N   1      26.311  21.487 -11.413  0.00  0.00     0.258 C 
HETATM   28  O   UNK N   1      25.211  21.009 -11.660  0.00  0.00    -0.265 OA
BRANCH  27  29
HETATM   29  C   UNK N   1      26.839  22.584 -12.268  0.00  0.00     0.106 C 
HETATM   30  C   UNK N   1      25.801  23.687 -12.356  0.00  0.00     0.015 C 
ENDBRANCH  27  29
ENDBRANCH  26  27
ENDBRANCH  25  26
ENDBRANCH  23  25
ENDBRANCH  22  23
BRANCH  22  31
HETATM   31  O   UNK N   1      28.477  22.706  -6.330  0.00  0.00    -0.301 OA
BRANCH  31  32
HETATM   32  C   UNK N   1      29.790  23.100  -6.247  0.00  0.00     0.259 C 
HETATM   33  O   UNK N   1      30.104  24.271  -6.387  0.00  0.00    -0.265 OA
BRANCH  32  34
HETATM   34  C   UNK N   1      30.854  22.086  -5.979  0.00  0.00     0.106 C 
HETATM   35  C   UNK N   1      30.359  21.063  -4.969  0.00  0.00     0.015 C 
ENDBRANCH  32  34
ENDBRANCH  31  32
ENDBRANCH  22  31
BRANCH  10  36
HETATM   36  O   UNK N   1      26.028  24.794  -3.782  0.00  0.00    -0.394 OA
HETATM   37  H   UNK N   1      25.142  25.119  -3.557  0.00  0.00     0.210 HD
ENDBRANCH  10  36
TORSDOF 9
ENDMDL
MODEL 9
REMARK VINA RESULT:      -6.0     18.284     22.591
REMARK  9 active torsions:
REMARK  status: ('A' for Active; 'I' for Inactive)
REMARK    1  A    between atoms: C_10  and  O_11 
REMARK    2  A    between atoms: C_24  and  C_23 
REMARK    3  A    between atoms: C_23  and  O_30 
REMARK    4  A    between atoms: C_32  and  C_24 
REMARK    5  A    between atoms: O_30  and  C_26 
REMARK    6  A    between atoms: C_26  and  C_27 
REMARK    7  A    between atoms: C_32  and  O_33 
REMARK    8  A    between atoms: O_33  and  C_34 
REMARK    9  A    between atoms: C_34  and  C_36 
ROOT
HETATM    1  C   UNK N   1      27.737  26.007  -5.406  0.00  0.00     0.022 A 
HETATM    2  C   UNK N   1      26.968  25.712  -4.117  0.00  0.00    -0.062 A 
HETATM    3  C   UNK N   1      28.439  23.861  -3.428  0.00  0.00     0.011 C 
HETATM    4  C   UNK N   1      26.991  24.312  -3.589  0.00  0.00     0.036 C 
HETATM    5  C   UNK N   1      29.232  25.555  -5.182  0.00  0.00     0.081 C 
HETATM    6  C   UNK N   1      29.252  24.060  -4.725  0.00  0.00     0.018 C 
HETATM    7  C   UNK N   1      30.475  21.621  -5.836  0.00  0.00     0.026 C 
HETATM    8  C   UNK N   1      30.685  22.010  -4.386  0.00  0.00     0.013 C 
HETATM    9  C   UNK N   1      30.378  20.136  -6.155  0.00  0.00     0.013 C 
HETATM   10  C   UNK N   1      30.073  25.652  -6.483  0.00  0.00     0.144 C 
HETATM   11  C   UNK N   1      27.655  27.466  -5.832  0.00  0.00    -0.007 A 
HETATM   12  C   UNK N   1      26.318  26.659  -3.426  0.00  0.00     0.058 A 
HETATM   13  C   UNK N   1      26.994  28.401  -5.142  0.00  0.00     0.052 A 
HETATM   14  C   UNK N   1      26.294  28.049  -3.903  0.00  0.00     0.172 A 
HETATM   15  O   UNK N   1      25.695  28.905  -3.274  0.00  0.00    -0.289 OA
HETATM   16 Cl   UNK N   1      29.988  26.601  -3.912  0.00  0.00    -0.115 Cl
HETATM   17  C   UNK N   1      31.636  23.759  -5.724  0.00  0.00     0.002 C 
HETATM   18  C   UNK N   1      33.055  23.729  -5.158  0.00  0.00     0.019 C 
HETATM   19  C   UNK N   1      30.700  23.530  -4.510  0.00  0.00     0.004 C 
HETATM   20  C   UNK N   1      27.088  25.200  -6.530  0.00  0.00     0.027 C 
HETATM   21  C   UNK N   1      31.511  25.186  -6.270  0.00  0.00     0.046 C 
HETATM   22  C   UNK N   1      31.334  22.545  -6.722  0.00  0.00     0.144 C 
ENDROOT
BRANCH  22  23
HETATM   23  C   UNK N   1      32.547  21.735  -7.239  0.00  0.00     0.187 C 
HETATM   24  O   UNK N   1      33.081  22.041  -8.295  0.00  0.00    -0.292 OA
BRANCH  23  25
HETATM   25  C   UNK N   1      33.090  20.560  -6.488  0.00  0.00     0.260 C 
BRANCH  25  26
HETATM   26  O   UNK N   1      34.351  20.756  -5.986  0.00  0.00    -0.314 OA
BRANCH  26  27
HETATM   27  C   UNK N   1      34.700  20.218  -4.790  0.00  0.00     0.258 C 
HETATM   28  O   UNK N   1      35.868  19.950  -4.539  0.00  0.00    -0.265 OA
BRANCH  27  29
HETATM   29  C   UNK N   1      33.645  19.886  -3.796  0.00  0.00     0.106 C 
HETATM   30  C   UNK N   1      33.610  20.965  -2.731  0.00  0.00     0.015 C 
ENDBRANCH  27  29
ENDBRANCH  26  27
ENDBRANCH  25  26
ENDBRANCH  23  25
ENDBRANCH  22  23
BRANCH  22  31
HETATM   31  O   UNK N   1      30.539  22.955  -7.797  0.00  0.00    -0.301 OA
BRANCH  31  32
HETATM   32  C   UNK N   1      29.590  22.170  -8.403  0.00  0.00     0.259 C 
HETATM   33  O   UNK N   1      29.898  21.369  -9.270  0.00  0.00    -0.265 OA
BRANCH  32  34
HETATM   34  C   UNK N   1      28.157  22.291  -7.998  0.00  0.00     0.106 C 
HETATM   35  C   UNK N   1      27.418  20.997  -8.296  0.00  0.00     0.015 C 
ENDBRANCH  32  34
ENDBRANCH  31  32
ENDBRANCH  22  31
BRANCH  10  36
HETATM   36  O   UNK N   1      30.112  26.955  -6.980  0.00  0.00    -0.394 OA
HETATM   37  H   UNK N   1      29.374  27.580  -7.065  0.00  0.00     0.210 HD
ENDBRANCH  10  36
TORSDOF 9
ENDMDL
