REMARK  9 active torsions:
REMARK  status: ('A' for Active; 'I' for Inactive)
REMARK    1  A    between atoms: O_1  and  C_12 
REMARK    2  A    between atoms: O_1  and  C_20 
REMARK    3  A    between atoms: N_2  and  C_19 
REMARK    4  A    between atoms: C_3  and  C_5 
REMARK    5  A    between atoms: C_3  and  C_7 
REMARK    6  A    between atoms: C_4  and  C_6 
REMARK    7  A    between atoms: C_4  and  C_8 
REMARK    8  A    between atoms: C_19  and  C_20 
REMARK    9  A    between atoms: C_25  and  O_29 
ROOT
HETATM    1  C   UNK N   1       4.826   2.483  -0.101  0.00  0.00    -0.009 C 
HETATM    2  C   UNK N   1       3.586   3.134  -0.074  0.00  0.00    -0.036 C 
ENDROOT
BRANCH   1   3
HETATM    3  C   UNK N   1       4.924   0.963  -0.011  0.00  0.00    -0.024 A 
HETATM    4  C   UNK N   1       6.027   0.269  -0.545  0.00  0.00     0.015 A 
HETATM    5  C   UNK N   1       6.148  -1.117  -0.413  0.00  0.00     0.037 A 
HETATM    6  C   UNK N   1       5.170  -1.849   0.261  0.00  0.00     0.068 A 
HETATM    7  C   UNK N   1       4.077  -1.172   0.823  0.00  0.00     0.037 A 
HETATM    8  C   UNK N   1       3.970   0.214   0.702  0.00  0.00     0.015 A 
BRANCH   6   9
HETATM    9  O   UNK N   1       5.296  -3.195   0.354  0.00  0.00    -0.349 OA
BRANCH   9  10
HETATM   10  C   UNK N   1       4.312  -4.016   0.864  0.00  0.00     0.206 C 
BRANCH  10  11
HETATM   11  C   UNK N   1       3.252  -4.257  -0.198  0.00  0.00     0.297 C 
BRANCH  11  12
HETATM   12  N   UNK N   1       1.935  -3.988   0.349  0.00  0.00     0.082 N 
HETATM   13  C   UNK N   1       1.235  -5.257   0.428  0.00  0.00     0.309 C 
HETATM   14  C   UNK N   1       1.228  -3.174  -0.623  0.00  0.00     0.309 C 
ENDBRANCH  11  12
ENDBRANCH  10  11
ENDBRANCH   9  10
ENDBRANCH   6   9
ENDBRANCH   1   3
BRANCH   1  15
HETATM   15  C   UNK N   1       6.146   3.274  -0.132  0.00  0.00    -0.024 A 
HETATM   16  C   UNK N   1       6.191   4.670  -0.315  0.00  0.00     0.015 A 
HETATM   17  C   UNK N   1       7.398   5.375  -0.322  0.00  0.00     0.037 A 
HETATM   18  C   UNK N   1       8.600   4.694  -0.149  0.00  0.00     0.065 A 
HETATM   19  C   UNK N   1       8.593   3.313   0.029  0.00  0.00     0.037 A 
HETATM   20  C   UNK N   1       7.382   2.616   0.041  0.00  0.00     0.015 A 
BRANCH  18  21
HETATM   21  O   UNK N   1       9.762   5.368  -0.154  0.00  0.00    -0.361 OA
HETATM   22  H   UNK N   1      10.574   4.901  -0.158  0.00  0.00     0.217 HD
ENDBRANCH  18  21
ENDBRANCH   1  15
BRANCH   2  23
HETATM   23  C   UNK N   1       3.509   4.640   0.009  0.00  0.00     0.036 C 
HETATM   24  C   UNK N   1       3.110   5.106   1.398  0.00  0.00     0.010 C 
ENDBRANCH   2  23
BRANCH   2  25
HETATM   25  C   UNK N   1       2.241   2.454  -0.189  0.00  0.00    -0.029 A 
HETATM   26  C   UNK N   1       2.058   1.287  -0.953  0.00  0.00     0.012 A 
HETATM   27  C   UNK N   1       0.791   0.716  -1.102  0.00  0.00     0.001 A 
HETATM   28  C   UNK N   1      -0.320   1.316  -0.508  0.00  0.00     0.000 A 
HETATM   29  C   UNK N   1      -0.167   2.497   0.218  0.00  0.00     0.001 A 
HETATM   30  C   UNK N   1       1.100   3.069   0.361  0.00  0.00     0.012 A 
ENDBRANCH   2  25
TORSDOF 9
