MODEL 1
REMARK VINA RESULT:      -9.2      0.000      0.000
REMARK  7 active torsions:
REMARK  status: ('A' for Active; 'I' for Inactive)
REMARK    1  A    between atoms: C_2  and  O_32 
REMARK    2  A    between atoms: C_3  and  N_28 
REMARK    3  A    between atoms: C_4  and  O_31 
REMARK    4  A    between atoms: C_5  and  O_10 
REMARK    5  A    between atoms: C_7  and  O_13 
REMARK    6  A    between atoms: C_11  and  C_16 
REMARK       I    between atoms: C_16  and  N_20 
REMARK    7  A    between atoms: C_23  and  O_26 
ROOT
HETATM    1  C   UNK N   1      23.140  17.083   5.514  0.00  0.00     0.104 C 
HETATM    2  C   UNK N   1      21.612  17.289   5.843  0.00  0.00     0.180 C 
HETATM    3  C   UNK N   1      23.579  17.775   4.167  0.00  0.00     0.289 C 
HETATM    4  C   UNK N   1      23.450  15.563   5.586  0.00  0.00     0.137 C 
HETATM    5  C   UNK N   1      20.971  16.206   6.724  0.00  0.00     0.097 C 
HETATM    6  C   UNK N   1      20.833  17.568   4.571  0.00  0.00     0.208 C 
HETATM    7  C   UNK N   1      22.649  18.890   3.689  0.00  0.00     0.096 C 
HETATM    8  C   UNK N   1      23.199  15.145   7.058  0.00  0.00     0.063 C 
HETATM    9  C   UNK N   1      21.696  15.194   7.281  0.00  0.00     0.033 C 
HETATM   10  C   UNK N   1      21.307  18.734   3.793  0.00  0.00     0.112 C 
HETATM   11  O   UNK N   1      19.765  17.022   4.323  0.00  0.00    -0.288 OA
HETATM   12  C   UNK N   1      23.804  13.777   7.442  0.00  0.00     0.027 C 
HETATM   13  C   UNK N   1      21.071  14.218   8.240  0.00  0.00     0.194 C 
HETATM   14  C   UNK N   1      23.313  13.258   8.777  0.00  0.00    -0.037 A 
HETATM   15  C   UNK N   1      21.952  13.399   9.116  0.00  0.00     0.054 A 
HETATM   16  O   UNK N   1      19.860  14.204   8.410  0.00  0.00    -0.287 OA
HETATM   17  C   UNK N   1      24.174  12.560   9.642  0.00  0.00     0.009 A 
HETATM   18  C   UNK N   1      21.474  12.814  10.315  0.00  0.00     0.080 A 
HETATM   19  C   UNK N   1      23.698  12.009  10.829  0.00  0.00     0.003 A 
HETATM   20  C   UNK N   1      22.349  12.126  11.158  0.00  0.00     0.037 A 
HETATM   21  C   UNK N   1      25.335  13.794   7.381  0.00  0.00     0.016 C 
ENDROOT
BRANCH  10  22
HETATM   22  C   UNK N   1      20.331  19.745   3.275  0.00  0.00     0.255 C 
HETATM   23  N   UNK N   1      19.495  19.456   2.258  0.00  0.00    -0.366 N 
HETATM   24  H   UNK N   1      18.959  20.128   1.779  0.00  0.00     0.159 HD
HETATM   25  H   UNK N   1      19.415  18.516   1.978  0.00  0.00     0.159 HD
HETATM   26  O   UNK N   1      20.327  20.877   3.739  0.00  0.00    -0.268 OA
ENDBRANCH  10  22
BRANCH   7  27
HETATM   27  O   UNK N   1      23.174  19.994   3.117  0.00  0.00    -0.362 OA
HETATM   28  H   UNK N   1      24.056  20.061   2.809  0.00  0.00     0.217 HD
ENDBRANCH   7  27
BRANCH   2  29
HETATM   29  O   UNK N   1      21.516  18.475   6.581  0.00  0.00    -0.374 OA
HETATM   30  H   UNK N   1      21.688  19.219   7.178  0.00  0.00     0.211 HD
ENDBRANCH   2  29
BRANCH   3  31
HETATM   31  N   UNK N   1      24.984  18.241   4.059  0.00  0.00     0.091 N 
HETATM   32  C   UNK N   1      25.720  17.311   3.217  0.00  0.00     0.310 C 
HETATM   33  C   UNK N   1      25.731  18.364   5.300  0.00  0.00     0.310 C 
ENDBRANCH   3  31
BRANCH   5  34
HETATM   34  O   UNK N   1      19.650  16.313   6.987  0.00  0.00    -0.361 OA
HETATM   35  H   UNK N   1      19.020  16.038   6.351  0.00  0.00     0.217 HD
ENDBRANCH   5  34
BRANCH   4  36
HETATM   36  O   UNK N   1      24.742  15.254   5.169  0.00  0.00    -0.394 OA
HETATM   37  H   UNK N   1      25.053  14.338   5.100  0.00  0.00     0.210 HD
ENDBRANCH   4  36
BRANCH  18  38
HETATM   38  O   UNK N   1      20.186  12.934  10.680  0.00  0.00    -0.360 OA
HETATM   39  H   UNK N   1      19.878  12.542  11.473  0.00  0.00     0.217 HD
ENDBRANCH  18  38
TORSDOF 7
ENDMDL
MODEL 2
REMARK VINA RESULT:      -8.2     14.337     15.671
REMARK  7 active torsions:
REMARK  status: ('A' for Active; 'I' for Inactive)
REMARK    1  A    between atoms: C_2  and  O_32 
REMARK    2  A    between atoms: C_3  and  N_28 
REMARK    3  A    between atoms: C_4  and  O_31 
REMARK    4  A    between atoms: C_5  and  O_10 
REMARK    5  A    between atoms: C_7  and  O_13 
REMARK    6  A    between atoms: C_11  and  C_16 
REMARK       I    between atoms: C_16  and  N_20 
REMARK    7  A    between atoms: C_23  and  O_26 
ROOT
HETATM    1  C   UNK N   1      28.151  24.143  -6.119  0.00  0.00     0.104 C 
HETATM    2  C   UNK N   1      28.363  24.721  -4.668  0.00  0.00     0.180 C 
HETATM    3  C   UNK N   1      26.804  24.626  -6.783  0.00  0.00     0.289 C 
HETATM    4  C   UNK N   1      28.317  22.600  -6.055  0.00  0.00     0.137 C 
HETATM    5  C   UNK N   1      29.250  23.876  -3.741  0.00  0.00     0.097 C 
HETATM    6  C   UNK N   1      27.029  25.093  -4.049  0.00  0.00     0.208 C 
HETATM    7  C   UNK N   1      26.211  25.894  -6.172  0.00  0.00     0.096 C 
HETATM    8  C   UNK N   1      29.787  22.346  -5.631  0.00  0.00     0.063 C 
HETATM    9  C   UNK N   1      29.905  22.759  -4.173  0.00  0.00     0.033 C 
HETATM   10  C   UNK N   1      26.230  26.064  -4.828  0.00  0.00     0.112 C 
HETATM   11  O   UNK N   1      26.736  24.798  -2.897  0.00  0.00    -0.288 OA
HETATM   12  C   UNK N   1      30.278  20.902  -5.872  0.00  0.00     0.027 C 
HETATM   13  C   UNK N   1      30.864  22.019  -3.282  0.00  0.00     0.194 C 
HETATM   14  C   UNK N   1      31.599  20.598  -5.198  0.00  0.00    -0.037 A 
HETATM   15  C   UNK N   1      31.838  21.074  -3.893  0.00  0.00     0.054 A 
HETATM   16  O   UNK N   1      30.951  22.300  -2.094  0.00  0.00    -0.287 OA
HETATM   17  C   UNK N   1      32.555  19.774  -5.820  0.00  0.00     0.009 A 
HETATM   18  C   UNK N   1      33.028  20.695  -3.225  0.00  0.00     0.080 A 
HETATM   19  C   UNK N   1      33.732  19.426  -5.162  0.00  0.00     0.003 A 
HETATM   20  C   UNK N   1      33.961  19.876  -3.864  0.00  0.00     0.037 A 
HETATM   21  C   UNK N   1      30.322  20.556  -7.364  0.00  0.00     0.016 C 
ENDROOT
BRANCH  10  22
HETATM   22  C   UNK N   1      25.597  27.240  -4.150  0.00  0.00     0.255 C 
HETATM   23  N   UNK N   1      25.936  27.592  -2.894  0.00  0.00    -0.366 N 
HETATM   24  H   UNK N   1      25.438  28.246  -2.352  0.00  0.00     0.159 HD
HETATM   25  H   UNK N   1      26.731  27.171  -2.494  0.00  0.00     0.159 HD
HETATM   26  O   UNK N   1      24.712  27.863  -4.719  0.00  0.00    -0.268 OA
ENDBRANCH  10  22
BRANCH   7  27
HETATM   27  O   UNK N   1      25.623  26.806  -6.976  0.00  0.00    -0.362 OA
HETATM   28  H   UNK N   1      25.000  27.443  -6.687  0.00  0.00     0.217 HD
ENDBRANCH   7  27
BRANCH   2  29
HETATM   29  O   UNK N   1      29.035  25.940  -4.815  0.00  0.00    -0.374 OA
HETATM   30  H   UNK N   1      29.389  26.776  -5.158  0.00  0.00     0.211 HD
ENDBRANCH   2  29
BRANCH   3  31
HETATM   31  N   UNK N   1      26.771  24.742  -8.263  0.00  0.00     0.091 N 
HETATM   32  C   UNK N   1      25.894  23.709  -8.791  0.00  0.00     0.310 C 
HETATM   33  C   UNK N   1      28.039  24.612  -8.960  0.00  0.00     0.310 C 
ENDBRANCH   3  31
BRANCH   5  34
HETATM   34  O   UNK N   1      29.417  24.305  -2.470  0.00  0.00    -0.361 OA
HETATM   35  H   UNK N   1      29.955  25.051  -2.293  0.00  0.00     0.217 HD
ENDBRANCH   5  34
BRANCH   4  36
HETATM   36  O   UNK N   1      28.005  21.971  -7.257  0.00  0.00    -0.394 OA
HETATM   37  H   UNK N   1      28.058  22.435  -8.107  0.00  0.00     0.210 HD
ENDBRANCH   4  36
BRANCH  18  38
HETATM   38  O   UNK N   1      33.297  21.135  -1.984  0.00  0.00    -0.360 OA
HETATM   39  H   UNK N   1      33.308  20.541  -1.260  0.00  0.00     0.217 HD
ENDBRANCH  18  38
TORSDOF 7
ENDMDL
MODEL 3
REMARK VINA RESULT:      -8.0      8.947     12.677
REMARK  7 active torsions:
REMARK  status: ('A' for Active; 'I' for Inactive)
REMARK    1  A    between atoms: C_2  and  O_32 
REMARK    2  A    between atoms: C_3  and  N_28 
REMARK    3  A    between atoms: C_4  and  O_31 
REMARK    4  A    between atoms: C_5  and  O_10 
REMARK    5  A    between atoms: C_7  and  O_13 
REMARK    6  A    between atoms: C_11  and  C_16 
REMARK       I    between atoms: C_16  and  N_20 
REMARK    7  A    between atoms: C_23  and  O_26 
ROOT
HETATM    1  C   UNK N   1      34.087  14.320   7.825  0.00  0.00     0.104 C 
HETATM    2  C   UNK N   1      33.292  14.252   9.184  0.00  0.00     0.180 C 
HETATM    3  C   UNK N   1      35.581  13.832   7.960  0.00  0.00     0.289 C 
HETATM    4  C   UNK N   1      33.931  15.751   7.242  0.00  0.00     0.137 C 
HETATM    5  C   UNK N   1      32.115  15.231   9.313  0.00  0.00     0.097 C 
HETATM    6  C   UNK N   1      34.251  14.307  10.359  0.00  0.00     0.208 C 
HETATM    7  C   UNK N   1      35.855  12.947   9.176  0.00  0.00     0.096 C 
HETATM    8  C   UNK N   1      32.419  15.926   6.941  0.00  0.00     0.063 C 
HETATM    9  C   UNK N   1      31.710  16.028   8.282  0.00  0.00     0.033 C 
HETATM   10  C   UNK N   1      35.285  13.250  10.367  0.00  0.00     0.112 C 
HETATM   11  O   UNK N   1      34.051  15.018  11.335  0.00  0.00    -0.288 OA
HETATM   12  C   UNK N   1      32.090  17.115   6.013  0.00  0.00     0.027 C 
HETATM   13  C   UNK N   1      30.480  16.887   8.391  0.00  0.00     0.194 C 
HETATM   14  C   UNK N   1      30.613  17.445   5.961  0.00  0.00    -0.037 A 
HETATM   15  C   UNK N   1      29.855  17.417   7.149  0.00  0.00     0.054 A 
HETATM   16  O   UNK N   1      29.911  17.022   9.466  0.00  0.00    -0.287 OA
HETATM   17  C   UNK N   1      30.007  17.861   4.762  0.00  0.00     0.009 A 
HETATM   18  C   UNK N   1      28.501  17.832   7.116  0.00  0.00     0.080 A 
HETATM   19  C   UNK N   1      28.668  18.246   4.737  0.00  0.00     0.003 A 
HETATM   20  C   UNK N   1      27.922  18.242   5.913  0.00  0.00     0.037 A 
HETATM   21  C   UNK N   1      32.665  16.918   4.607  0.00  0.00     0.016 C 
ENDROOT
BRANCH  10  22
HETATM   22  C   UNK N   1      35.569  12.479  11.621  0.00  0.00     0.255 C 
HETATM   23  N   UNK N   1      34.584  12.146  12.478  0.00  0.00    -0.366 N 
HETATM   24  H   UNK N   1      34.738  11.791  13.382  0.00  0.00     0.159 HD
HETATM   25  H   UNK N   1      33.653  12.266  12.181  0.00  0.00     0.159 HD
HETATM   26  O   UNK N   1      36.723  12.194  11.908  0.00  0.00    -0.268 OA
ENDBRANCH  10  22
BRANCH   7  27
HETATM   27  O   UNK N   1      36.708  11.907   9.061  0.00  0.00    -0.362 OA
HETATM   28  H   UNK N   1      37.635  11.967   9.180  0.00  0.00     0.217 HD
ENDBRANCH   7  27
BRANCH   2  29
HETATM   29  O   UNK N   1      32.723  12.975   9.254  0.00  0.00    -0.374 OA
HETATM   30  H   UNK N   1      32.274  12.140   9.047  0.00  0.00     0.211 HD
ENDBRANCH   2  29
BRANCH   3  31
HETATM   31  N   UNK N   1      36.215  13.219   6.766  0.00  0.00     0.091 N 
HETATM   32  C   UNK N   1      37.181  14.159   6.219  0.00  0.00     0.310 C 
HETATM   33  C   UNK N   1      35.332  12.843   5.675  0.00  0.00     0.310 C 
ENDBRANCH   3  31
BRANCH   5  34
HETATM   34  O   UNK N   1      31.437  15.246  10.482  0.00  0.00    -0.361 OA
HETATM   35  H   UNK N   1      31.380  16.036  10.982  0.00  0.00     0.217 HD
ENDBRANCH   5  34
BRANCH   4  36
HETATM   36  O   UNK N   1      34.716  15.965   6.113  0.00  0.00    -0.394 OA
HETATM   37  H   UNK N   1      35.551  16.456   6.155  0.00  0.00     0.210 HD
ENDBRANCH   4  36
BRANCH  18  38
HETATM   38  O   UNK N   1      27.741  17.813   8.225  0.00  0.00    -0.360 OA
HETATM   39  H   UNK N   1      26.944  18.304   8.264  0.00  0.00     0.217 HD
ENDBRANCH  18  38
TORSDOF 7
ENDMDL
MODEL 4
REMARK VINA RESULT:      -7.6      7.484     10.855
REMARK  7 active torsions:
REMARK  status: ('A' for Active; 'I' for Inactive)
REMARK    1  A    between atoms: C_2  and  O_32 
REMARK    2  A    between atoms: C_3  and  N_28 
REMARK    3  A    between atoms: C_4  and  O_31 
REMARK    4  A    between atoms: C_5  and  O_10 
REMARK    5  A    between atoms: C_7  and  O_13 
REMARK    6  A    between atoms: C_11  and  C_16 
REMARK       I    between atoms: C_16  and  N_20 
REMARK    7  A    between atoms: C_23  and  O_26 
ROOT
HETATM    1  C   UNK N   1      32.464  16.770   6.022  0.00  0.00     0.104 C 
HETATM    2  C   UNK N   1      32.108  16.549   4.503  0.00  0.00     0.180 C 
HETATM    3  C   UNK N   1      33.623  15.827   6.527  0.00  0.00     0.289 C 
HETATM    4  C   UNK N   1      31.152  16.672   6.847  0.00  0.00     0.137 C 
HETATM    5  C   UNK N   1      30.674  16.922   4.097  0.00  0.00     0.097 C 
HETATM    6  C   UNK N   1      32.514  15.154   4.065  0.00  0.00     0.208 C 
HETATM    7  C   UNK N   1      34.507  15.254   5.420  0.00  0.00     0.096 C 
HETATM    8  C   UNK N   1      30.260  17.848   6.370  0.00  0.00     0.063 C 
HETATM    9  C   UNK N   1      29.799  17.511   4.962  0.00  0.00     0.033 C 
HETATM   10  C   UNK N   1      33.943  14.830   4.264  0.00  0.00     0.112 C 
HETATM   11  O   UNK N   1      31.780  14.438   3.395  0.00  0.00    -0.288 OA
HETATM   12  C   UNK N   1      29.079  18.171   7.311  0.00  0.00     0.027 C 
HETATM   13  C   UNK N   1      28.444  17.980   4.508  0.00  0.00     0.194 C 
HETATM   14  C   UNK N   1      28.065  19.115   6.699  0.00  0.00    -0.037 A 
HETATM   15  C   UNK N   1      27.695  18.952   5.349  0.00  0.00     0.054 A 
HETATM   16  O   UNK N   1      28.027  17.689   3.395  0.00  0.00    -0.287 OA
HETATM   17  C   UNK N   1      27.424  20.093   7.480  0.00  0.00     0.009 A 
HETATM   18  C   UNK N   1      26.667  19.765   4.811  0.00  0.00     0.080 A 
HETATM   19  C   UNK N   1      26.430  20.901   6.935  0.00  0.00     0.003 A 
HETATM   20  C   UNK N   1      26.045  20.730   5.607  0.00  0.00     0.037 A 
HETATM   21  C   UNK N   1      29.558  18.678   8.675  0.00  0.00     0.016 C 
ENDROOT
BRANCH  10  22
HETATM   22  C   UNK N   1      34.732  14.184   3.166  0.00  0.00     0.255 C 
HETATM   23  N   UNK N   1      34.469  14.438   1.870  0.00  0.00    -0.366 N 
HETATM   24  H   UNK N   1      34.843  13.921   1.120  0.00  0.00     0.159 HD
HETATM   25  H   UNK N   1      33.867  15.188   1.658  0.00  0.00     0.159 HD
HETATM   26  O   UNK N   1      35.595  13.363   3.443  0.00  0.00    -0.268 OA
ENDBRANCH  10  22
BRANCH   7  27
HETATM   27  O   UNK N   1      35.835  15.125   5.631  0.00  0.00    -0.362 OA
HETATM   28  H   UNK N   1      36.404  15.830   5.867  0.00  0.00     0.217 HD
ENDBRANCH   7  27
BRANCH   2  29
HETATM   29  O   UNK N   1      32.937  17.404   3.767  0.00  0.00    -0.374 OA
HETATM   30  H   UNK N   1      33.674  17.787   3.265  0.00  0.00     0.211 HD
ENDBRANCH   2  29
BRANCH   3  31
HETATM   31  N   UNK N   1      34.488  16.328   7.624  0.00  0.00     0.091 N 
HETATM   32  C   UNK N   1      34.159  15.605   8.843  0.00  0.00     0.310 C 
HETATM   33  C   UNK N   1      34.396  17.744   7.939  0.00  0.00     0.310 C 
ENDBRANCH   3  31
BRANCH   5  34
HETATM   34  O   UNK N   1      30.307  16.698   2.815  0.00  0.00    -0.361 OA
HETATM   35  H   UNK N   1      29.402  16.599   2.596  0.00  0.00     0.217 HD
ENDBRANCH   5  34
BRANCH   4  36
HETATM   36  O   UNK N   1      31.372  16.708   8.221  0.00  0.00    -0.394 OA
HETATM   37  H   UNK N   1      31.961  17.360   8.630  0.00  0.00     0.210 HD
ENDBRANCH   4  36
BRANCH  18  38
HETATM   38  O   UNK N   1      26.291  19.649   3.525  0.00  0.00    -0.360 OA
HETATM   39  H   UNK N   1      26.492  20.325   2.908  0.00  0.00     0.217 HD
ENDBRANCH  18  38
TORSDOF 7
ENDMDL
MODEL 5
REMARK VINA RESULT:      -7.5      8.168     12.048
REMARK  7 active torsions:
REMARK  status: ('A' for Active; 'I' for Inactive)
REMARK    1  A    between atoms: C_2  and  O_32 
REMARK    2  A    between atoms: C_3  and  N_28 
REMARK    3  A    between atoms: C_4  and  O_31 
REMARK    4  A    between atoms: C_5  and  O_10 
REMARK    5  A    between atoms: C_7  and  O_13 
REMARK    6  A    between atoms: C_11  and  C_16 
REMARK       I    between atoms: C_16  and  N_20 
REMARK    7  A    between atoms: C_23  and  O_26 
ROOT
HETATM    1  C   UNK N   1      33.483  15.826   7.779  0.00  0.00     0.104 C 
HETATM    2  C   UNK N   1      33.555  15.575   6.225  0.00  0.00     0.180 C 
HETATM    3  C   UNK N   1      34.458  14.896   8.599  0.00  0.00     0.289 C 
HETATM    4  C   UNK N   1      31.995  15.739   8.215  0.00  0.00     0.137 C 
HETATM    5  C   UNK N   1      32.287  15.935   5.435  0.00  0.00     0.097 C 
HETATM    6  C   UNK N   1      34.062  14.174   5.940  0.00  0.00     0.208 C 
HETATM    7  C   UNK N   1      35.610  14.306   7.786  0.00  0.00     0.096 C 
HETATM    8  C   UNK N   1      31.268  16.902   7.491  0.00  0.00     0.063 C 
HETATM    9  C   UNK N   1      31.210  16.538   6.017  0.00  0.00     0.033 C 
HETATM   10  C   UNK N   1      35.383  13.858   6.528  0.00  0.00     0.112 C 
HETATM   11  O   UNK N   1      33.538  13.443   5.109  0.00  0.00    -0.288 OA
HETATM   12  C   UNK N   1      29.876  17.238   8.068  0.00  0.00     0.027 C 
HETATM   13  C   UNK N   1      30.031  16.993   5.201  0.00  0.00     0.194 C 
HETATM   14  C   UNK N   1      29.070  18.167   7.184  0.00  0.00    -0.037 A 
HETATM   15  C   UNK N   1      29.083  17.979   5.787  0.00  0.00     0.054 A 
HETATM   16  O   UNK N   1      29.934  16.681   4.022  0.00  0.00    -0.287 OA
HETATM   17  C   UNK N   1      28.241  19.157   7.742  0.00  0.00     0.009 A 
HETATM   18  C   UNK N   1      28.242  18.778   4.974  0.00  0.00     0.080 A 
HETATM   19  C   UNK N   1      27.436  19.952   6.930  0.00  0.00     0.003 A 
HETATM   20  C   UNK N   1      27.428  19.754   5.551  0.00  0.00     0.037 A 
HETATM   21  C   UNK N   1      29.965  17.773   9.501  0.00  0.00     0.016 C 
ENDROOT
BRANCH  10  22
HETATM   22  C   UNK N   1      36.440  13.195   5.700  0.00  0.00     0.255 C 
HETATM   23  N   UNK N   1      36.587  13.478   4.392  0.00  0.00    -0.366 N 
HETATM   24  H   UNK N   1      37.149  12.956   3.775  0.00  0.00     0.159 HD
HETATM   25  H   UNK N   1      36.103  14.255   4.029  0.00  0.00     0.159 HD
HETATM   26  O   UNK N   1      37.150  12.334   6.201  0.00  0.00    -0.268 OA
ENDBRANCH  10  22
BRANCH   7  27
HETATM   27  O   UNK N   1      36.829  14.185   8.354  0.00  0.00    -0.362 OA
HETATM   28  H   UNK N   1      37.552  14.755   8.181  0.00  0.00     0.217 HD
ENDBRANCH   7  27
BRANCH   2  29
HETATM   29  O   UNK N   1      34.555  16.419   5.727  0.00  0.00    -0.374 OA
HETATM   30  H   UNK N   1      35.275  16.807   5.206  0.00  0.00     0.211 HD
ENDBRANCH   2  29
BRANCH   3  31
HETATM   31  N   UNK N   1      34.991  15.420   9.881  0.00  0.00     0.091 N 
HETATM   32  C   UNK N   1      34.255  14.808  10.976  0.00  0.00     0.310 C 
HETATM   33  C   UNK N   1      34.922  16.858  10.082  0.00  0.00     0.310 C 
ENDBRANCH   3  31
BRANCH   5  34
HETATM   34  O   UNK N   1      32.284  15.687   4.106  0.00  0.00    -0.361 OA
HETATM   35  H   UNK N   1      31.801  16.241   3.526  0.00  0.00     0.217 HD
ENDBRANCH   5  34
BRANCH   4  36
HETATM   36  O   UNK N   1      31.831  15.800   9.596  0.00  0.00    -0.394 OA
HETATM   37  H   UNK N   1      30.968  15.975  10.003  0.00  0.00     0.210 HD
ENDBRANCH   4  36
BRANCH  18  38
HETATM   38  O   UNK N   1      28.232  18.636   3.637  0.00  0.00    -0.360 OA
HETATM   39  H   UNK N   1      29.024  18.450   3.172  0.00  0.00     0.217 HD
ENDBRANCH  18  38
TORSDOF 7
ENDMDL
MODEL 6
REMARK VINA RESULT:      -7.5     11.481     14.459
REMARK  7 active torsions:
REMARK  status: ('A' for Active; 'I' for Inactive)
REMARK    1  A    between atoms: C_2  and  O_32 
REMARK    2  A    between atoms: C_3  and  N_28 
REMARK    3  A    between atoms: C_4  and  O_31 
REMARK    4  A    between atoms: C_5  and  O_10 
REMARK    5  A    between atoms: C_7  and  O_13 
REMARK    6  A    between atoms: C_11  and  C_16 
REMARK       I    between atoms: C_16  and  N_20 
REMARK    7  A    between atoms: C_23  and  O_26 
ROOT
HETATM    1  C   UNK N   1      34.239  12.834   9.692  0.00  0.00     0.104 C 
HETATM    2  C   UNK N   1      34.467  14.299  10.227  0.00  0.00     0.180 C 
HETATM    3  C   UNK N   1      34.768  11.727  10.683  0.00  0.00     0.289 C 
HETATM    4  C   UNK N   1      34.827  12.745   8.257  0.00  0.00     0.137 C 
HETATM    5  C   UNK N   1      34.574  15.389   9.150  0.00  0.00     0.097 C 
HETATM    6  C   UNK N   1      35.612  14.324  11.222  0.00  0.00     0.208 C 
HETATM    7  C   UNK N   1      34.935  12.193  12.129  0.00  0.00     0.096 C 
HETATM    8  C   UNK N   1      33.993  13.725   7.392  0.00  0.00     0.063 C 
HETATM    9  C   UNK N   1      34.372  15.131   7.825  0.00  0.00     0.033 C 
HETATM   10  C   UNK N   1      35.448  13.421  12.383  0.00  0.00     0.112 C 
HETATM   11  O   UNK N   1      36.488  15.179  11.193  0.00  0.00    -0.288 OA
HETATM   12  C   UNK N   1      34.149  13.518   5.870  0.00  0.00     0.027 C 
HETATM   13  C   UNK N   1      34.358  16.236   6.804  0.00  0.00     0.194 C 
HETATM   14  C   UNK N   1      33.564  14.648   5.048  0.00  0.00    -0.037 A 
HETATM   15  C   UNK N   1      33.752  15.980   5.470  0.00  0.00     0.054 A 
HETATM   16  O   UNK N   1      34.699  17.370   7.112  0.00  0.00    -0.287 OA
HETATM   17  C   UNK N   1      32.912  14.393   3.828  0.00  0.00     0.009 A 
HETATM   18  C   UNK N   1      33.300  17.038   4.642  0.00  0.00     0.080 A 
HETATM   19  C   UNK N   1      32.452  15.440   3.034  0.00  0.00     0.003 A 
HETATM   20  C   UNK N   1      32.656  16.758   3.435  0.00  0.00     0.037 A 
HETATM   21  C   UNK N   1      33.600  12.161   5.418  0.00  0.00     0.016 C 
ENDROOT
BRANCH  10  22
HETATM   22  C   UNK N   1      35.717  13.916  13.771  0.00  0.00     0.255 C 
HETATM   23  N   UNK N   1      36.774  14.706  14.041  0.00  0.00    -0.366 N 
HETATM   24  H   UNK N   1      37.084  14.919  14.951  0.00  0.00     0.159 HD
HETATM   25  H   UNK N   1      37.267  15.095  13.283  0.00  0.00     0.159 HD
HETATM   26  O   UNK N   1      35.001  13.552  14.693  0.00  0.00    -0.268 OA
ENDBRANCH  10  22
BRANCH   7  27
HETATM   27  O   UNK N   1      34.623  11.352  13.138  0.00  0.00    -0.362 OA
HETATM   28  H   UNK N   1      34.761  10.425  13.117  0.00  0.00     0.217 HD
ENDBRANCH   7  27
BRANCH   2  29
HETATM   29  O   UNK N   1      33.337  14.632  10.982  0.00  0.00    -0.374 OA
HETATM   30  H   UNK N   1      32.526  15.045  11.316  0.00  0.00     0.211 HD
ENDBRANCH   2  29
BRANCH   3  31
HETATM   31  N   UNK N   1      34.077  10.413  10.677  0.00  0.00     0.091 N 
HETATM   32  C   UNK N   1      34.985   9.413  10.134  0.00  0.00     0.310 C 
HETATM   33  C   UNK N   1      32.847  10.322   9.910  0.00  0.00     0.310 C 
ENDBRANCH   3  31
BRANCH   5  34
HETATM   34  O   UNK N   1      34.823  16.653   9.559  0.00  0.00    -0.361 OA
HETATM   35  H   UNK N   1      34.564  16.929  10.416  0.00  0.00     0.217 HD
ENDBRANCH   5  34
BRANCH   4  36
HETATM   36  O   UNK N   1      34.810  11.451   7.744  0.00  0.00    -0.394 OA
HETATM   37  H   UNK N   1      35.525  10.820   7.920  0.00  0.00     0.210 HD
ENDBRANCH   4  36
BRANCH  18  38
HETATM   38  O   UNK N   1      33.452  18.321   5.012  0.00  0.00    -0.360 OA
HETATM   39  H   UNK N   1      33.311  19.013   4.396  0.00  0.00     0.217 HD
ENDBRANCH  18  38
TORSDOF 7
ENDMDL
MODEL 7
REMARK VINA RESULT:      -7.1     14.896     17.028
REMARK  7 active torsions:
REMARK  status: ('A' for Active; 'I' for Inactive)
REMARK    1  A    between atoms: C_2  and  O_32 
REMARK    2  A    between atoms: C_3  and  N_28 
REMARK    3  A    between atoms: C_4  and  O_31 
REMARK    4  A    between atoms: C_5  and  O_10 
REMARK    5  A    between atoms: C_7  and  O_13 
REMARK    6  A    between atoms: C_11  and  C_16 
REMARK       I    between atoms: C_16  and  N_20 
REMARK    7  A    between atoms: C_23  and  O_26 
ROOT
HETATM    1  C   UNK N   1      36.421  10.662  13.311  0.00  0.00     0.104 C 
HETATM    2  C   UNK N   1      36.362  12.204  13.631  0.00  0.00     0.180 C 
HETATM    3  C   UNK N   1      36.240  10.344  11.777  0.00  0.00     0.289 C 
HETATM    4  C   UNK N   1      35.411   9.936  14.240  0.00  0.00     0.137 C 
HETATM    5  C   UNK N   1      35.914  12.570  15.054  0.00  0.00     0.097 C 
HETATM    6  C   UNK N   1      35.589  12.938  12.550  0.00  0.00     0.208 C 
HETATM    7  C   UNK N   1      36.533  11.518  10.843  0.00  0.00     0.096 C 
HETATM    8  C   UNK N   1      35.923  10.162  15.687  0.00  0.00     0.063 C 
HETATM    9  C   UNK N   1      35.690  11.627  16.015  0.00  0.00     0.033 C 
HETATM   10  C   UNK N   1      36.118  12.763  11.179  0.00  0.00     0.112 C 
HETATM   11  O   UNK N   1      34.743  13.784  12.809  0.00  0.00    -0.288 OA
HETATM   12  C   UNK N   1      35.296   9.220  16.737  0.00  0.00     0.027 C 
HETATM   13  C   UNK N   1      35.372  12.014  17.433  0.00  0.00     0.194 C 
HETATM   14  C   UNK N   1      35.584   9.636  18.164  0.00  0.00    -0.037 A 
HETATM   15  C   UNK N   1      35.528  11.001  18.512  0.00  0.00     0.054 A 
HETATM   16  O   UNK N   1      35.138  13.180  17.721  0.00  0.00    -0.287 OA
HETATM   17  C   UNK N   1      35.820   8.676  19.164  0.00  0.00     0.009 A 
HETATM   18  C   UNK N   1      35.689  11.376  19.868  0.00  0.00     0.080 A 
HETATM   19  C   UNK N   1      35.998   9.058  20.491  0.00  0.00     0.003 A 
HETATM   20  C   UNK N   1      35.921  10.404  20.843  0.00  0.00     0.037 A 
HETATM   21  C   UNK N   1      35.684   7.757  16.496  0.00  0.00     0.016 C 
ENDROOT
BRANCH  10  22
HETATM   22  C   UNK N   1      36.297  13.948  10.280  0.00  0.00     0.255 C 
HETATM   23  N   UNK N   1      36.830  15.099  10.735  0.00  0.00    -0.366 N 
HETATM   24  H   UNK N   1      36.816  15.947  10.235  0.00  0.00     0.159 HD
HETATM   25  H   UNK N   1      37.260  15.091  11.620  0.00  0.00     0.159 HD
HETATM   26  O   UNK N   1      35.899  13.897   9.125  0.00  0.00    -0.268 OA
ENDBRANCH  10  22
BRANCH   7  27
HETATM   27  O   UNK N   1      37.154  11.290   9.666  0.00  0.00    -0.362 OA
HETATM   28  H   UNK N   1      37.947  10.802   9.571  0.00  0.00     0.217 HD
ENDBRANCH   7  27
BRANCH   2  29
HETATM   29  O   UNK N   1      37.671  12.689  13.517  0.00  0.00    -0.374 OA
HETATM   30  H   UNK N   1      38.594  12.932  13.686  0.00  0.00     0.211 HD
ENDBRANCH   2  29
BRANCH   3  31
HETATM   31  N   UNK N   1      36.902   9.127  11.244  0.00  0.00     0.091 N 
HETATM   32  C   UNK N   1      35.883   8.129  10.959  0.00  0.00     0.310 C 
HETATM   33  C   UNK N   1      37.886   8.488  12.101  0.00  0.00     0.310 C 
ENDBRANCH   3  31
BRANCH   5  34
HETATM   34  O   UNK N   1      35.797  13.882  15.357  0.00  0.00    -0.361 OA
HETATM   35  H   UNK N   1      36.549  14.440  15.330  0.00  0.00     0.217 HD
ENDBRANCH   5  34
BRANCH   4  36
HETATM   36  O   UNK N   1      35.275   8.583  13.941  0.00  0.00    -0.394 OA
HETATM   37  H   UNK N   1      35.536   7.891  14.567  0.00  0.00     0.210 HD
ENDBRANCH   4  36
BRANCH  18  38
HETATM   38  O   UNK N   1      35.652  12.668  20.240  0.00  0.00    -0.360 OA
HETATM   39  H   UNK N   1      35.810  13.347  19.615  0.00  0.00     0.217 HD
ENDBRANCH  18  38
TORSDOF 7
ENDMDL
MODEL 8
REMARK VINA RESULT:      -7.1     12.412     15.836
REMARK  7 active torsions:
REMARK  status: ('A' for Active; 'I' for Inactive)
REMARK    1  A    between atoms: C_2  and  O_32 
REMARK    2  A    between atoms: C_3  and  N_28 
REMARK    3  A    between atoms: C_4  and  O_31 
REMARK    4  A    between atoms: C_5  and  O_10 
REMARK    5  A    between atoms: C_7  and  O_13 
REMARK    6  A    between atoms: C_11  and  C_16 
REMARK       I    between atoms: C_16  and  N_20 
REMARK    7  A    between atoms: C_23  and  O_26 
ROOT
HETATM    1  C   UNK N   1      35.995  12.358  10.854  0.00  0.00     0.104 C 
HETATM    2  C   UNK N   1      35.434  13.459  11.833  0.00  0.00     0.180 C 
HETATM    3  C   UNK N   1      36.871  11.271  11.587  0.00  0.00     0.289 C 
HETATM    4  C   UNK N   1      36.713  13.075   9.679  0.00  0.00     0.137 C 
HETATM    5  C   UNK N   1      35.129  14.822  11.193  0.00  0.00     0.097 C 
HETATM    6  C   UNK N   1      36.307  13.558  13.070  0.00  0.00     0.208 C 
HETATM    7  C   UNK N   1      36.631  11.167  13.093  0.00  0.00     0.096 C 
HETATM    8  C   UNK N   1      35.616  13.885   8.939  0.00  0.00     0.063 C 
HETATM    9  C   UNK N   1      35.226  15.037   9.849  0.00  0.00     0.033 C 
HETATM   10  C   UNK N   1      36.463  12.295  13.824  0.00  0.00     0.112 C 
HETATM   11  O   UNK N   1      36.666  14.632  13.535  0.00  0.00    -0.288 OA
HETATM   12  C   UNK N   1      36.023  14.364   7.529  0.00  0.00     0.027 C 
HETATM   13  C   UNK N   1      34.804  16.342   9.232  0.00  0.00     0.194 C 
HETATM   14  C   UNK N   1      35.067  15.382   6.942  0.00  0.00    -0.037 A 
HETATM   15  C   UNK N   1      34.549  16.400   7.767  0.00  0.00     0.054 A 
HETATM   16  O   UNK N   1      34.524  17.301   9.938  0.00  0.00    -0.287 OA
HETATM   17  C   UNK N   1      34.760  15.378   5.570  0.00  0.00     0.009 A 
HETATM   18  C   UNK N   1      33.744  17.414   7.191  0.00  0.00     0.080 A 
HETATM   19  C   UNK N   1      33.949  16.367   5.019  0.00  0.00     0.003 A 
HETATM   20  C   UNK N   1      33.452  17.388   5.825  0.00  0.00     0.037 A 
HETATM   21  C   UNK N   1      36.243  13.191   6.568  0.00  0.00     0.016 C 
ENDROOT
BRANCH  10  22
HETATM   22  C   UNK N   1      36.304  12.279  15.314  0.00  0.00     0.255 C 
HETATM   23  N   UNK N   1      35.670  13.275  15.963  0.00  0.00    -0.366 N 
HETATM   24  H   UNK N   1      35.684  13.392  16.940  0.00  0.00     0.159 HD
HETATM   25  H   UNK N   1      35.161  13.925  15.427  0.00  0.00     0.159 HD
HETATM   26  O   UNK N   1      36.809  11.376  15.967  0.00  0.00    -0.268 OA
ENDBRANCH  10  22
BRANCH   7  27
HETATM   27  O   UNK N   1      36.646   9.954  13.685  0.00  0.00    -0.362 OA
HETATM   28  H   UNK N   1      37.424   9.483  13.909  0.00  0.00     0.217 HD
ENDBRANCH   7  27
BRANCH   2  29
HETATM   29  O   UNK N   1      34.205  12.987  12.307  0.00  0.00    -0.374 OA
HETATM   30  H   UNK N   1      33.330  12.911  12.718  0.00  0.00     0.211 HD
ENDBRANCH   2  29
BRANCH   3  31
HETATM   31  N   UNK N   1      36.897   9.905  11.008  0.00  0.00     0.091 N 
HETATM   32  C   UNK N   1      38.208   9.674  10.419  0.00  0.00     0.310 C 
HETATM   33  C   UNK N   1      35.917   9.610   9.977  0.00  0.00     0.310 C 
ENDBRANCH   3  31
BRANCH   5  34
HETATM   34  O   UNK N   1      34.697  15.813  12.005  0.00  0.00    -0.361 OA
HETATM   35  H   UNK N   1      33.814  16.119  11.944  0.00  0.00     0.217 HD
ENDBRANCH   5  34
BRANCH   4  36
HETATM   36  O   UNK N   1      37.373  12.193   8.828  0.00  0.00    -0.394 OA
HETATM   37  H   UNK N   1      36.906  11.482   8.363  0.00  0.00     0.210 HD
ENDBRANCH   4  36
BRANCH  18  38
HETATM   38  O   UNK N   1      33.222  18.397   7.945  0.00  0.00    -0.360 OA
HETATM   39  H   UNK N   1      33.645  19.232   7.997  0.00  0.00     0.217 HD
ENDBRANCH  18  38
TORSDOF 7
ENDMDL
MODEL 9
REMARK VINA RESULT:      -7.1      8.488     11.173
REMARK  7 active torsions:
REMARK  status: ('A' for Active; 'I' for Inactive)
REMARK    1  A    between atoms: C_2  and  O_32 
REMARK    2  A    between atoms: C_3  and  N_28 
REMARK    3  A    between atoms: C_4  and  O_31 
REMARK    4  A    between atoms: C_5  and  O_10 
REMARK    5  A    between atoms: C_7  and  O_13 
REMARK    6  A    between atoms: C_11  and  C_16 
REMARK       I    between atoms: C_16  and  N_20 
REMARK    7  A    between atoms: C_23  and  O_26 
ROOT
HETATM    1  C   UNK N   1      31.748  15.199   6.054  0.00  0.00     0.104 C 
HETATM    2  C   UNK N   1      31.746  16.463   6.995  0.00  0.00     0.180 C 
HETATM    3  C   UNK N   1      30.373  14.980   5.313  0.00  0.00     0.289 C 
HETATM    4  C   UNK N   1      32.231  13.978   6.884  0.00  0.00     0.137 C 
HETATM    5  C   UNK N   1      32.733  16.416   8.171  0.00  0.00     0.097 C 
HETATM    6  C   UNK N   1      30.329  16.807   7.413  0.00  0.00     0.208 C 
HETATM    7  C   UNK N   1      29.490  16.225   5.227  0.00  0.00     0.096 C 
HETATM    8  C   UNK N   1      33.693  14.293   7.295  0.00  0.00     0.063 C 
HETATM    9  C   UNK N   1      33.633  15.402   8.331  0.00  0.00     0.033 C 
HETATM   10  C   UNK N   1      29.392  17.053   6.295  0.00  0.00     0.112 C 
HETATM   11  O   UNK N   1      30.035  17.083   8.569  0.00  0.00    -0.288 OA
HETATM   12  C   UNK N   1      34.489  13.068   7.794  0.00  0.00     0.027 C 
HETATM   13  C   UNK N   1      34.671  15.440   9.418  0.00  0.00     0.194 C 
HETATM   14  C   UNK N   1      35.803  13.435   8.453  0.00  0.00    -0.037 A 
HETATM   15  C   UNK N   1      35.856  14.546   9.318  0.00  0.00     0.054 A 
HETATM   16  O   UNK N   1      34.625  16.296  10.291  0.00  0.00    -0.287 OA
HETATM   17  C   UNK N   1      36.946  12.633   8.283  0.00  0.00     0.009 A 
HETATM   18  C   UNK N   1      37.057  14.820  10.018  0.00  0.00     0.080 A 
HETATM   19  C   UNK N   1      38.128  12.925   8.960  0.00  0.00     0.003 A 
HETATM   20  C   UNK N   1      38.179  14.009   9.833  0.00  0.00     0.037 A 
HETATM   21  C   UNK N   1      34.695  12.030   6.685  0.00  0.00     0.016 C 
ENDROOT
BRANCH  10  22
HETATM   22  C   UNK N   1      28.486  18.246   6.315  0.00  0.00     0.255 C 
HETATM   23  N   UNK N   1      27.698  18.511   7.375  0.00  0.00    -0.366 N 
HETATM   24  H   UNK N   1      26.975  19.178   7.370  0.00  0.00     0.159 HD
HETATM   25  H   UNK N   1      27.855  18.006   8.206  0.00  0.00     0.159 HD
HETATM   26  O   UNK N   1      28.412  18.967   5.330  0.00  0.00    -0.268 OA
ENDBRANCH  10  22
BRANCH   7  27
HETATM   27  O   UNK N   1      28.773  16.454   4.106  0.00  0.00    -0.362 OA
HETATM   28  H   UNK N   1      27.950  16.051   3.913  0.00  0.00     0.217 HD
ENDBRANCH   7  27
BRANCH   2  29
HETATM   29  O   UNK N   1      32.154  17.549   6.210  0.00  0.00    -0.374 OA
HETATM   30  H   UNK N   1      32.176  18.341   5.652  0.00  0.00     0.211 HD
ENDBRANCH   2  29
BRANCH   3  31
HETATM   31  N   UNK N   1      30.405  14.319   3.985  0.00  0.00     0.091 N 
HETATM   32  C   UNK N   1      29.874  12.972   4.122  0.00  0.00     0.310 C 
HETATM   33  C   UNK N   1      31.704  14.195   3.345  0.00  0.00     0.310 C 
ENDBRANCH   3  31
BRANCH   5  34
HETATM   34  O   UNK N   1      32.729  17.456   9.035  0.00  0.00    -0.361 OA
HETATM   35  H   UNK N   1      33.140  17.372   9.873  0.00  0.00     0.217 HD
ENDBRANCH   5  34
BRANCH   4  36
HETATM   36  O   UNK N   1      32.131  12.777   6.188  0.00  0.00    -0.394 OA
HETATM   37  H   UNK N   1      31.973  12.749   5.232  0.00  0.00     0.210 HD
ENDBRANCH   4  36
BRANCH  18  38
HETATM   38  O   UNK N   1      37.152  15.875  10.846  0.00  0.00    -0.360 OA
HETATM   39  H   UNK N   1      36.381  16.306  11.159  0.00  0.00     0.217 HD
ENDBRANCH  18  38
TORSDOF 7
ENDMDL
