MODEL 1
REMARK VINA RESULT:      -6.8      0.000      0.000
REMARK  17 active torsions:
REMARK  status: ('A' for Active; 'I' for Inactive)
REMARK    1  A    between atoms: C_1  and  O_9 
REMARK    2  A    between atoms: C_2  and  C_8 
REMARK    3  A    between atoms: C_3  and  C_6 
REMARK    4  A    between atoms: C_5  and  O_10 
REMARK    5  A    between atoms: C_6  and  C_20 
REMARK    6  A    between atoms: C_7  and  C_8 
REMARK    7  A    between atoms: C_11  and  C_12 
REMARK    8  A    between atoms: C_11  and  C_14 
REMARK    9  A    between atoms: C_30  and  C_12 
REMARK   10  A    between atoms: C_13  and  C_14 
REMARK   11  A    between atoms: C_13  and  O_16 
REMARK   12  A    between atoms: C_15  and  O_16 
REMARK   13  A    between atoms: C_20  and  C_21 
REMARK   14  A    between atoms: C_21  and  C_29 
REMARK   15  A    between atoms: C_21  and  O_22 
REMARK   16  A    between atoms: C_29  and  C_23 
REMARK   17  A    between atoms: C_23  and  C_24 
ROOT
HETATM    1  C   UNK N   1      28.453  17.760   8.869  0.00  0.00     0.125 C 
HETATM    2  C   UNK N   1      28.880  17.754   7.422  0.00  0.00     0.024 C 
HETATM    3  C   UNK N   1      30.262  17.163   7.523  0.00  0.00     0.021 C 
HETATM    4  C   UNK N   1      29.704  18.175   9.635  0.00  0.00     0.064 C 
HETATM    5  C   UNK N   1      30.867  17.942   8.671  0.00  0.00     0.125 C 
ENDROOT
BRANCH   3   6
HETATM    6  C   UNK N   1      31.081  17.201   6.231  0.00  0.00     0.010 C 
BRANCH   6   7
HETATM    7  C   UNK N   1      32.357  16.376   6.312  0.00  0.00     0.032 C 
BRANCH   7   8
HETATM    8  C   UNK N   1      33.382  16.958   5.359  0.00  0.00     0.118 C 
BRANCH   8   9
HETATM    9  C   UNK N   1      32.690  17.612   4.181  0.00  0.00     0.036 C 
BRANCH   9  10
HETATM   10  C   UNK N   1      32.638  16.636   3.018  0.00  0.00     0.041 C 
BRANCH  10  11
HETATM   11  C   UNK N   1      31.332  15.915   3.002  0.00  0.00    -0.058 A 
HETATM   12  C   UNK N   1      31.281  14.537   3.256  0.00  0.00     0.007 A 
HETATM   13  C   UNK N   1      30.056  13.865   3.243  0.00  0.00     0.001 A 
HETATM   14  C   UNK N   1      28.877  14.570   2.986  0.00  0.00     0.000 A 
HETATM   15  C   UNK N   1      28.926  15.946   2.742  0.00  0.00     0.001 A 
HETATM   16  C   UNK N   1      30.151  16.618   2.749  0.00  0.00     0.007 A 
ENDBRANCH  10  11
ENDBRANCH   9  10
ENDBRANCH   8   9
BRANCH   8  17
HETATM   17  O   UNK N   1      34.160  17.902   6.026  0.00  0.00    -0.396 OA
HETATM   18  H   UNK N   1      35.094  18.115   5.872  0.00  0.00     0.210 HD
ENDBRANCH   8  17
ENDBRANCH   7   8
ENDBRANCH   6   7
ENDBRANCH   3   6
BRANCH   2  19
HETATM   19  C   UNK N   1      27.948  16.923   6.558  0.00  0.00     0.034 C 
BRANCH  19  20
HETATM   20  C   UNK N   1      27.472  17.727   5.394  0.00  0.00    -0.030 C 
HETATM   21  C   UNK N   1      28.007  18.918   5.140  0.00  0.00    -0.031 C 
BRANCH  21  22
HETATM   22  C   UNK N   1      27.504  19.739   4.010  0.00  0.00     0.027 C 
BRANCH  22  23
HETATM   23  C   UNK N   1      26.107  19.270   3.663  0.00  0.00     0.013 C 
BRANCH  23  24
HETATM   24  C   UNK N   1      25.398  20.343   2.861  0.00  0.00     0.111 C 
BRANCH  24  25
HETATM   25  C   UNK N   1      23.957  20.351   3.229  0.00  0.00     0.259 C 
HETATM   26  O   UNK N   1      23.216  21.208   2.761  0.00  0.00    -0.265 OA
BRANCH  25  27
HETATM   27  O   UNK N   1      23.474  19.390   4.053  0.00  0.00    -0.317 OA
BRANCH  27  28
HETATM   28  C   UNK N   1      22.454  18.526   3.708  0.00  0.00     0.123 C 
HETATM   29  C   UNK N   1      22.926  17.099   3.887  0.00  0.00     0.040 C 
HETATM   30  C   UNK N   1      21.233  18.753   4.583  0.00  0.00     0.040 C 
ENDBRANCH  27  28
ENDBRANCH  25  27
ENDBRANCH  24  25
ENDBRANCH  23  24
ENDBRANCH  22  23
ENDBRANCH  21  22
ENDBRANCH  19  20
ENDBRANCH   2  19
BRANCH   5  31
HETATM   31  O   UNK N   1      31.873  17.197   9.287  0.00  0.00    -0.395 OA
HETATM   32  H   UNK N   1      31.928  16.229   9.307  0.00  0.00     0.210 HD
ENDBRANCH   5  31
BRANCH   1  33
HETATM   33  O   UNK N   1      27.414  18.667   9.077  0.00  0.00    -0.395 OA
HETATM   34  H   UNK N   1      27.235  19.328   9.765  0.00  0.00     0.210 HD
ENDBRANCH   1  33
TORSDOF 17
ENDMDL
MODEL 2
REMARK VINA RESULT:      -6.4     10.805     15.054
REMARK  17 active torsions:
REMARK  status: ('A' for Active; 'I' for Inactive)
REMARK    1  A    between atoms: C_1  and  O_9 
REMARK    2  A    between atoms: C_2  and  C_8 
REMARK    3  A    between atoms: C_3  and  C_6 
REMARK    4  A    between atoms: C_5  and  O_10 
REMARK    5  A    between atoms: C_6  and  C_20 
REMARK    6  A    between atoms: C_7  and  C_8 
REMARK    7  A    between atoms: C_11  and  C_12 
REMARK    8  A    between atoms: C_11  and  C_14 
REMARK    9  A    between atoms: C_30  and  C_12 
REMARK   10  A    between atoms: C_13  and  C_14 
REMARK   11  A    between atoms: C_13  and  O_16 
REMARK   12  A    between atoms: C_15  and  O_16 
REMARK   13  A    between atoms: C_20  and  C_21 
REMARK   14  A    between atoms: C_21  and  C_29 
REMARK   15  A    between atoms: C_21  and  O_22 
REMARK   16  A    between atoms: C_29  and  C_23 
REMARK   17  A    between atoms: C_23  and  C_24 
ROOT
HETATM    1  C   UNK N   1      27.399  25.672  -9.102  0.00  0.00     0.125 C 
HETATM    2  C   UNK N   1      27.715  25.237  -7.693  0.00  0.00     0.024 C 
HETATM    3  C   UNK N   1      26.808  24.043  -7.540  0.00  0.00     0.021 C 
HETATM    4  C   UNK N   1      25.890  25.494  -9.228  0.00  0.00     0.064 C 
HETATM    5  C   UNK N   1      25.494  24.560  -8.084  0.00  0.00     0.125 C 
ENDROOT
BRANCH   3   6
HETATM    6  C   UNK N   1      26.725  23.467  -6.125  0.00  0.00     0.010 C 
BRANCH   6   7
HETATM    7  C   UNK N   1      25.872  24.311  -5.189  0.00  0.00     0.032 C 
BRANCH   7   8
HETATM    8  C   UNK N   1      26.719  24.750  -4.011  0.00  0.00     0.118 C 
BRANCH   8   9
HETATM    9  C   UNK N   1      26.362  26.166  -3.609  0.00  0.00     0.036 C 
BRANCH   9  10
HETATM   10  C   UNK N   1      26.116  26.999  -4.855  0.00  0.00     0.041 C 
BRANCH  10  11
HETATM   11  C   UNK N   1      27.280  27.893  -5.122  0.00  0.00    -0.058 A 
HETATM   12  C   UNK N   1      27.389  28.569  -6.345  0.00  0.00     0.007 A 
HETATM   13  C   UNK N   1      28.479  29.408  -6.591  0.00  0.00     0.001 A 
HETATM   14  C   UNK N   1      29.460  29.581  -5.610  0.00  0.00     0.000 A 
HETATM   15  C   UNK N   1      29.348  28.915  -4.386  0.00  0.00     0.001 A 
HETATM   16  C   UNK N   1      28.261  28.071  -4.142  0.00  0.00     0.007 A 
ENDBRANCH  10  11
ENDBRANCH   9  10
ENDBRANCH   8   9
BRANCH   8  17
HETATM   17  O   UNK N   1      26.505  23.892  -2.934  0.00  0.00    -0.396 OA
HETATM   18  H   UNK N   1      25.983  24.065  -2.134  0.00  0.00     0.210 HD
ENDBRANCH   8  17
ENDBRANCH   7   8
ENDBRANCH   6   7
ENDBRANCH   3   6
BRANCH   2  19
HETATM   19  C   UNK N   1      29.182  24.886  -7.523  0.00  0.00     0.034 C 
BRANCH  19  20
HETATM   20  C   UNK N   1      29.697  25.435  -6.234  0.00  0.00    -0.030 C 
HETATM   21  C   UNK N   1      30.989  25.336  -5.932  0.00  0.00    -0.031 C 
BRANCH  21  22
HETATM   22  C   UNK N   1      31.495  25.841  -4.631  0.00  0.00     0.027 C 
BRANCH  22  23
HETATM   23  C   UNK N   1      30.580  25.339  -3.535  0.00  0.00     0.013 C 
BRANCH  23  24
HETATM   24  C   UNK N   1      31.052  23.976  -3.067  0.00  0.00     0.111 C 
BRANCH  24  25
HETATM   25  C   UNK N   1      29.882  23.061  -2.981  0.00  0.00     0.259 C 
HETATM   26  O   UNK N   1      29.217  23.021  -1.952  0.00  0.00    -0.265 OA
BRANCH  25  27
HETATM   27  O   UNK N   1      29.545  22.306  -4.055  0.00  0.00    -0.317 OA
BRANCH  27  28
HETATM   28  C   UNK N   1      30.465  21.771  -4.934  0.00  0.00     0.123 C 
HETATM   29  C   UNK N   1      31.059  20.515  -4.332  0.00  0.00     0.040 C 
HETATM   30  C   UNK N   1      29.809  21.419  -6.257  0.00  0.00     0.040 C 
ENDBRANCH  27  28
ENDBRANCH  25  27
ENDBRANCH  24  25
ENDBRANCH  23  24
ENDBRANCH  22  23
ENDBRANCH  21  22
ENDBRANCH  19  20
ENDBRANCH   2  19
BRANCH   5  31
HETATM   31  O   UNK N   1      24.717  23.505  -8.560  0.00  0.00    -0.395 OA
HETATM   32  H   UNK N   1      23.754  23.424  -8.466  0.00  0.00     0.210 HD
ENDBRANCH   5  31
BRANCH   1  33
HETATM   33  O   UNK N   1      27.766  27.002  -9.306  0.00  0.00    -0.395 OA
HETATM   34  H   UNK N   1      27.284  27.785  -9.618  0.00  0.00     0.210 HD
ENDBRANCH   1  33
TORSDOF 17
ENDMDL
MODEL 3
REMARK VINA RESULT:      -6.3     11.193     15.467
REMARK  17 active torsions:
REMARK  status: ('A' for Active; 'I' for Inactive)
REMARK    1  A    between atoms: C_1  and  O_9 
REMARK    2  A    between atoms: C_2  and  C_8 
REMARK    3  A    between atoms: C_3  and  C_6 
REMARK    4  A    between atoms: C_5  and  O_10 
REMARK    5  A    between atoms: C_6  and  C_20 
REMARK    6  A    between atoms: C_7  and  C_8 
REMARK    7  A    between atoms: C_11  and  C_12 
REMARK    8  A    between atoms: C_11  and  C_14 
REMARK    9  A    between atoms: C_30  and  C_12 
REMARK   10  A    between atoms: C_13  and  C_14 
REMARK   11  A    between atoms: C_13  and  O_16 
REMARK   12  A    between atoms: C_15  and  O_16 
REMARK   13  A    between atoms: C_20  and  C_21 
REMARK   14  A    between atoms: C_21  and  C_29 
REMARK   15  A    between atoms: C_21  and  O_22 
REMARK   16  A    between atoms: C_29  and  C_23 
REMARK   17  A    between atoms: C_23  and  C_24 
ROOT
HETATM    1  C   UNK N   1      26.872  21.390  -8.147  0.00  0.00     0.125 C 
HETATM    2  C   UNK N   1      26.703  22.870  -7.908  0.00  0.00     0.024 C 
HETATM    3  C   UNK N   1      25.827  23.260  -9.070  0.00  0.00     0.021 C 
HETATM    4  C   UNK N   1      27.036  21.264  -9.657  0.00  0.00     0.064 C 
HETATM    5  C   UNK N   1      26.507  22.575 -10.235  0.00  0.00     0.125 C 
ENDROOT
BRANCH   3   6
HETATM    6  C   UNK N   1      25.621  24.765  -9.252  0.00  0.00     0.010 C 
BRANCH   6   7
HETATM    7  C   UNK N   1      26.670  25.404 -10.151  0.00  0.00     0.032 C 
BRANCH   7   8
HETATM    8  C   UNK N   1      27.111  26.718  -9.537  0.00  0.00     0.118 C 
BRANCH   8   9
HETATM    9  C   UNK N   1      27.678  26.485  -8.152  0.00  0.00     0.036 C 
BRANCH   9  10
HETATM   10  C   UNK N   1      27.822  27.815  -7.434  0.00  0.00     0.041 C 
BRANCH  10  11
HETATM   11  C   UNK N   1      27.040  27.807  -6.162  0.00  0.00    -0.058 A 
HETATM   12  C   UNK N   1      27.604  28.310  -4.981  0.00  0.00     0.007 A 
HETATM   13  C   UNK N   1      26.868  28.303  -3.793  0.00  0.00     0.001 A 
HETATM   14  C   UNK N   1      25.563  27.803  -3.784  0.00  0.00     0.000 A 
HETATM   15  C   UNK N   1      24.996  27.312  -4.964  0.00  0.00     0.001 A 
HETATM   16  C   UNK N   1      25.733  27.311  -6.151  0.00  0.00     0.007 A 
ENDBRANCH  10  11
ENDBRANCH   9  10
ENDBRANCH   8   9
BRANCH   8  17
HETATM   17  O   UNK N   1      28.080  27.311 -10.344  0.00  0.00    -0.396 OA
HETATM   18  H   UNK N   1      27.972  27.649 -11.247  0.00  0.00     0.210 HD
ENDBRANCH   8  17
ENDBRANCH   7   8
ENDBRANCH   6   7
ENDBRANCH   3   6
BRANCH   2  19
HETATM   19  C   UNK N   1      26.058  23.159  -6.564  0.00  0.00     0.034 C 
BRANCH  19  20
HETATM   20  C   UNK N   1      27.086  23.628  -5.589  0.00  0.00    -0.030 C 
HETATM   21  C   UNK N   1      26.715  24.218  -4.456  0.00  0.00    -0.031 C 
BRANCH  21  22
HETATM   22  C   UNK N   1      27.737  24.726  -3.507  0.00  0.00     0.027 C 
BRANCH  22  23
HETATM   23  C   UNK N   1      29.027  24.948  -4.267  0.00  0.00     0.013 C 
BRANCH  23  24
HETATM   24  C   UNK N   1      30.202  24.804  -3.321  0.00  0.00     0.111 C 
BRANCH  24  25
HETATM   25  C   UNK N   1      30.268  23.397  -2.841  0.00  0.00     0.259 C 
HETATM   26  O   UNK N   1      30.434  23.170  -1.648  0.00  0.00    -0.265 OA
BRANCH  25  27
HETATM   27  O   UNK N   1      30.110  22.382  -3.726  0.00  0.00    -0.317 OA
BRANCH  27  28
HETATM   28  C   UNK N   1      31.128  21.890  -4.515  0.00  0.00     0.123 C 
HETATM   29  C   UNK N   1      31.201  20.386  -4.356  0.00  0.00     0.040 C 
HETATM   30  C   UNK N   1      30.886  22.217  -5.979  0.00  0.00     0.040 C 
ENDBRANCH  27  28
ENDBRANCH  25  27
ENDBRANCH  24  25
ENDBRANCH  23  24
ENDBRANCH  22  23
ENDBRANCH  21  22
ENDBRANCH  19  20
ENDBRANCH   2  19
BRANCH   5  31
HETATM   31  O   UNK N   1      25.590  22.327 -11.256  0.00  0.00    -0.395 OA
HETATM   32  H   UNK N   1      25.401  22.915 -12.003  0.00  0.00     0.210 HD
ENDBRANCH   5  31
BRANCH   1  33
HETATM   33  O   UNK N   1      27.995  20.904  -7.477  0.00  0.00    -0.395 OA
HETATM   34  H   UNK N   1      28.125  20.202  -6.819  0.00  0.00     0.210 HD
ENDBRANCH   1  33
TORSDOF 17
ENDMDL
MODEL 4
REMARK VINA RESULT:      -6.2      4.121      9.008
REMARK  17 active torsions:
REMARK  status: ('A' for Active; 'I' for Inactive)
REMARK    1  A    between atoms: C_1  and  O_9 
REMARK    2  A    between atoms: C_2  and  C_8 
REMARK    3  A    between atoms: C_3  and  C_6 
REMARK    4  A    between atoms: C_5  and  O_10 
REMARK    5  A    between atoms: C_6  and  C_20 
REMARK    6  A    between atoms: C_7  and  C_8 
REMARK    7  A    between atoms: C_11  and  C_12 
REMARK    8  A    between atoms: C_11  and  C_14 
REMARK    9  A    between atoms: C_30  and  C_12 
REMARK   10  A    between atoms: C_13  and  C_14 
REMARK   11  A    between atoms: C_13  and  O_16 
REMARK   12  A    between atoms: C_15  and  O_16 
REMARK   13  A    between atoms: C_20  and  C_21 
REMARK   14  A    between atoms: C_21  and  C_29 
REMARK   15  A    between atoms: C_21  and  O_22 
REMARK   16  A    between atoms: C_29  and  C_23 
REMARK   17  A    between atoms: C_23  and  C_24 
ROOT
HETATM    1  C   UNK N   1      19.933  17.934   2.013  0.00  0.00     0.125 C 
HETATM    2  C   UNK N   1      20.353  17.335   3.332  0.00  0.00     0.024 C 
HETATM    3  C   UNK N   1      21.421  16.367   2.891  0.00  0.00     0.021 C 
HETATM    4  C   UNK N   1      19.930  16.759   1.043  0.00  0.00     0.064 C 
HETATM    5  C   UNK N   1      20.767  15.673   1.717  0.00  0.00     0.125 C 
ENDROOT
BRANCH   3   6
HETATM    6  C   UNK N   1      21.933  15.423   3.981  0.00  0.00     0.010 C 
BRANCH   6   7
HETATM    7  C   UNK N   1      23.373  15.704   4.384  0.00  0.00     0.032 C 
BRANCH   7   8
HETATM    8  C   UNK N   1      23.397  16.202   5.815  0.00  0.00     0.118 C 
BRANCH   8   9
HETATM    9  C   UNK N   1      22.592  15.277   6.705  0.00  0.00     0.036 C 
BRANCH   9  10
HETATM   10  C   UNK N   1      23.471  14.126   7.164  0.00  0.00     0.041 C 
BRANCH  10  11
HETATM   11  C   UNK N   1      22.942  13.540   8.430  0.00  0.00    -0.058 A 
HETATM   12  C   UNK N   1      23.763  12.740   9.237  0.00  0.00     0.007 A 
HETATM   13  C   UNK N   1      23.265  12.196  10.424  0.00  0.00     0.001 A 
HETATM   14  C   UNK N   1      21.949  12.458  10.813  0.00  0.00     0.000 A 
HETATM   15  C   UNK N   1      21.133  13.264  10.014  0.00  0.00     0.001 A 
HETATM   16  C   UNK N   1      21.627  13.804   8.824  0.00  0.00     0.007 A 
ENDBRANCH  10  11
ENDBRANCH   9  10
ENDBRANCH   8   9
BRANCH   8  17
HETATM   17  O   UNK N   1      24.713  16.259   6.270  0.00  0.00    -0.396 OA
HETATM   18  H   UNK N   1      25.119  15.725   6.970  0.00  0.00     0.210 HD
ENDBRANCH   8  17
ENDBRANCH   7   8
ENDBRANCH   6   7
ENDBRANCH   3   6
BRANCH   2  19
HETATM   19  C   UNK N   1      20.875  18.387   4.294  0.00  0.00     0.034 C 
BRANCH  19  20
HETATM   20  C   UNK N   1      21.668  19.413   3.554  0.00  0.00    -0.030 C 
HETATM   21  C   UNK N   1      22.995  19.427   3.646  0.00  0.00    -0.031 C 
BRANCH  21  22
HETATM   22  C   UNK N   1      23.782  20.475   2.947  0.00  0.00     0.027 C 
BRANCH  22  23
HETATM   23  C   UNK N   1      25.244  20.281   3.288  0.00  0.00     0.013 C 
BRANCH  23  24
HETATM   24  C   UNK N   1      25.564  18.799   3.313  0.00  0.00     0.111 C 
BRANCH  24  25
HETATM   25  C   UNK N   1      26.522  18.530   4.419  0.00  0.00     0.259 C 
HETATM   26  O   UNK N   1      27.327  17.611   4.314  0.00  0.00    -0.265 OA
BRANCH  25  27
HETATM   27  O   UNK N   1      26.516  19.326   5.516  0.00  0.00    -0.317 OA
BRANCH  27  28
HETATM   28  C   UNK N   1      27.645  19.930   6.030  0.00  0.00     0.123 C 
HETATM   29  C   UNK N   1      27.391  21.415   6.183  0.00  0.00     0.040 C 
HETATM   30  C   UNK N   1      27.999  19.350   7.388  0.00  0.00     0.040 C 
ENDBRANCH  27  28
ENDBRANCH  25  27
ENDBRANCH  24  25
ENDBRANCH  23  24
ENDBRANCH  22  23
ENDBRANCH  21  22
ENDBRANCH  19  20
ENDBRANCH   2  19
BRANCH   5  31
HETATM   31  O   UNK N   1      21.736  15.185   0.840  0.00  0.00    -0.395 OA
HETATM   32  H   UNK N   1      22.384  14.493   1.041  0.00  0.00     0.210 HD
ENDBRANCH   5  31
BRANCH   1  33
HETATM   33  O   UNK N   1      18.665  18.509   2.110  0.00  0.00    -0.395 OA
HETATM   34  H   UNK N   1      18.096  18.741   2.860  0.00  0.00     0.210 HD
ENDBRANCH   1  33
TORSDOF 17
ENDMDL
MODEL 5
REMARK VINA RESULT:      -6.2      5.630      8.424
REMARK  17 active torsions:
REMARK  status: ('A' for Active; 'I' for Inactive)
REMARK    1  A    between atoms: C_1  and  O_9 
REMARK    2  A    between atoms: C_2  and  C_8 
REMARK    3  A    between atoms: C_3  and  C_6 
REMARK    4  A    between atoms: C_5  and  O_10 
REMARK    5  A    between atoms: C_6  and  C_20 
REMARK    6  A    between atoms: C_7  and  C_8 
REMARK    7  A    between atoms: C_11  and  C_12 
REMARK    8  A    between atoms: C_11  and  C_14 
REMARK    9  A    between atoms: C_30  and  C_12 
REMARK   10  A    between atoms: C_13  and  C_14 
REMARK   11  A    between atoms: C_13  and  O_16 
REMARK   12  A    between atoms: C_15  and  O_16 
REMARK   13  A    between atoms: C_20  and  C_21 
REMARK   14  A    between atoms: C_21  and  C_29 
REMARK   15  A    between atoms: C_21  and  O_22 
REMARK   16  A    between atoms: C_29  and  C_23 
REMARK   17  A    between atoms: C_23  and  C_24 
ROOT
HETATM    1  C   UNK N   1      20.692  17.330   7.038  0.00  0.00     0.125 C 
HETATM    2  C   UNK N   1      21.511  16.069   7.164  0.00  0.00     0.024 C 
HETATM    3  C   UNK N   1      20.511  15.127   7.785  0.00  0.00     0.021 C 
HETATM    4  C   UNK N   1      19.875  17.385   8.324  0.00  0.00     0.064 C 
HETATM    5  C   UNK N   1      19.916  15.968   8.894  0.00  0.00     0.125 C 
ENDROOT
BRANCH   3   6
HETATM    6  C   UNK N   1      21.083  13.785   8.246  0.00  0.00     0.010 C 
BRANCH   6   7
HETATM    7  C   UNK N   1      21.285  13.710   9.752  0.00  0.00     0.032 C 
BRANCH   7   8
HETATM    8  C   UNK N   1      21.849  12.348  10.107  0.00  0.00     0.118 C 
BRANCH   8   9
HETATM    9  C   UNK N   1      23.361  12.407  10.166  0.00  0.00     0.036 C 
BRANCH   9  10
HETATM   10  C   UNK N   1      23.944  11.601   9.017  0.00  0.00     0.041 C 
BRANCH  10  11
HETATM   11  C   UNK N   1      24.448  12.510   7.946  0.00  0.00    -0.058 A 
HETATM   12  C   UNK N   1      24.319  12.154   6.596  0.00  0.00     0.007 A 
HETATM   13  C   UNK N   1      24.789  13.010   5.596  0.00  0.00     0.001 A 
HETATM   14  C   UNK N   1      25.381  14.228   5.942  0.00  0.00     0.000 A 
HETATM   15  C   UNK N   1      25.500  14.588   7.288  0.00  0.00     0.001 A 
HETATM   16  C   UNK N   1      25.036  13.731   8.289  0.00  0.00     0.007 A 
ENDBRANCH  10  11
ENDBRANCH   9  10
ENDBRANCH   8   9
BRANCH   8  17
HETATM   17  O   UNK N   1      21.350  11.942  11.343  0.00  0.00    -0.396 OA
HETATM   18  H   UNK N   1      20.421  11.879  11.614  0.00  0.00     0.210 HD
ENDBRANCH   8  17
ENDBRANCH   7   8
ENDBRANCH   6   7
ENDBRANCH   3   6
BRANCH   2  19
HETATM   19  C   UNK N   1      22.017  15.583   5.818  0.00  0.00     0.034 C 
BRANCH  19  20
HETATM   20  C   UNK N   1      21.630  16.545   4.745  0.00  0.00    -0.030 C 
HETATM   21  C   UNK N   1      20.955  16.123   3.679  0.00  0.00    -0.031 C 
BRANCH  21  22
HETATM   22  C   UNK N   1      20.609  17.069   2.588  0.00  0.00     0.027 C 
BRANCH  22  23
HETATM   23  C   UNK N   1      20.415  18.444   3.192  0.00  0.00     0.013 C 
BRANCH  23  24
HETATM   24  C   UNK N   1      20.881  19.498   2.208  0.00  0.00     0.111 C 
BRANCH  24  25
HETATM   25  C   UNK N   1      22.070  20.194   2.771  0.00  0.00     0.259 C 
HETATM   26  O   UNK N   1      22.088  21.419   2.822  0.00  0.00    -0.265 OA
BRANCH  25  27
HETATM   27  O   UNK N   1      23.105  19.463   3.251  0.00  0.00    -0.317 OA
BRANCH  27  28
HETATM   28  C   UNK N   1      24.264  20.016   3.755  0.00  0.00     0.123 C 
HETATM   29  C   UNK N   1      24.906  19.040   4.719  0.00  0.00     0.040 C 
HETATM   30  C   UNK N   1      25.248  20.323   2.639  0.00  0.00     0.040 C 
ENDBRANCH  27  28
ENDBRANCH  25  27
ENDBRANCH  24  25
ENDBRANCH  23  24
ENDBRANCH  22  23
ENDBRANCH  21  22
ENDBRANCH  19  20
ENDBRANCH   2  19
BRANCH   5  31
HETATM   31  O   UNK N   1      18.630  15.526   9.201  0.00  0.00    -0.395 OA
HETATM   32  H   UNK N   1      17.811  15.833   8.782  0.00  0.00     0.210 HD
ENDBRANCH   5  31
BRANCH   1  33
HETATM   33  O   UNK N   1      21.517  18.448   6.918  0.00  0.00    -0.395 OA
HETATM   34  H   UNK N   1      21.409  19.311   6.487  0.00  0.00     0.210 HD
ENDBRANCH   1  33
TORSDOF 17
ENDMDL
MODEL 6
REMARK VINA RESULT:      -6.2     10.745     13.622
REMARK  17 active torsions:
REMARK  status: ('A' for Active; 'I' for Inactive)
REMARK    1  A    between atoms: C_1  and  O_9 
REMARK    2  A    between atoms: C_2  and  C_8 
REMARK    3  A    between atoms: C_3  and  C_6 
REMARK    4  A    between atoms: C_5  and  O_10 
REMARK    5  A    between atoms: C_6  and  C_20 
REMARK    6  A    between atoms: C_7  and  C_8 
REMARK    7  A    between atoms: C_11  and  C_12 
REMARK    8  A    between atoms: C_11  and  C_14 
REMARK    9  A    between atoms: C_30  and  C_12 
REMARK   10  A    between atoms: C_13  and  C_14 
REMARK   11  A    between atoms: C_13  and  O_16 
REMARK   12  A    between atoms: C_15  and  O_16 
REMARK   13  A    between atoms: C_20  and  C_21 
REMARK   14  A    between atoms: C_21  and  C_29 
REMARK   15  A    between atoms: C_21  and  O_22 
REMARK   16  A    between atoms: C_29  and  C_23 
REMARK   17  A    between atoms: C_23  and  C_24 
ROOT
HETATM    1  C   UNK N   1      26.429  26.448  -3.816  0.00  0.00     0.125 C 
HETATM    2  C   UNK N   1      26.158  24.974  -3.989  0.00  0.00     0.024 C 
HETATM    3  C   UNK N   1      26.166  24.845  -5.490  0.00  0.00     0.021 C 
HETATM    4  C   UNK N   1      25.616  27.118  -4.918  0.00  0.00     0.064 C 
HETATM    5  C   UNK N   1      25.302  26.010  -5.922  0.00  0.00     0.125 C 
ENDROOT
BRANCH   3   6
HETATM    6  C   UNK N   1      25.714  23.486  -6.028  0.00  0.00     0.010 C 
BRANCH   6   7
HETATM    7  C   UNK N   1      26.768  22.807  -6.889  0.00  0.00     0.032 C 
BRANCH   7   8
HETATM    8  C   UNK N   1      27.822  23.825  -7.275  0.00  0.00     0.118 C 
BRANCH   8   9
HETATM    9  C   UNK N   1      29.191  23.178  -7.299  0.00  0.00     0.036 C 
BRANCH   9  10
HETATM   10  C   UNK N   1      29.164  21.906  -6.470  0.00  0.00     0.041 C 
BRANCH  10  11
HETATM   11  C   UNK N   1      30.447  21.743  -5.724  0.00  0.00    -0.058 A 
HETATM   12  C   UNK N   1      31.624  22.336  -6.202  0.00  0.00     0.007 A 
HETATM   13  C   UNK N   1      32.822  22.184  -5.499  0.00  0.00     0.001 A 
HETATM   14  C   UNK N   1      32.846  21.447  -4.312  0.00  0.00     0.000 A 
HETATM   15  C   UNK N   1      31.671  20.865  -3.829  0.00  0.00     0.001 A 
HETATM   16  C   UNK N   1      30.473  21.010  -4.534  0.00  0.00     0.007 A 
ENDBRANCH  10  11
ENDBRANCH   9  10
ENDBRANCH   8   9
BRANCH   8  17
HETATM   17  O   UNK N   1      27.531  24.347  -8.534  0.00  0.00    -0.396 OA
HETATM   18  H   UNK N   1      26.759  24.875  -8.791  0.00  0.00     0.210 HD
ENDBRANCH   8  17
ENDBRANCH   7   8
ENDBRANCH   6   7
ENDBRANCH   3   6
BRANCH   2  19
HETATM   19  C   UNK N   1      27.220  24.119  -3.320  0.00  0.00     0.034 C 
BRANCH  19  20
HETATM   20  C   UNK N   1      28.581  24.577  -3.728  0.00  0.00    -0.030 C 
HETATM   21  C   UNK N   1      29.656  24.139  -3.078  0.00  0.00    -0.031 C 
BRANCH  21  22
HETATM   22  C   UNK N   1      31.008  24.629  -3.453  0.00  0.00     0.027 C 
BRANCH  22  23
HETATM   23  C   UNK N   1      30.857  25.646  -4.563  0.00  0.00     0.013 C 
BRANCH  23  24
HETATM   24  C   UNK N   1      31.606  26.911  -4.195  0.00  0.00     0.111 C 
BRANCH  24  25
HETATM   25  C   UNK N   1      30.795  27.688  -3.218  0.00  0.00     0.259 C 
HETATM   26  O   UNK N   1      31.293  28.029  -2.151  0.00  0.00    -0.265 OA
BRANCH  25  27
HETATM   27  O   UNK N   1      29.524  28.037  -3.536  0.00  0.00    -0.317 OA
BRANCH  27  28
HETATM   28  C   UNK N   1      29.089  29.344  -3.624  0.00  0.00     0.123 C 
HETATM   29  C   UNK N   1      28.404  29.553  -4.958  0.00  0.00     0.040 C 
HETATM   30  C   UNK N   1      28.105  29.663  -2.511  0.00  0.00     0.040 C 
ENDBRANCH  27  28
ENDBRANCH  25  27
ENDBRANCH  24  25
ENDBRANCH  23  24
ENDBRANCH  22  23
ENDBRANCH  21  22
ENDBRANCH  19  20
ENDBRANCH   2  19
BRANCH   5  31
HETATM   31  O   UNK N   1      25.637  26.410  -7.215  0.00  0.00    -0.395 OA
HETATM   32  H   UNK N   1      25.884  25.820  -7.944  0.00  0.00     0.210 HD
ENDBRANCH   5  31
BRANCH   1  33
HETATM   33  O   UNK N   1      26.020  26.884  -2.555  0.00  0.00    -0.395 OA
HETATM   34  H   UNK N   1      25.643  27.717  -2.229  0.00  0.00     0.210 HD
ENDBRANCH   1  33
TORSDOF 17
ENDMDL
MODEL 7
REMARK VINA RESULT:      -6.1     11.033     15.307
REMARK  17 active torsions:
REMARK  status: ('A' for Active; 'I' for Inactive)
REMARK    1  A    between atoms: C_1  and  O_9 
REMARK    2  A    between atoms: C_2  and  C_8 
REMARK    3  A    between atoms: C_3  and  C_6 
REMARK    4  A    between atoms: C_5  and  O_10 
REMARK    5  A    between atoms: C_6  and  C_20 
REMARK    6  A    between atoms: C_7  and  C_8 
REMARK    7  A    between atoms: C_11  and  C_12 
REMARK    8  A    between atoms: C_11  and  C_14 
REMARK    9  A    between atoms: C_30  and  C_12 
REMARK   10  A    between atoms: C_13  and  C_14 
REMARK   11  A    between atoms: C_13  and  O_16 
REMARK   12  A    between atoms: C_15  and  O_16 
REMARK   13  A    between atoms: C_20  and  C_21 
REMARK   14  A    between atoms: C_21  and  C_29 
REMARK   15  A    between atoms: C_21  and  O_22 
REMARK   16  A    between atoms: C_29  and  C_23 
REMARK   17  A    between atoms: C_23  and  C_24 
ROOT
HETATM    1  C   UNK N   1      28.552  20.782 -10.093  0.00  0.00     0.125 C 
HETATM    2  C   UNK N   1      27.995  21.155  -8.742  0.00  0.00     0.024 C 
HETATM    3  C   UNK N   1      26.514  21.035  -8.988  0.00  0.00     0.021 C 
HETATM    4  C   UNK N   1      27.610  21.446 -11.091  0.00  0.00     0.064 C 
HETATM    5  C   UNK N   1      26.341  21.765 -10.302  0.00  0.00     0.125 C 
ENDROOT
BRANCH   3   6
HETATM    6  C   UNK N   1      25.623  21.550  -7.856  0.00  0.00     0.010 C 
BRANCH   6   7
HETATM    7  C   UNK N   1      25.328  23.039  -7.961  0.00  0.00     0.032 C 
BRANCH   7   8
HETATM    8  C   UNK N   1      26.017  23.761  -6.820  0.00  0.00     0.118 C 
BRANCH   8   9
HETATM    9  C   UNK N   1      26.028  25.254  -7.075  0.00  0.00     0.036 C 
BRANCH   9  10
HETATM   10  C   UNK N   1      25.291  25.964  -5.953  0.00  0.00     0.041 C 
BRANCH  10  11
HETATM   11  C   UNK N   1      25.987  27.235  -5.596  0.00  0.00    -0.058 A 
HETATM   12  C   UNK N   1      26.933  27.793  -6.466  0.00  0.00     0.007 A 
HETATM   13  C   UNK N   1      27.580  28.985  -6.130  0.00  0.00     0.001 A 
HETATM   14  C   UNK N   1      27.276  29.628  -4.927  0.00  0.00     0.000 A 
HETATM   15  C   UNK N   1      26.325  29.078  -4.063  0.00  0.00     0.001 A 
HETATM   16  C   UNK N   1      25.682  27.883  -4.395  0.00  0.00     0.007 A 
ENDBRANCH  10  11
ENDBRANCH   9  10
ENDBRANCH   8   9
BRANCH   8  17
HETATM   17  O   UNK N   1      25.348  23.497  -5.626  0.00  0.00    -0.396 OA
HETATM   18  H   UNK N   1      24.772  24.097  -5.126  0.00  0.00     0.210 HD
ENDBRANCH   8  17
ENDBRANCH   7   8
ENDBRANCH   6   7
ENDBRANCH   3   6
BRANCH   2  19
HETATM   19  C   UNK N   1      28.486  20.223  -7.648  0.00  0.00     0.034 C 
BRANCH  19  20
HETATM   20  C   UNK N   1      29.379  20.961  -6.707  0.00  0.00    -0.030 C 
HETATM   21  C   UNK N   1      30.630  20.550  -6.510  0.00  0.00    -0.031 C 
BRANCH  21  22
HETATM   22  C   UNK N   1      31.505  21.255  -5.540  0.00  0.00     0.027 C 
BRANCH  22  23
HETATM   23  C   UNK N   1      30.644  21.776  -4.410  0.00  0.00     0.013 C 
BRANCH  23  24
HETATM   24  C   UNK N   1      31.518  22.478  -3.390  0.00  0.00     0.111 C 
BRANCH  24  25
HETATM   25  C   UNK N   1      30.665  23.350  -2.538  0.00  0.00     0.259 C 
HETATM   26  O   UNK N   1      30.227  22.920  -1.478  0.00  0.00    -0.265 OA
BRANCH  25  27
HETATM   27  O   UNK N   1      30.411  24.622  -2.930  0.00  0.00    -0.317 OA
BRANCH  27  28
HETATM   28  C   UNK N   1      29.556  24.949  -3.963  0.00  0.00     0.123 C 
HETATM   29  C   UNK N   1      28.167  24.440  -3.641  0.00  0.00     0.040 C 
HETATM   30  C   UNK N   1      29.494  26.454  -4.159  0.00  0.00     0.040 C 
ENDBRANCH  27  28
ENDBRANCH  25  27
ENDBRANCH  24  25
ENDBRANCH  23  24
ENDBRANCH  22  23
ENDBRANCH  21  22
ENDBRANCH  19  20
ENDBRANCH   2  19
BRANCH   5  31
HETATM   31  O   UNK N   1      25.214  21.295 -10.975  0.00  0.00    -0.395 OA
HETATM   32  H   UNK N   1      24.743  20.469 -10.782  0.00  0.00     0.210 HD
ENDBRANCH   5  31
BRANCH   1  33
HETATM   33  O   UNK N   1      29.856  21.256 -10.242  0.00  0.00    -0.395 OA
HETATM   34  H   UNK N   1      30.710  20.819 -10.387  0.00  0.00     0.210 HD
ENDBRANCH   1  33
TORSDOF 17
ENDMDL
MODEL 8
REMARK VINA RESULT:      -6.1      4.420      9.177
REMARK  17 active torsions:
REMARK  status: ('A' for Active; 'I' for Inactive)
REMARK    1  A    between atoms: C_1  and  O_9 
REMARK    2  A    between atoms: C_2  and  C_8 
REMARK    3  A    between atoms: C_3  and  C_6 
REMARK    4  A    between atoms: C_5  and  O_10 
REMARK    5  A    between atoms: C_6  and  C_20 
REMARK    6  A    between atoms: C_7  and  C_8 
REMARK    7  A    between atoms: C_11  and  C_12 
REMARK    8  A    between atoms: C_11  and  C_14 
REMARK    9  A    between atoms: C_30  and  C_12 
REMARK   10  A    between atoms: C_13  and  C_14 
REMARK   11  A    between atoms: C_13  and  O_16 
REMARK   12  A    between atoms: C_15  and  O_16 
REMARK   13  A    between atoms: C_20  and  C_21 
REMARK   14  A    between atoms: C_21  and  C_29 
REMARK   15  A    between atoms: C_21  and  O_22 
REMARK   16  A    between atoms: C_29  and  C_23 
REMARK   17  A    between atoms: C_23  and  C_24 
ROOT
HETATM    1  C   UNK N   1      29.642  18.602   9.180  0.00  0.00     0.125 C 
HETATM    2  C   UNK N   1      30.423  17.443   8.613  0.00  0.00     0.024 C 
HETATM    3  C   UNK N   1      29.695  17.201   7.316  0.00  0.00     0.021 C 
HETATM    4  C   UNK N   1      28.189  18.281   8.851  0.00  0.00     0.064 C 
HETATM    5  C   UNK N   1      28.244  17.227   7.746  0.00  0.00     0.125 C 
ENDROOT
BRANCH   3   6
HETATM    6  C   UNK N   1      30.110  15.934   6.564  0.00  0.00     0.010 C 
BRANCH   6   7
HETATM    7  C   UNK N   1      29.855  16.021   5.067  0.00  0.00     0.032 C 
BRANCH   7   8
HETATM    8  C   UNK N   1      30.218  17.411   4.585  0.00  0.00     0.118 C 
BRANCH   8   9
HETATM    9  C   UNK N   1      31.340  17.337   3.569  0.00  0.00     0.036 C 
BRANCH   9  10
HETATM   10  C   UNK N   1      32.660  17.653   4.249  0.00  0.00     0.041 C 
BRANCH  10  11
HETATM   11  C   UNK N   1      33.482  16.416   4.392  0.00  0.00    -0.058 A 
HETATM   12  C   UNK N   1      34.199  16.174   5.572  0.00  0.00     0.007 A 
HETATM   13  C   UNK N   1      34.964  15.012   5.704  0.00  0.00     0.001 A 
HETATM   14  C   UNK N   1      35.007  14.084   4.660  0.00  0.00     0.000 A 
HETATM   15  C   UNK N   1      34.284  14.319   3.487  0.00  0.00     0.001 A 
HETATM   16  C   UNK N   1      33.524  15.483   3.351  0.00  0.00     0.007 A 
ENDBRANCH  10  11
ENDBRANCH   9  10
ENDBRANCH   8   9
BRANCH   8  17
HETATM   17  O   UNK N   1      29.103  18.013   4.005  0.00  0.00    -0.396 OA
HETATM   18  H   UNK N   1      28.310  17.577   3.655  0.00  0.00     0.210 HD
ENDBRANCH   8  17
ENDBRANCH   7   8
ENDBRANCH   6   7
ENDBRANCH   3   6
BRANCH   2  19
HETATM   19  C   UNK N   1      31.887  17.789   8.409  0.00  0.00     0.034 C 
BRANCH  19  20
HETATM   20  C   UNK N   1      32.745  16.613   8.739  0.00  0.00    -0.030 C 
HETATM   21  C   UNK N   1      33.978  16.793   9.204  0.00  0.00    -0.031 C 
BRANCH  21  22
HETATM   22  C   UNK N   1      34.849  15.625   9.489  0.00  0.00     0.027 C 
BRANCH  22  23
HETATM   23  C   UNK N   1      35.100  15.569  10.981  0.00  0.00     0.013 C 
BRANCH  23  24
HETATM   24  C   UNK N   1      34.769  14.182  11.496  0.00  0.00     0.111 C 
BRANCH  24  25
HETATM   25  C   UNK N   1      35.337  14.025  12.862  0.00  0.00     0.259 C 
HETATM   26  O   UNK N   1      36.359  14.630  13.168  0.00  0.00    -0.265 OA
BRANCH  25  27
HETATM   27  O   UNK N   1      34.698  13.241  13.764  0.00  0.00    -0.317 OA
BRANCH  27  28
HETATM   28  C   UNK N   1      35.138  11.987  14.137  0.00  0.00     0.123 C 
HETATM   29  C   UNK N   1      35.722  12.056  15.532  0.00  0.00     0.040 C 
HETATM   30  C   UNK N   1      33.994  10.988  14.133  0.00  0.00     0.040 C 
ENDBRANCH  27  28
ENDBRANCH  25  27
ENDBRANCH  24  25
ENDBRANCH  23  24
ENDBRANCH  22  23
ENDBRANCH  21  22
ENDBRANCH  19  20
ENDBRANCH   2  19
BRANCH   5  31
HETATM   31  O   UNK N   1      27.427  17.594   6.677  0.00  0.00    -0.395 OA
HETATM   32  H   UNK N   1      27.702  18.121   5.910  0.00  0.00     0.210 HD
ENDBRANCH   5  31
BRANCH   1  33
HETATM   33  O   UNK N   1      29.834  18.704  10.558  0.00  0.00    -0.395 OA
HETATM   34  H   UNK N   1      30.521  18.377  11.160  0.00  0.00     0.210 HD
ENDBRANCH   1  33
TORSDOF 17
ENDMDL
MODEL 9
REMARK VINA RESULT:      -6.1      1.850      3.536
REMARK  17 active torsions:
REMARK  status: ('A' for Active; 'I' for Inactive)
REMARK    1  A    between atoms: C_1  and  O_9 
REMARK    2  A    between atoms: C_2  and  C_8 
REMARK    3  A    between atoms: C_3  and  C_6 
REMARK    4  A    between atoms: C_5  and  O_10 
REMARK    5  A    between atoms: C_6  and  C_20 
REMARK    6  A    between atoms: C_7  and  C_8 
REMARK    7  A    between atoms: C_11  and  C_12 
REMARK    8  A    between atoms: C_11  and  C_14 
REMARK    9  A    between atoms: C_30  and  C_12 
REMARK   10  A    between atoms: C_13  and  C_14 
REMARK   11  A    between atoms: C_13  and  O_16 
REMARK   12  A    between atoms: C_15  and  O_16 
REMARK   13  A    between atoms: C_20  and  C_21 
REMARK   14  A    between atoms: C_21  and  C_29 
REMARK   15  A    between atoms: C_21  and  O_22 
REMARK   16  A    between atoms: C_29  and  C_23 
REMARK   17  A    between atoms: C_23  and  C_24 
ROOT
HETATM    1  C   UNK N   1      28.079  18.093   8.667  0.00  0.00     0.125 C 
HETATM    2  C   UNK N   1      28.418  17.704   7.249  0.00  0.00     0.024 C 
HETATM    3  C   UNK N   1      29.637  16.844   7.461  0.00  0.00     0.021 C 
HETATM    4  C   UNK N   1      29.430  18.353   9.325  0.00  0.00     0.064 C 
HETATM    5  C   UNK N   1      30.460  17.675   8.422  0.00  0.00     0.125 C 
ENDROOT
BRANCH   3   6
HETATM    6  C   UNK N   1      30.375  16.437   6.184  0.00  0.00     0.010 C 
BRANCH   6   7
HETATM    7  C   UNK N   1      30.573  17.596   5.217  0.00  0.00     0.032 C 
BRANCH   7   8
HETATM    8  C   UNK N   1      31.394  17.118   4.036  0.00  0.00     0.118 C 
BRANCH   8   9
HETATM    9  C   UNK N   1      32.651  16.424   4.519  0.00  0.00     0.036 C 
BRANCH   9  10
HETATM   10  C   UNK N   1      33.609  17.453   5.093  0.00  0.00     0.041 C 
BRANCH  10  11
HETATM   11  C   UNK N   1      34.023  17.066   6.473  0.00  0.00    -0.058 A 
HETATM   12  C   UNK N   1      34.119  18.034   7.482  0.00  0.00     0.007 A 
HETATM   13  C   UNK N   1      34.504  17.667   8.775  0.00  0.00     0.001 A 
HETATM   14  C   UNK N   1      34.785  16.329   9.065  0.00  0.00     0.000 A 
HETATM   15  C   UNK N   1      34.680  15.361   8.062  0.00  0.00     0.001 A 
HETATM   16  C   UNK N   1      34.301  15.728   6.767  0.00  0.00     0.007 A 
ENDBRANCH  10  11
ENDBRANCH   9  10
ENDBRANCH   8   9
BRANCH   8  17
HETATM   17  O   UNK N   1      30.640  16.234   3.267  0.00  0.00    -0.396 OA
HETATM   18  H   UNK N   1      30.386  16.330   2.336  0.00  0.00     0.210 HD
ENDBRANCH   8  17
ENDBRANCH   7   8
ENDBRANCH   6   7
ENDBRANCH   3   6
BRANCH   2  19
HETATM   19  C   UNK N   1      27.280  16.955   6.578  0.00  0.00     0.034 C 
BRANCH  19  20
HETATM   20  C   UNK N   1      26.837  17.683   5.353  0.00  0.00    -0.030 C 
HETATM   21  C   UNK N   1      27.211  18.944   5.152  0.00  0.00    -0.031 C 
BRANCH  21  22
HETATM   22  C   UNK N   1      26.734  19.685   3.956  0.00  0.00     0.027 C 
BRANCH  22  23
HETATM   23  C   UNK N   1      25.541  18.950   3.384  0.00  0.00     0.013 C 
BRANCH  23  24
HETATM   24  C   UNK N   1      24.333  19.865   3.391  0.00  0.00     0.111 C 
BRANCH  24  25
HETATM   25  C   UNK N   1      23.223  19.197   4.124  0.00  0.00     0.259 C 
HETATM   26  O   UNK N   1      23.479  18.336   4.958  0.00  0.00    -0.265 OA
BRANCH  25  27
HETATM   27  O   UNK N   1      21.943  19.573   3.883  0.00  0.00    -0.317 OA
BRANCH  27  28
HETATM   28  C   UNK N   1      21.348  19.511   2.640  0.00  0.00     0.123 C 
HETATM   29  C   UNK N   1      20.131  18.614   2.712  0.00  0.00     0.040 C 
HETATM   30  C   UNK N   1      20.914  20.892   2.178  0.00  0.00     0.040 C 
ENDBRANCH  27  28
ENDBRANCH  25  27
ENDBRANCH  24  25
ENDBRANCH  23  24
ENDBRANCH  22  23
ENDBRANCH  21  22
ENDBRANCH  19  20
ENDBRANCH   2  19
BRANCH   5  31
HETATM   31  O   UNK N   1      31.305  16.856   9.171  0.00  0.00    -0.395 OA
HETATM   32  H   UNK N   1      31.021  16.180   9.806  0.00  0.00     0.210 HD
ENDBRANCH   5  31
BRANCH   1  33
HETATM   33  O   UNK N   1      27.281  19.237   8.692  0.00  0.00    -0.395 OA
HETATM   34  H   UNK N   1      26.471  19.472   9.170  0.00  0.00     0.210 HD
ENDBRANCH   1  33
TORSDOF 17
ENDMDL
