MODEL 1
REMARK VINA RESULT:      -8.0      0.000      0.000
REMARK  7 active torsions:
REMARK  status: ('A' for Active; 'I' for Inactive)
REMARK    1  A    between atoms: C_3  and  C_17 
REMARK    2  A    between atoms: N_6  and  C_8 
REMARK    3  A    between atoms: C_7  and  C_24 
REMARK    4  A    between atoms: C_11  and  C_14 
REMARK    5  A    between atoms: C_14  and  O_16 
REMARK    6  A    between atoms: C_22  and  O_23 
REMARK    7  A    between atoms: C_29  and  O_30 
ROOT
HETATM    1  N   UNK N   1      27.642  16.506   5.476  0.00  0.00    -0.325 N 
ATOM      2  HN  UNK N   1      28.213  15.665   5.560  1.00  0.00     0.169 HD
HETATM    3  C   UNK N   1      27.769  17.653   6.156  0.00  0.00     0.135 A 
HETATM    4  N   UNK N   1      26.841  18.552   5.778  0.00  0.00    -0.276 N 
ATOM      5  HN  UNK N   1      26.734  19.501   6.139  1.00  0.00     0.189 HD
HETATM    6  N   UNK N   1      26.093  17.974   4.851  0.00  0.00    -0.237 N 
HETATM    7  C   UNK N   1      26.595  16.708   4.656  0.00  0.00     0.142 A 
ENDROOT
BRANCH   6   8
HETATM    8  C   UNK N   1      24.955  18.670   4.282  0.00  0.00     0.058 A 
HETATM    9  C   UNK N   1      23.666  18.116   4.391  0.00  0.00     0.032 A 
HETATM   10  C   UNK N   1      22.560  18.771   3.832  0.00  0.00     0.020 A 
HETATM   11  C   UNK N   1      22.733  19.978   3.137  0.00  0.00     0.037 A 
HETATM   12  C   UNK N   1      24.017  20.506   2.997  0.00  0.00     0.020 A 
HETATM   13  C   UNK N   1      25.108  19.851   3.558  0.00  0.00     0.032 A 
BRANCH  11  14
HETATM   14  C   UNK N   1      21.584  20.698   2.561  0.00  0.00     0.176 C 
HETATM   15  O   UNK N   1      21.482  20.825   1.349  0.00  0.00    -0.646 OA
BRANCH  14  16
HETATM   16  O   UNK N   1      20.642  21.229   3.364  0.00  0.00    -0.773 OA
HETATM   17  H   UNK N   1      20.685  21.151   4.296  0.00  0.00     0.167 HD
ENDBRANCH  14  16
ENDBRANCH  11  14
ENDBRANCH   6   8
BRANCH   7  18
HETATM   18  C   UNK N   1      26.177  15.628   3.693  0.00  0.00     0.043 A 
HETATM   19  C   UNK N   1      25.962  15.883   2.334  0.00  0.00     0.018 A 
HETATM   20  C   UNK N   1      25.575  14.877   1.450  0.00  0.00     0.001 A 
HETATM   21  C   UNK N   1      25.406  13.575   1.910  0.00  0.00     0.003 A 
HETATM   22  C   UNK N   1      25.639  13.281   3.251  0.00  0.00     0.037 A 
HETATM   23  C   UNK N   1      26.024  14.286   4.142  0.00  0.00     0.079 A 
BRANCH  23  24
HETATM   24  O   UNK N   1      26.235  13.950   5.427  0.00  0.00    -0.360 OA
HETATM   25  H   UNK N   1      25.530  13.670   5.976  0.00  0.00     0.217 HD
ENDBRANCH  23  24
ENDBRANCH   7  18
BRANCH   3  26
HETATM   26  C   UNK N   1      28.801  17.851   7.192  0.00  0.00     0.042 A 
HETATM   27  C   UNK N   1      30.081  17.322   6.957  0.00  0.00     0.018 A 
HETATM   28  C   UNK N   1      31.100  17.479   7.895  0.00  0.00     0.001 A 
HETATM   29  C   UNK N   1      30.851  18.165   9.083  0.00  0.00     0.003 A 
HETATM   30  C   UNK N   1      29.581  18.691   9.334  0.00  0.00     0.037 A 
HETATM   31  C   UNK N   1      28.552  18.539   8.397  0.00  0.00     0.079 A 
BRANCH  31  32
HETATM   32  O   UNK N   1      27.338  19.048   8.666  0.00  0.00    -0.360 OA
HETATM   33  H   UNK N   1      27.263  19.872   9.107  0.00  0.00     0.217 HD
ENDBRANCH  31  32
ENDBRANCH   3  26
TORSDOF 7
ENDMDL
MODEL 2
REMARK VINA RESULT:      -7.7      3.635      8.709
REMARK  7 active torsions:
REMARK  status: ('A' for Active; 'I' for Inactive)
REMARK    1  A    between atoms: C_3  and  C_17 
REMARK    2  A    between atoms: N_6  and  C_8 
REMARK    3  A    between atoms: C_7  and  C_24 
REMARK    4  A    between atoms: C_11  and  C_14 
REMARK    5  A    between atoms: C_14  and  O_16 
REMARK    6  A    between atoms: C_22  and  O_23 
REMARK    7  A    between atoms: C_29  and  O_30 
ROOT
HETATM    1  N   UNK N   1      28.050  16.472   4.418  0.00  0.00    -0.325 N 
ATOM      2  HN  UNK N   1      27.093  16.632   4.106  1.00  0.00     0.169 HD
HETATM    3  C   UNK N   1      28.847  15.438   4.118  0.00  0.00     0.135 A 
HETATM    4  N   UNK N   1      30.051  15.561   4.707  0.00  0.00    -0.276 N 
ATOM      5  HN  UNK N   1      30.834  14.911   4.625  1.00  0.00     0.189 HD
HETATM    6  N   UNK N   1      30.029  16.682   5.410  0.00  0.00    -0.237 N 
HETATM    7  C   UNK N   1      28.791  17.252   5.225  0.00  0.00     0.142 A 
ENDROOT
BRANCH   6   8
HETATM    8  C   UNK N   1      31.169  17.067   6.219  0.00  0.00     0.058 A 
HETATM    9  C   UNK N   1      32.417  17.296   5.610  0.00  0.00     0.032 A 
HETATM   10  C   UNK N   1      33.532  17.654   6.382  0.00  0.00     0.020 A 
HETATM   11  C   UNK N   1      33.416  17.765   7.776  0.00  0.00     0.037 A 
HETATM   12  C   UNK N   1      32.187  17.501   8.381  0.00  0.00     0.020 A 
HETATM   13  C   UNK N   1      31.087  17.150   7.608  0.00  0.00     0.032 A 
BRANCH  11  14
HETATM   14  C   UNK N   1      34.566  18.163   8.607  0.00  0.00     0.176 C 
HETATM   15  O   UNK N   1      35.209  19.164   8.327  0.00  0.00    -0.646 OA
BRANCH  14  16
HETATM   16  O   UNK N   1      34.924  17.423   9.674  0.00  0.00    -0.773 OA
HETATM   17  H   UNK N   1      34.809  16.494   9.692  0.00  0.00     0.167 HD
ENDBRANCH  14  16
ENDBRANCH  11  14
ENDBRANCH   6   8
BRANCH   7  18
HETATM   18  C   UNK N   1      28.226  18.551   5.738  0.00  0.00     0.043 A 
HETATM   19  C   UNK N   1      28.067  18.807   7.104  0.00  0.00     0.018 A 
HETATM   20  C   UNK N   1      27.544  20.012   7.570  0.00  0.00     0.001 A 
HETATM   21  C   UNK N   1      27.177  21.005   6.667  0.00  0.00     0.003 A 
HETATM   22  C   UNK N   1      27.348  20.794   5.301  0.00  0.00     0.037 A 
HETATM   23  C   UNK N   1      27.869  19.587   4.829  0.00  0.00     0.079 A 
BRANCH  23  24
HETATM   24  O   UNK N   1      28.014  19.432   3.501  0.00  0.00    -0.360 OA
HETATM   25  H   UNK N   1      28.110  20.173   2.935  0.00  0.00     0.217 HD
ENDBRANCH  23  24
ENDBRANCH   7  18
BRANCH   3  26
HETATM   26  C   UNK N   1      28.408  14.321   3.259  0.00  0.00     0.042 A 
HETATM   27  C   UNK N   1      27.033  14.039   3.196  0.00  0.00     0.018 A 
HETATM   28  C   UNK N   1      26.555  12.999   2.401  0.00  0.00     0.001 A 
HETATM   29  C   UNK N   1      27.448  12.224   1.660  0.00  0.00     0.003 A 
HETATM   30  C   UNK N   1      28.819  12.489   1.717  0.00  0.00     0.037 A 
HETATM   31  C   UNK N   1      29.307  13.532   2.513  0.00  0.00     0.079 A 
BRANCH  31  32
HETATM   32  O   UNK N   1      30.630  13.760   2.556  0.00  0.00    -0.360 OA
HETATM   33  H   UNK N   1      31.226  13.135   2.191  0.00  0.00     0.217 HD
ENDBRANCH  31  32
ENDBRANCH   3  26
TORSDOF 7
ENDMDL
MODEL 3
REMARK VINA RESULT:      -7.6      3.916      5.432
REMARK  7 active torsions:
REMARK  status: ('A' for Active; 'I' for Inactive)
REMARK    1  A    between atoms: C_3  and  C_17 
REMARK    2  A    between atoms: N_6  and  C_8 
REMARK    3  A    between atoms: C_7  and  C_24 
REMARK    4  A    between atoms: C_11  and  C_14 
REMARK    5  A    between atoms: C_14  and  O_16 
REMARK    6  A    between atoms: C_22  and  O_23 
REMARK    7  A    between atoms: C_29  and  O_30 
ROOT
HETATM    1  N   UNK N   1      23.616  15.185   6.425  0.00  0.00    -0.325 N 
ATOM      2  HN  UNK N   1      24.321  14.545   6.792  1.00  0.00     0.169 HD
HETATM    3  C   UNK N   1      22.372  15.378   6.880  0.00  0.00     0.135 A 
HETATM    4  N   UNK N   1      21.723  16.306   6.150  0.00  0.00    -0.276 N 
ATOM      5  HN  UNK N   1      20.770  16.638   6.302  1.00  0.00     0.189 HD
HETATM    6  N   UNK N   1      22.554  16.707   5.201  0.00  0.00    -0.237 N 
HETATM    7  C   UNK N   1      23.732  16.018   5.376  0.00  0.00     0.142 A 
ENDROOT
BRANCH   6   8
HETATM    8  C   UNK N   1      22.125  17.668   4.203  0.00  0.00     0.058 A 
HETATM    9  C   UNK N   1      21.096  17.334   3.303  0.00  0.00     0.032 A 
HETATM   10  C   UNK N   1      20.683  18.248   2.323  0.00  0.00     0.020 A 
HETATM   11  C   UNK N   1      21.310  19.499   2.218  0.00  0.00     0.037 A 
HETATM   12  C   UNK N   1      22.356  19.812   3.086  0.00  0.00     0.020 A 
HETATM   13  C   UNK N   1      22.757  18.902   4.057  0.00  0.00     0.032 A 
BRANCH  11  14
HETATM   14  C   UNK N   1      20.878  20.486   1.212  0.00  0.00     0.176 C 
HETATM   15  O   UNK N   1      20.782  21.667   1.512  0.00  0.00    -0.646 OA
BRANCH  14  16
HETATM   16  O   UNK N   1      20.575  20.093  -0.040  0.00  0.00    -0.773 OA
HETATM   17  H   UNK N   1      19.737  19.735  -0.258  0.00  0.00     0.167 HD
ENDBRANCH  14  16
ENDBRANCH  11  14
ENDBRANCH   6   8
BRANCH   7  18
HETATM   18  C   UNK N   1      25.036  16.105   4.626  0.00  0.00     0.043 A 
HETATM   19  C   UNK N   1      25.119  15.884   3.247  0.00  0.00     0.018 A 
HETATM   20  C   UNK N   1      26.330  15.967   2.561  0.00  0.00     0.001 A 
HETATM   21  C   UNK N   1      27.497  16.289   3.248  0.00  0.00     0.003 A 
HETATM   22  C   UNK N   1      27.445  16.542   4.617  0.00  0.00     0.037 A 
HETATM   23  C   UNK N   1      26.234  16.458   5.309  0.00  0.00     0.079 A 
BRANCH  23  24
HETATM   24  O   UNK N   1      26.238  16.710   6.630  0.00  0.00    -0.360 OA
HETATM   25  H   UNK N   1      26.667  16.135   7.231  0.00  0.00     0.217 HD
ENDBRANCH  23  24
ENDBRANCH   7  18
BRANCH   3  26
HETATM   26  C   UNK N   1      21.821  14.633   8.027  0.00  0.00     0.042 A 
HETATM   27  C   UNK N   1      22.491  13.471   8.441  0.00  0.00     0.018 A 
HETATM   28  C   UNK N   1      22.023  12.724   9.521  0.00  0.00     0.001 A 
HETATM   29  C   UNK N   1      20.874  13.130  10.200  0.00  0.00     0.003 A 
HETATM   30  C   UNK N   1      20.193  14.281   9.796  0.00  0.00     0.037 A 
HETATM   31  C   UNK N   1      20.657  15.037   8.713  0.00  0.00     0.079 A 
BRANCH  31  32
HETATM   32  O   UNK N   1      19.979  16.135   8.341  0.00  0.00    -0.360 OA
HETATM   33  H   UNK N   1      19.295  16.471   8.886  0.00  0.00     0.217 HD
ENDBRANCH  31  32
ENDBRANCH   3  26
TORSDOF 7
ENDMDL
MODEL 4
REMARK VINA RESULT:      -7.6     11.215     13.981
REMARK  7 active torsions:
REMARK  status: ('A' for Active; 'I' for Inactive)
REMARK    1  A    between atoms: C_3  and  C_17 
REMARK    2  A    between atoms: N_6  and  C_8 
REMARK    3  A    between atoms: C_7  and  C_24 
REMARK    4  A    between atoms: C_11  and  C_14 
REMARK    5  A    between atoms: C_14  and  O_16 
REMARK    6  A    between atoms: C_22  and  O_23 
REMARK    7  A    between atoms: C_29  and  O_30 
ROOT
HETATM    1  N   UNK N   1      27.207  26.109  -5.634  0.00  0.00    -0.325 N 
ATOM      2  HN  UNK N   1      26.390  26.346  -6.196  1.00  0.00     0.169 HD
HETATM    3  C   UNK N   1      27.892  26.911  -4.808  0.00  0.00     0.135 A 
HETATM    4  N   UNK N   1      28.914  26.255  -4.225  0.00  0.00    -0.276 N 
ATOM      5  HN  UNK N   1      29.575  26.641  -3.550  1.00  0.00     0.189 HD
HETATM    6  N   UNK N   1      28.900  25.016  -4.693  0.00  0.00    -0.237 N 
HETATM    7  C   UNK N   1      27.836  24.923  -5.560  0.00  0.00     0.142 A 
ENDROOT
BRANCH   6   8
HETATM    8  C   UNK N   1      29.925  24.069  -4.300  0.00  0.00     0.058 A 
HETATM    9  C   UNK N   1      31.198  24.123  -4.896  0.00  0.00     0.032 A 
HETATM   10  C   UNK N   1      32.193  23.202  -4.537  0.00  0.00     0.020 A 
HETATM   11  C   UNK N   1      31.918  22.201  -3.593  0.00  0.00     0.037 A 
HETATM   12  C   UNK N   1      30.643  22.126  -3.031  0.00  0.00     0.020 A 
HETATM   13  C   UNK N   1      29.664  23.045  -3.391  0.00  0.00     0.032 A 
BRANCH  11  14
HETATM   14  C   UNK N   1      32.954  21.237  -3.181  0.00  0.00     0.176 C 
HETATM   15  O   UNK N   1      33.670  20.709  -4.019  0.00  0.00    -0.646 OA
BRANCH  14  16
HETATM   16  O   UNK N   1      33.113  20.924  -1.881  0.00  0.00    -0.773 OA
HETATM   17  H   UNK N   1      32.412  20.576  -1.366  0.00  0.00     0.167 HD
ENDBRANCH  14  16
ENDBRANCH  11  14
ENDBRANCH   6   8
BRANCH   7  18
HETATM   18  C   UNK N   1      27.310  23.745  -6.339  0.00  0.00     0.043 A 
HETATM   19  C   UNK N   1      28.149  22.915  -7.091  0.00  0.00     0.018 A 
HETATM   20  C   UNK N   1      27.653  21.827  -7.809  0.00  0.00     0.001 A 
HETATM   21  C   UNK N   1      26.293  21.535  -7.777  0.00  0.00     0.003 A 
HETATM   22  C   UNK N   1      25.435  22.325  -7.016  0.00  0.00     0.037 A 
HETATM   23  C   UNK N   1      25.926  23.418  -6.297  0.00  0.00     0.079 A 
BRANCH  23  24
HETATM   24  O   UNK N   1      25.056  24.149  -5.578  0.00  0.00    -0.360 OA
HETATM   25  H   UNK N   1      25.165  24.261  -4.655  0.00  0.00     0.217 HD
ENDBRANCH  23  24
ENDBRANCH   7  18
BRANCH   3  26
HETATM   26  C   UNK N   1      27.543  28.330  -4.607  0.00  0.00     0.042 A 
HETATM   27  C   UNK N   1      28.276  29.296  -5.316  0.00  0.00     0.018 A 
HETATM   28  C   UNK N   1      27.992  30.653  -5.172  0.00  0.00     0.001 A 
HETATM   29  C   UNK N   1      26.971  31.062  -4.315  0.00  0.00     0.003 A 
HETATM   30  C   UNK N   1      26.237  30.113  -3.598  0.00  0.00     0.037 A 
HETATM   31  C   UNK N   1      26.516  28.748  -3.737  0.00  0.00     0.079 A 
BRANCH  31  32
HETATM   32  O   UNK N   1      25.799  27.857  -3.031  0.00  0.00    -0.360 OA
HETATM   33  H   UNK N   1      24.888  28.008  -2.873  0.00  0.00     0.217 HD
ENDBRANCH  31  32
ENDBRANCH   3  26
TORSDOF 7
ENDMDL
MODEL 5
REMARK VINA RESULT:      -7.5      5.688      6.691
REMARK  7 active torsions:
REMARK  status: ('A' for Active; 'I' for Inactive)
REMARK    1  A    between atoms: C_3  and  C_17 
REMARK    2  A    between atoms: N_6  and  C_8 
REMARK    3  A    between atoms: C_7  and  C_24 
REMARK    4  A    between atoms: C_11  and  C_14 
REMARK    5  A    between atoms: C_14  and  O_16 
REMARK    6  A    between atoms: C_22  and  O_23 
REMARK    7  A    between atoms: C_29  and  O_30 
ROOT
HETATM    1  N   UNK N   1      20.700  13.458   5.388  0.00  0.00    -0.325 N 
ATOM      2  HN  UNK N   1      20.470  12.465   5.401  1.00  0.00     0.169 HD
HETATM    3  C   UNK N   1      21.099  14.220   6.415  0.00  0.00     0.135 A 
HETATM    4  N   UNK N   1      21.318  15.490   6.026  0.00  0.00    -0.276 N 
ATOM      5  HN  UNK N   1      21.637  16.258   6.618  1.00  0.00     0.189 HD
HETATM    6  N   UNK N   1      21.042  15.556   4.733  0.00  0.00    -0.237 N 
HETATM    7  C   UNK N   1      20.667  14.294   4.334  0.00  0.00     0.142 A 
ENDROOT
BRANCH   6   8
HETATM    8  C   UNK N   1      21.121  16.819   4.026  0.00  0.00     0.058 A 
HETATM    9  C   UNK N   1      22.209  17.683   4.249  0.00  0.00     0.032 A 
HETATM   10  C   UNK N   1      22.289  18.915   3.584  0.00  0.00     0.020 A 
HETATM   11  C   UNK N   1      21.269  19.306   2.703  0.00  0.00     0.037 A 
HETATM   12  C   UNK N   1      20.173  18.465   2.512  0.00  0.00     0.020 A 
HETATM   13  C   UNK N   1      20.104  17.245   3.173  0.00  0.00     0.032 A 
BRANCH  11  14
HETATM   14  C   UNK N   1      21.342  20.585   1.973  0.00  0.00     0.176 C 
HETATM   15  O   UNK N   1      21.280  20.600   0.752  0.00  0.00    -0.646 OA
BRANCH  14  16
HETATM   16  O   UNK N   1      21.489  21.744   2.643  0.00  0.00    -0.773 OA
HETATM   17  H   UNK N   1      20.753  22.225   2.966  0.00  0.00     0.167 HD
ENDBRANCH  14  16
ENDBRANCH  11  14
ENDBRANCH   6   8
BRANCH   7  18
HETATM   18  C   UNK N   1      20.296  13.769   2.971  0.00  0.00     0.043 A 
HETATM   19  C   UNK N   1      21.176  13.826   1.885  0.00  0.00     0.018 A 
HETATM   20  C   UNK N   1      20.823  13.339   0.628  0.00  0.00     0.001 A 
HETATM   21  C   UNK N   1      19.571  12.763   0.432  0.00  0.00     0.003 A 
HETATM   22  C   UNK N   1      18.681  12.665   1.499  0.00  0.00     0.037 A 
HETATM   23  C   UNK N   1      19.029  13.155   2.761  0.00  0.00     0.079 A 
BRANCH  23  24
HETATM   24  O   UNK N   1      18.134  13.037   3.757  0.00  0.00    -0.360 OA
HETATM   25  H   UNK N   1      17.241  12.815   3.582  0.00  0.00     0.217 HD
ENDBRANCH  23  24
ENDBRANCH   7  18
BRANCH   3  26
HETATM   26  C   UNK N   1      21.248  13.691   7.784  0.00  0.00     0.042 A 
HETATM   27  C   UNK N   1      22.167  12.649   7.991  0.00  0.00     0.018 A 
HETATM   28  C   UNK N   1      22.356  12.108   9.262  0.00  0.00     0.001 A 
HETATM   29  C   UNK N   1      21.626  12.602  10.343  0.00  0.00     0.003 A 
HETATM   30  C   UNK N   1      20.703  13.634  10.151  0.00  0.00     0.037 A 
HETATM   31  C   UNK N   1      20.508  14.182   8.878  0.00  0.00     0.079 A 
BRANCH  31  32
HETATM   32  O   UNK N   1      19.610  15.169   8.720  0.00  0.00    -0.360 OA
HETATM   33  H   UNK N   1      19.120  15.234   7.923  0.00  0.00     0.217 HD
ENDBRANCH  31  32
ENDBRANCH   3  26
TORSDOF 7
ENDMDL
MODEL 6
REMARK VINA RESULT:      -7.4      9.960     13.641
REMARK  7 active torsions:
REMARK  status: ('A' for Active; 'I' for Inactive)
REMARK    1  A    between atoms: C_3  and  C_17 
REMARK    2  A    between atoms: N_6  and  C_8 
REMARK    3  A    between atoms: C_7  and  C_24 
REMARK    4  A    between atoms: C_11  and  C_14 
REMARK    5  A    between atoms: C_14  and  O_16 
REMARK    6  A    between atoms: C_22  and  O_23 
REMARK    7  A    between atoms: C_29  and  O_30 
ROOT
HETATM    1  N   UNK N   1      36.887  12.134  13.636  0.00  0.00    -0.325 N 
ATOM      2  HN  UNK N   1      37.471  11.336  13.884  1.00  0.00     0.169 HD
HETATM    3  C   UNK N   1      36.036  12.802  14.425  0.00  0.00     0.135 A 
HETATM    4  N   UNK N   1      35.436  13.807  13.759  0.00  0.00    -0.276 N 
ATOM      5  HN  UNK N   1      34.756  14.466  14.141  1.00  0.00     0.189 HD
HETATM    6  N   UNK N   1      35.893  13.779  12.517  0.00  0.00    -0.237 N 
HETATM    7  C   UNK N   1      36.800  12.747  12.442  0.00  0.00     0.142 A 
ENDROOT
BRANCH   6   8
HETATM    8  C   UNK N   1      35.386  14.706  11.524  0.00  0.00     0.058 A 
HETATM    9  C   UNK N   1      34.411  14.284  10.601  0.00  0.00     0.032 A 
HETATM   10  C   UNK N   1      33.924  15.166   9.626  0.00  0.00     0.020 A 
HETATM   11  C   UNK N   1      34.424  16.475   9.548  0.00  0.00     0.037 A 
HETATM   12  C   UNK N   1      35.418  16.880  10.440  0.00  0.00     0.020 A 
HETATM   13  C   UNK N   1      35.892  15.999  11.405  0.00  0.00     0.032 A 
BRANCH  11  14
HETATM   14  C   UNK N   1      33.911  17.428   8.548  0.00  0.00     0.176 C 
HETATM   15  O   UNK N   1      32.720  17.703   8.515  0.00  0.00    -0.646 OA
BRANCH  14  16
HETATM   16  O   UNK N   1      34.746  17.996   7.658  0.00  0.00    -0.773 OA
HETATM   17  H   UNK N   1      35.621  17.686   7.533  0.00  0.00     0.167 HD
ENDBRANCH  14  16
ENDBRANCH  11  14
ENDBRANCH   6   8
BRANCH   7  18
HETATM   18  C   UNK N   1      37.662  12.285  11.296  0.00  0.00     0.043 A 
HETATM   19  C   UNK N   1      38.478  13.164  10.575  0.00  0.00     0.018 A 
HETATM   20  C   UNK N   1      39.272  12.728   9.516  0.00  0.00     0.001 A 
HETATM   21  C   UNK N   1      39.279  11.382   9.161  0.00  0.00     0.003 A 
HETATM   22  C   UNK N   1      38.499  10.476   9.875  0.00  0.00     0.037 A 
HETATM   23  C   UNK N   1      37.699  10.909  10.936  0.00  0.00     0.079 A 
BRANCH  23  24
HETATM   24  O   UNK N   1      36.965   9.994  11.593  0.00  0.00    -0.360 OA
HETATM   25  H   UNK N   1      36.447  10.231  12.336  0.00  0.00     0.217 HD
ENDBRANCH  23  24
ENDBRANCH   7  18
BRANCH   3  26
HETATM   26  C   UNK N   1      35.808  12.435  15.836  0.00  0.00     0.042 A 
HETATM   27  C   UNK N   1      35.414  13.448  16.725  0.00  0.00     0.018 A 
HETATM   28  C   UNK N   1      35.180  13.165  18.069  0.00  0.00     0.001 A 
HETATM   29  C   UNK N   1      35.339  11.863  18.543  0.00  0.00     0.003 A 
HETATM   30  C   UNK N   1      35.736  10.845  17.672  0.00  0.00     0.037 A 
HETATM   31  C   UNK N   1      35.973  11.121  16.320  0.00  0.00     0.079 A 
BRANCH  31  32
HETATM   32  O   UNK N   1      36.361  10.126  15.505  0.00  0.00    -0.360 OA
HETATM   33  H   UNK N   1      36.497   9.265  15.849  0.00  0.00     0.217 HD
ENDBRANCH  31  32
ENDBRANCH   3  26
TORSDOF 7
ENDMDL
MODEL 7
REMARK VINA RESULT:      -7.4      5.061      5.768
REMARK  7 active torsions:
REMARK  status: ('A' for Active; 'I' for Inactive)
REMARK    1  A    between atoms: C_3  and  C_17 
REMARK    2  A    between atoms: N_6  and  C_8 
REMARK    3  A    between atoms: C_7  and  C_24 
REMARK    4  A    between atoms: C_11  and  C_14 
REMARK    5  A    between atoms: C_14  and  O_16 
REMARK    6  A    between atoms: C_22  and  O_23 
REMARK    7  A    between atoms: C_29  and  O_30 
ROOT
HETATM    1  N   UNK N   1      22.173  13.921   5.151  0.00  0.00    -0.325 N 
ATOM      2  HN  UNK N   1      22.424  12.935   5.223  1.00  0.00     0.169 HD
HETATM    3  C   UNK N   1      21.730  14.726   6.125  0.00  0.00     0.135 A 
HETATM    4  N   UNK N   1      21.504  15.972   5.666  0.00  0.00    -0.276 N 
ATOM      5  HN  UNK N   1      21.175  16.768   6.213  1.00  0.00     0.189 HD
HETATM    6  N   UNK N   1      21.790  15.969   4.373  0.00  0.00    -0.237 N 
HETATM    7  C   UNK N   1      22.214  14.699   4.055  0.00  0.00     0.142 A 
ENDROOT
BRANCH   6   8
HETATM    8  C   UNK N   1      21.587  17.160   3.571  0.00  0.00     0.058 A 
HETATM    9  C   UNK N   1      22.363  18.309   3.810  0.00  0.00     0.032 A 
HETATM   10  C   UNK N   1      22.165  19.472   3.052  0.00  0.00     0.020 A 
HETATM   11  C   UNK N   1      21.173  19.506   2.061  0.00  0.00     0.037 A 
HETATM   12  C   UNK N   1      20.379  18.378   1.852  0.00  0.00     0.020 A 
HETATM   13  C   UNK N   1      20.584  17.228   2.605  0.00  0.00     0.032 A 
BRANCH  11  14
HETATM   14  C   UNK N   1      20.962  20.708   1.235  0.00  0.00     0.176 C 
HETATM   15  O   UNK N   1      20.984  20.628   0.015  0.00  0.00    -0.646 OA
BRANCH  14  16
HETATM   16  O   UNK N   1      20.754  21.905   1.815  0.00  0.00    -0.773 OA
HETATM   17  H   UNK N   1      20.932  22.053   2.723  0.00  0.00     0.167 HD
ENDBRANCH  14  16
ENDBRANCH  11  14
ENDBRANCH   6   8
BRANCH   7  18
HETATM   18  C   UNK N   1      22.712  14.134   2.750  0.00  0.00     0.043 A 
HETATM   19  C   UNK N   1      21.867  13.936   1.653  0.00  0.00     0.018 A 
HETATM   20  C   UNK N   1      22.337  13.411   0.449  0.00  0.00     0.001 A 
HETATM   21  C   UNK N   1      23.682  13.084   0.312  0.00  0.00     0.003 A 
HETATM   22  C   UNK N   1      24.556  13.294   1.377  0.00  0.00     0.037 A 
HETATM   23  C   UNK N   1      24.089  13.817   2.586  0.00  0.00     0.079 A 
BRANCH  23  24
HETATM   24  O   UNK N   1      24.973  14.000   3.582  0.00  0.00    -0.360 OA
HETATM   25  H   UNK N   1      25.498  13.292   3.900  0.00  0.00     0.217 HD
ENDBRANCH  23  24
ENDBRANCH   7  18
BRANCH   3  26
HETATM   26  C   UNK N   1      21.518  14.256   7.507  0.00  0.00     0.042 A 
HETATM   27  C   UNK N   1      22.432  13.331   8.037  0.00  0.00     0.018 A 
HETATM   28  C   UNK N   1      22.287  12.851   9.338  0.00  0.00     0.001 A 
HETATM   29  C   UNK N   1      21.223  13.290  10.126  0.00  0.00     0.003 A 
HETATM   30  C   UNK N   1      20.302  14.205   9.610  0.00  0.00     0.037 A 
HETATM   31  C   UNK N   1      20.440  14.692   8.305  0.00  0.00     0.079 A 
BRANCH  31  32
HETATM   32  O   UNK N   1      19.536  15.566   7.832  0.00  0.00    -0.360 OA
HETATM   33  H   UNK N   1      18.671  15.586   8.191  0.00  0.00     0.217 HD
ENDBRANCH  31  32
ENDBRANCH   3  26
TORSDOF 7
ENDMDL
MODEL 8
REMARK VINA RESULT:      -7.3      5.009      7.499
REMARK  7 active torsions:
REMARK  status: ('A' for Active; 'I' for Inactive)
REMARK    1  A    between atoms: C_3  and  C_17 
REMARK    2  A    between atoms: N_6  and  C_8 
REMARK    3  A    between atoms: C_7  and  C_24 
REMARK    4  A    between atoms: C_11  and  C_14 
REMARK    5  A    between atoms: C_14  and  O_16 
REMARK    6  A    between atoms: C_22  and  O_23 
REMARK    7  A    between atoms: C_29  and  O_30 
ROOT
HETATM    1  N   UNK N   1      33.941  15.044   7.983  0.00  0.00    -0.325 N 
ATOM      2  HN  UNK N   1      34.690  14.443   7.640  1.00  0.00     0.169 HD
HETATM    3  C   UNK N   1      33.685  15.390   9.252  0.00  0.00     0.135 A 
HETATM    4  N   UNK N   1      32.616  16.204   9.331  0.00  0.00    -0.276 N 
ATOM      5  HN  UNK N   1      32.228  16.612  10.183  1.00  0.00     0.189 HD
HETATM    6  N   UNK N   1      32.164  16.376   8.099  0.00  0.00    -0.237 N 
HETATM    7  C   UNK N   1      32.990  15.664   7.261  0.00  0.00     0.142 A 
ENDROOT
BRANCH   6   8
HETATM    8  C   UNK N   1      30.969  17.160   7.855  0.00  0.00     0.058 A 
HETATM    9  C   UNK N   1      30.458  17.996   8.866  0.00  0.00     0.032 A 
HETATM   10  C   UNK N   1      29.295  18.748   8.648  0.00  0.00     0.020 A 
HETATM   11  C   UNK N   1      28.615  18.655   7.424  0.00  0.00     0.037 A 
HETATM   12  C   UNK N   1      29.102  17.797   6.437  0.00  0.00     0.020 A 
HETATM   13  C   UNK N   1      30.258  17.058   6.660  0.00  0.00     0.032 A 
BRANCH  11  14
HETATM   14  C   UNK N   1      27.404  19.453   7.162  0.00  0.00     0.176 C 
HETATM   15  O   UNK N   1      26.941  19.515   6.032  0.00  0.00    -0.646 OA
BRANCH  14  16
HETATM   16  O   UNK N   1      26.805  20.127   8.161  0.00  0.00    -0.773 OA
HETATM   17  H   UNK N   1      26.421  19.688   8.894  0.00  0.00     0.167 HD
ENDBRANCH  14  16
ENDBRANCH  11  14
ENDBRANCH   6   8
BRANCH   7  18
HETATM   18  C   UNK N   1      32.986  15.536   5.760  0.00  0.00     0.043 A 
HETATM   19  C   UNK N   1      32.478  14.406   5.110  0.00  0.00     0.018 A 
HETATM   20  C   UNK N   1      32.478  14.297   3.720  0.00  0.00     0.001 A 
HETATM   21  C   UNK N   1      32.979  15.335   2.941  0.00  0.00     0.003 A 
HETATM   22  C   UNK N   1      33.467  16.486   3.556  0.00  0.00     0.037 A 
HETATM   23  C   UNK N   1      33.472  16.600   4.948  0.00  0.00     0.079 A 
BRANCH  23  24
HETATM   24  O   UNK N   1      33.954  17.731   5.492  0.00  0.00    -0.360 OA
HETATM   25  H   UNK N   1      34.876  17.884   5.553  0.00  0.00     0.217 HD
ENDBRANCH  23  24
ENDBRANCH   7  18
BRANCH   3  26
HETATM   26  C   UNK N   1      34.492  14.900  10.385  0.00  0.00     0.042 A 
HETATM   27  C   UNK N   1      34.554  13.514  10.601  0.00  0.00     0.018 A 
HETATM   28  C   UNK N   1      35.302  12.989  11.653  0.00  0.00     0.001 A 
HETATM   29  C   UNK N   1      35.997  13.845  12.507  0.00  0.00     0.003 A 
HETATM   30  C   UNK N   1      35.940  15.227  12.309  0.00  0.00     0.037 A 
HETATM   31  C   UNK N   1      35.191  15.763  11.254  0.00  0.00     0.079 A 
BRANCH  31  32
HETATM   32  O   UNK N   1      35.148  17.096  11.091  0.00  0.00    -0.360 OA
HETATM   33  H   UNK N   1      35.163  17.463  10.229  0.00  0.00     0.217 HD
ENDBRANCH  31  32
ENDBRANCH   3  26
TORSDOF 7
ENDMDL
MODEL 9
REMARK VINA RESULT:      -7.3      4.097      8.642
REMARK  7 active torsions:
REMARK  status: ('A' for Active; 'I' for Inactive)
REMARK    1  A    between atoms: C_3  and  C_17 
REMARK    2  A    between atoms: N_6  and  C_8 
REMARK    3  A    between atoms: C_7  and  C_24 
REMARK    4  A    between atoms: C_11  and  C_14 
REMARK    5  A    between atoms: C_14  and  O_16 
REMARK    6  A    between atoms: C_22  and  O_23 
REMARK    7  A    between atoms: C_29  and  O_30 
ROOT
HETATM    1  N   UNK N   1      29.742  16.963   3.658  0.00  0.00    -0.325 N 
ATOM      2  HN  UNK N   1      29.447  16.752   2.705  1.00  0.00     0.169 HD
HETATM    3  C   UNK N   1      29.119  17.738   4.554  0.00  0.00     0.135 A 
HETATM    4  N   UNK N   1      29.797  17.786   5.717  0.00  0.00    -0.276 N 
ATOM      5  HN  UNK N   1      29.525  18.298   6.556  1.00  0.00     0.189 HD
HETATM    6  N   UNK N   1      30.883  17.043   5.565  0.00  0.00    -0.237 N 
HETATM    7  C   UNK N   1      30.845  16.526   4.291  0.00  0.00     0.142 A 
ENDROOT
BRANCH   6   8
HETATM    8  C   UNK N   1      31.861  16.942   6.630  0.00  0.00     0.058 A 
HETATM    9  C   UNK N   1      33.097  17.605   6.515  0.00  0.00     0.032 A 
HETATM   10  C   UNK N   1      34.058  17.503   7.531  0.00  0.00     0.020 A 
HETATM   11  C   UNK N   1      33.803  16.717   8.665  0.00  0.00     0.037 A 
HETATM   12  C   UNK N   1      32.592  16.030   8.760  0.00  0.00     0.020 A 
HETATM   13  C   UNK N   1      31.644  16.140   7.749  0.00  0.00     0.032 A 
BRANCH  11  14
HETATM   14  C   UNK N   1      34.787  16.612   9.757  0.00  0.00     0.176 C 
HETATM   15  O   UNK N   1      34.917  15.562  10.369  0.00  0.00    -0.646 OA
BRANCH  14  16
HETATM   16  O   UNK N   1      35.542  17.674  10.097  0.00  0.00    -0.773 OA
HETATM   17  H   UNK N   1      35.416  18.133  10.904  0.00  0.00     0.167 HD
ENDBRANCH  14  16
ENDBRANCH  11  14
ENDBRANCH   6   8
BRANCH   7  18
HETATM   18  C   UNK N   1      31.786  15.578   3.593  0.00  0.00     0.043 A 
HETATM   19  C   UNK N   1      33.100  15.935   3.271  0.00  0.00     0.018 A 
HETATM   20  C   UNK N   1      33.963  15.052   2.624  0.00  0.00     0.001 A 
HETATM   21  C   UNK N   1      33.529  13.772   2.294  0.00  0.00     0.003 A 
HETATM   22  C   UNK N   1      32.235  13.375   2.625  0.00  0.00     0.037 A 
HETATM   23  C   UNK N   1      31.365  14.258   3.271  0.00  0.00     0.079 A 
BRANCH  23  24
HETATM   24  O   UNK N   1      30.127  13.826   3.567  0.00  0.00    -0.360 OA
HETATM   25  H   UNK N   1      29.555  13.499   2.900  0.00  0.00     0.217 HD
ENDBRANCH  23  24
ENDBRANCH   7  18
BRANCH   3  26
HETATM   26  C   UNK N   1      27.858  18.444   4.254  0.00  0.00     0.042 A 
HETATM   27  C   UNK N   1      27.807  19.828   4.482  0.00  0.00     0.018 A 
HETATM   28  C   UNK N   1      26.647  20.552   4.215  0.00  0.00     0.001 A 
HETATM   29  C   UNK N   1      25.519  19.899   3.718  0.00  0.00     0.003 A 
HETATM   30  C   UNK N   1      25.552  18.520   3.492  0.00  0.00     0.037 A 
HETATM   31  C   UNK N   1      26.715  17.786   3.757  0.00  0.00     0.079 A 
BRANCH  31  32
HETATM   32  O   UNK N   1      26.717  16.461   3.538  0.00  0.00    -0.360 OA
HETATM   33  H   UNK N   1      27.299  15.907   4.021  0.00  0.00     0.217 HD
ENDBRANCH  31  32
ENDBRANCH   3  26
TORSDOF 7
ENDMDL
