MODEL 1
REMARK VINA RESULT:      -8.2      0.000      0.000
REMARK  9 active torsions:
REMARK  status: ('A' for Active; 'I' for Inactive)
REMARK    1  A    between atoms: C_1  and  C_12 
REMARK    2  A    between atoms: C_2  and  O_7 
REMARK    3  A    between atoms: C_3  and  O_8 
REMARK    4  A    between atoms: C_4  and  O_9 
REMARK    5  A    between atoms: C_5  and  C_10 
REMARK    6  A    between atoms: C_10  and  O_11 
REMARK    7  A    between atoms: C_16  and  O_21 
REMARK    8  A    between atoms: C_22  and  C_24 
REMARK    9  A    between atoms: C_29  and  O_30 
ROOT
HETATM    1  C   UNK N   1      35.876  13.116  11.075  0.00  0.00     0.041 A 
HETATM    2  C   UNK N   1      35.846  12.811  12.473  0.00  0.00     0.101 A 
HETATM    3  C   UNK N   1      36.556  11.695  12.983  0.00  0.00     0.050 A 
HETATM    4  O   UNK N   1      35.185  13.593  13.317  0.00  0.00    -0.320 OA
HETATM    5  C   UNK N   1      36.671  12.287  10.238  0.00  0.00     0.077 A 
HETATM    6  C   UNK N   1      36.527  11.443  14.368  0.00  0.00     0.197 A 
HETATM    7  C   UNK N   1      37.281  10.880  12.116  0.00  0.00     0.021 A 
HETATM    8  C   UNK N   1      35.144  13.389  14.623  0.00  0.00     0.159 A 
HETATM    9  C   UNK N   1      37.341  11.179  10.761  0.00  0.00     0.038 A 
HETATM   10  C   UNK N   1      35.802  12.308  15.215  0.00  0.00     0.048 A 
HETATM   11  O   UNK N   1      37.137  10.486  14.825  0.00  0.00    -0.286 OA
ENDROOT
BRANCH   1  12
HETATM   12  C   UNK N   1      35.155  14.377  10.524  0.00  0.00     0.192 C 
HETATM   13  C   UNK N   1      35.929  15.648  10.107  0.00  0.00     0.183 C 
HETATM   14  C   UNK N   1      34.849  16.735  10.023  0.00  0.00     0.181 C 
HETATM   15  C   UNK N   1      33.752  16.342   9.033  0.00  0.00     0.180 C 
HETATM   16  C   UNK N   1      33.277  14.905   9.301  0.00  0.00     0.177 C 
HETATM   17  O   UNK N   1      34.384  14.050   9.390  0.00  0.00    -0.368 OA
BRANCH  13  18
HETATM   18  O   UNK N   1      36.893  16.060  11.020  0.00  0.00    -0.390 OA
HETATM   19  H   UNK N   1      37.626  15.469  11.257  0.00  0.00     0.210 HD
ENDBRANCH  13  18
BRANCH  14  20
HETATM   20  O   UNK N   1      35.399  17.966   9.665  0.00  0.00    -0.390 OA
HETATM   21  H   UNK N   1      36.314  18.202   9.449  0.00  0.00     0.210 HD
ENDBRANCH  14  20
BRANCH  15  22
HETATM   22  O   UNK N   1      32.678  17.226   9.165  0.00  0.00    -0.390 OA
HETATM   23  H   UNK N   1      32.369  17.751   9.919  0.00  0.00     0.210 HD
ENDBRANCH  15  22
BRANCH  16  24
HETATM   24  C   UNK N   1      32.448  14.401   8.121  0.00  0.00     0.198 C 
BRANCH  24  25
HETATM   25  O   UNK N   1      32.607  15.204   6.993  0.00  0.00    -0.398 OA
HETATM   26  H   UNK N   1      32.008  15.906   6.695  0.00  0.00     0.209 HD
ENDBRANCH  24  25
ENDBRANCH  16  24
ENDBRANCH   1  12
BRANCH   5  27
HETATM   27  O   UNK N   1      36.832  12.552   8.935  0.00  0.00    -0.360 OA
HETATM   28  H   UNK N   1      36.887  13.439   8.637  0.00  0.00     0.217 HD
ENDBRANCH   5  27
BRANCH  10  29
HETATM   29  C   UNK N   1      35.674  12.132  16.691  0.00  0.00    -0.020 A 
HETATM   30  C   UNK N   1      35.836  10.880  17.306  0.00  0.00     0.015 A 
HETATM   31  C   UNK N   1      35.647  10.736  18.685  0.00  0.00     0.037 A 
HETATM   32  C   UNK N   1      35.298  11.843  19.464  0.00  0.00     0.065 A 
HETATM   33  C   UNK N   1      35.152  13.095  18.869  0.00  0.00     0.037 A 
HETATM   34  C   UNK N   1      35.334  13.237  17.493  0.00  0.00     0.015 A 
BRANCH  32  35
HETATM   35  O   UNK N   1      35.101  11.702  20.784  0.00  0.00    -0.361 OA
HETATM   36  H   UNK N   1      34.517  11.042  21.105  0.00  0.00     0.217 HD
ENDBRANCH  32  35
ENDBRANCH  10  29
TORSDOF 9
ENDMDL
MODEL 2
REMARK VINA RESULT:      -7.8      9.920     14.950
REMARK  9 active torsions:
REMARK  status: ('A' for Active; 'I' for Inactive)
REMARK    1  A    between atoms: C_1  and  C_12 
REMARK    2  A    between atoms: C_2  and  O_7 
REMARK    3  A    between atoms: C_3  and  O_8 
REMARK    4  A    between atoms: C_4  and  O_9 
REMARK    5  A    between atoms: C_5  and  C_10 
REMARK    6  A    between atoms: C_10  and  O_11 
REMARK    7  A    between atoms: C_16  and  O_21 
REMARK    8  A    between atoms: C_22  and  C_24 
REMARK    9  A    between atoms: C_29  and  O_30 
ROOT
HETATM    1  C   UNK N   1      23.812  18.910   3.736  0.00  0.00     0.041 A 
HETATM    2  C   UNK N   1      25.066  18.464   4.263  0.00  0.00     0.101 A 
HETATM    3  C   UNK N   1      26.238  19.243   4.093  0.00  0.00     0.050 A 
HETATM    4  O   UNK N   1      25.140  17.333   4.955  0.00  0.00    -0.320 OA
HETATM    5  C   UNK N   1      23.786  20.169   3.079  0.00  0.00     0.077 A 
HETATM    6  C   UNK N   1      27.448  18.787   4.650  0.00  0.00     0.197 A 
HETATM    7  C   UNK N   1      26.174  20.448   3.396  0.00  0.00     0.021 A 
HETATM    8  C   UNK N   1      26.258  16.881   5.497  0.00  0.00     0.159 A 
HETATM    9  C   UNK N   1      24.959  20.906   2.902  0.00  0.00     0.038 A 
HETATM   10  C   UNK N   1      27.464  17.573   5.371  0.00  0.00     0.048 A 
HETATM   11  O   UNK N   1      28.467  19.448   4.515  0.00  0.00    -0.286 OA
ENDROOT
BRANCH   1  12
HETATM   12  C   UNK N   1      22.515  18.092   3.980  0.00  0.00     0.192 C 
HETATM   13  C   UNK N   1      21.753  18.143   5.324  0.00  0.00     0.183 C 
HETATM   14  C   UNK N   1      20.818  16.927   5.273  0.00  0.00     0.181 C 
HETATM   15  C   UNK N   1      19.898  16.994   4.054  0.00  0.00     0.180 C 
HETATM   16  C   UNK N   1      20.711  17.304   2.786  0.00  0.00     0.177 C 
HETATM   17  O   UNK N   1      21.539  18.411   3.015  0.00  0.00    -0.368 OA
BRANCH  13  18
HETATM   18  O   UNK N   1      22.562  18.025   6.449  0.00  0.00    -0.390 OA
HETATM   19  H   UNK N   1      22.166  17.970   7.333  0.00  0.00     0.210 HD
ENDBRANCH  13  18
BRANCH  14  20
HETATM   20  O   UNK N   1      20.060  16.824   6.440  0.00  0.00    -0.390 OA
HETATM   21  H   UNK N   1      19.109  16.673   6.556  0.00  0.00     0.210 HD
ENDBRANCH  14  20
BRANCH  15  22
HETATM   22  O   UNK N   1      19.244  15.768   3.907  0.00  0.00    -0.390 OA
HETATM   23  H   UNK N   1      18.797  15.198   4.552  0.00  0.00     0.210 HD
ENDBRANCH  15  22
BRANCH  16  24
HETATM   24  C   UNK N   1      19.771  17.706   1.650  0.00  0.00     0.198 C 
BRANCH  24  25
HETATM   25  O   UNK N   1      18.631  18.354   2.123  0.00  0.00    -0.398 OA
HETATM   26  H   UNK N   1      17.796  17.935   2.385  0.00  0.00     0.209 HD
ENDBRANCH  24  25
ENDBRANCH  16  24
ENDBRANCH   1  12
BRANCH   5  27
HETATM   27  O   UNK N   1      22.642  20.708   2.636  0.00  0.00    -0.360 OA
HETATM   28  H   UNK N   1      22.469  21.620   2.765  0.00  0.00     0.217 HD
ENDBRANCH   5  27
BRANCH  10  29
HETATM   29  C   UNK N   1      28.685  16.973   5.985  0.00  0.00    -0.020 A 
HETATM   30  C   UNK N   1      29.208  17.435   7.204  0.00  0.00     0.015 A 
HETATM   31  C   UNK N   1      30.390  16.894   7.720  0.00  0.00     0.037 A 
HETATM   32  C   UNK N   1      31.061  15.883   7.025  0.00  0.00     0.065 A 
HETATM   33  C   UNK N   1      30.545  15.404   5.822  0.00  0.00     0.037 A 
HETATM   34  C   UNK N   1      29.369  15.949   5.304  0.00  0.00     0.015 A 
BRANCH  32  35
HETATM   35  O   UNK N   1      32.204  15.376   7.511  0.00  0.00    -0.361 OA
HETATM   36  H   UNK N   1      32.440  15.522   8.407  0.00  0.00     0.217 HD
ENDBRANCH  32  35
ENDBRANCH  10  29
TORSDOF 9
ENDMDL
MODEL 3
REMARK VINA RESULT:      -7.6     11.991     15.694
REMARK  9 active torsions:
REMARK  status: ('A' for Active; 'I' for Inactive)
REMARK    1  A    between atoms: C_1  and  C_12 
REMARK    2  A    between atoms: C_2  and  O_7 
REMARK    3  A    between atoms: C_3  and  O_8 
REMARK    4  A    between atoms: C_4  and  O_9 
REMARK    5  A    between atoms: C_5  and  C_10 
REMARK    6  A    between atoms: C_10  and  O_11 
REMARK    7  A    between atoms: C_16  and  O_21 
REMARK    8  A    between atoms: C_22  and  C_24 
REMARK    9  A    between atoms: C_29  and  O_30 
ROOT
HETATM    1  C   UNK N   1      20.997  16.577   3.785  0.00  0.00     0.041 A 
HETATM    2  C   UNK N   1      21.389  15.821   4.935  0.00  0.00     0.101 A 
HETATM    3  C   UNK N   1      20.764  14.583   5.230  0.00  0.00     0.050 A 
HETATM    4  O   UNK N   1      22.371  16.249   5.718  0.00  0.00    -0.320 OA
HETATM    5  C   UNK N   1      19.997  16.022   2.942  0.00  0.00     0.077 A 
HETATM    6  C   UNK N   1      21.195  13.853   6.354  0.00  0.00     0.197 A 
HETATM    7  C   UNK N   1      19.751  14.103   4.403  0.00  0.00     0.021 A 
HETATM    8  C   UNK N   1      22.805  15.584   6.775  0.00  0.00     0.159 A 
HETATM    9  C   UNK N   1      19.379  14.813   3.269  0.00  0.00     0.038 A 
HETATM   10  C   UNK N   1      22.242  14.363   7.152  0.00  0.00     0.048 A 
HETATM   11  O   UNK N   1      20.669  12.782   6.623  0.00  0.00    -0.286 OA
ENDROOT
BRANCH   1  12
HETATM   12  C   UNK N   1      21.727  17.899   3.421  0.00  0.00     0.192 C 
HETATM   13  C   UNK N   1      21.031  19.276   3.520  0.00  0.00     0.183 C 
HETATM   14  C   UNK N   1      21.935  20.214   2.710  0.00  0.00     0.181 C 
HETATM   15  C   UNK N   1      23.360  20.215   3.263  0.00  0.00     0.180 C 
HETATM   16  C   UNK N   1      23.856  18.775   3.472  0.00  0.00     0.177 C 
HETATM   17  O   UNK N   1      22.899  18.046   4.190  0.00  0.00    -0.368 OA
BRANCH  13  18
HETATM   18  O   UNK N   1      19.754  19.316   2.970  0.00  0.00    -0.390 OA
HETATM   19  H   UNK N   1      19.015  18.875   3.419  0.00  0.00     0.210 HD
ENDBRANCH  13  18
BRANCH  14  20
HETATM   20  O   UNK N   1      21.427  21.513   2.690  0.00  0.00    -0.390 OA
HETATM   21  H   UNK N   1      21.194  22.081   1.940  0.00  0.00     0.210 HD
ENDBRANCH  14  20
BRANCH  15  22
HETATM   22  O   UNK N   1      24.200  20.878   2.365  0.00  0.00    -0.390 OA
HETATM   23  H   UNK N   1      24.969  20.570   1.860  0.00  0.00     0.210 HD
ENDBRANCH  15  22
BRANCH  16  24
HETATM   24  C   UNK N   1      25.119  18.778   4.333  0.00  0.00     0.198 C 
BRANCH  24  25
HETATM   25  O   UNK N   1      24.979  17.976   5.464  0.00  0.00    -0.398 OA
HETATM   26  H   UNK N   1      24.584  17.091   5.499  0.00  0.00     0.209 HD
ENDBRANCH  24  25
ENDBRANCH  16  24
ENDBRANCH   1  12
BRANCH   5  27
HETATM   27  O   UNK N   1      19.634  16.615   1.797  0.00  0.00    -0.360 OA
HETATM   28  H   UNK N   1      18.978  16.226   1.251  0.00  0.00     0.217 HD
ENDBRANCH   5  27
BRANCH  10  29
HETATM   29  C   UNK N   1      22.768  13.696   8.380  0.00  0.00    -0.020 A 
HETATM   30  C   UNK N   1      21.962  13.475   9.508  0.00  0.00     0.015 A 
HETATM   31  C   UNK N   1      22.502  12.906  10.666  0.00  0.00     0.037 A 
HETATM   32  C   UNK N   1      23.853  12.546  10.706  0.00  0.00     0.065 A 
HETATM   33  C   UNK N   1      24.661  12.744   9.588  0.00  0.00     0.037 A 
HETATM   34  C   UNK N   1      24.123  13.319   8.435  0.00  0.00     0.015 A 
BRANCH  32  35
HETATM   35  O   UNK N   1      24.376  12.015  11.823  0.00  0.00    -0.361 OA
HETATM   36  H   UNK N   1      25.305  11.919  11.908  0.00  0.00     0.217 HD
ENDBRANCH  32  35
ENDBRANCH  10  29
TORSDOF 9
ENDMDL
MODEL 4
REMARK VINA RESULT:      -7.3      3.450      6.809
REMARK  9 active torsions:
REMARK  status: ('A' for Active; 'I' for Inactive)
REMARK    1  A    between atoms: C_1  and  C_12 
REMARK    2  A    between atoms: C_2  and  O_7 
REMARK    3  A    between atoms: C_3  and  O_8 
REMARK    4  A    between atoms: C_4  and  O_9 
REMARK    5  A    between atoms: C_5  and  C_10 
REMARK    6  A    between atoms: C_10  and  O_11 
REMARK    7  A    between atoms: C_16  and  O_21 
REMARK    8  A    between atoms: C_22  and  C_24 
REMARK    9  A    between atoms: C_29  and  O_30 
ROOT
HETATM    1  C   UNK N   1      31.823  16.547   7.055  0.00  0.00     0.041 A 
HETATM    2  C   UNK N   1      32.673  15.998   8.067  0.00  0.00     0.101 A 
HETATM    3  C   UNK N   1      34.080  15.975   7.891  0.00  0.00     0.050 A 
HETATM    4  O   UNK N   1      32.159  15.541   9.202  0.00  0.00    -0.320 OA
HETATM    5  C   UNK N   1      32.444  17.097   5.902  0.00  0.00     0.077 A 
HETATM    6  C   UNK N   1      34.887  15.453   8.921  0.00  0.00     0.197 A 
HETATM    7  C   UNK N   1      34.641  16.479   6.720  0.00  0.00     0.021 A 
HETATM    8  C   UNK N   1      32.889  15.052  10.190  0.00  0.00     0.159 A 
HETATM    9  C   UNK N   1      33.830  17.039   5.741  0.00  0.00     0.038 A 
HETATM   10  C   UNK N   1      34.281  14.976  10.103  0.00  0.00     0.048 A 
HETATM   11  O   UNK N   1      36.103  15.428   8.787  0.00  0.00    -0.286 OA
ENDROOT
BRANCH   1  12
HETATM   12  C   UNK N   1      30.288  16.637   7.275  0.00  0.00     0.192 C 
HETATM   13  C   UNK N   1      29.648  17.725   8.167  0.00  0.00     0.183 C 
HETATM   14  C   UNK N   1      28.225  17.212   8.423  0.00  0.00     0.181 C 
HETATM   15  C   UNK N   1      27.477  16.990   7.109  0.00  0.00     0.180 C 
HETATM   16  C   UNK N   1      28.343  16.184   6.128  0.00  0.00     0.177 C 
HETATM   17  O   UNK N   1      29.618  16.760   6.041  0.00  0.00    -0.368 OA
BRANCH  13  18
HETATM   18  O   UNK N   1      30.276  17.904   9.394  0.00  0.00    -0.390 OA
HETATM   19  H   UNK N   1      29.834  18.401  10.102  0.00  0.00     0.210 HD
ENDBRANCH  13  18
BRANCH  14  20
HETATM   20  O   UNK N   1      27.511  18.090   9.239  0.00  0.00    -0.390 OA
HETATM   21  H   UNK N   1      27.332  19.037   9.131  0.00  0.00     0.210 HD
ENDBRANCH  14  20
BRANCH  15  22
HETATM   22  O   UNK N   1      26.290  16.299   7.368  0.00  0.00    -0.390 OA
HETATM   23  H   UNK N   1      25.369  16.497   7.136  0.00  0.00     0.210 HD
ENDBRANCH  15  22
BRANCH  16  24
HETATM   24  C   UNK N   1      27.748  16.261   4.722  0.00  0.00     0.198 C 
BRANCH  24  25
HETATM   25  O   UNK N   1      26.550  15.555   4.626  0.00  0.00    -0.398 OA
HETATM   26  H   UNK N   1      25.937  15.557   3.874  0.00  0.00     0.209 HD
ENDBRANCH  24  25
ENDBRANCH  16  24
ENDBRANCH   1  12
BRANCH   5  27
HETATM   27  O   UNK N   1      31.734  17.713   4.947  0.00  0.00    -0.360 OA
HETATM   28  H   UNK N   1      30.797  17.702   4.974  0.00  0.00     0.217 HD
ENDBRANCH   5  27
BRANCH  10  29
HETATM   29  C   UNK N   1      35.025  14.378  11.250  0.00  0.00    -0.020 A 
HETATM   30  C   UNK N   1      35.603  15.170  12.255  0.00  0.00     0.015 A 
HETATM   31  C   UNK N   1      36.348  14.583  13.282  0.00  0.00     0.037 A 
HETATM   32  C   UNK N   1      36.520  13.195  13.318  0.00  0.00     0.065 A 
HETATM   33  C   UNK N   1      35.938  12.395  12.337  0.00  0.00     0.037 A 
HETATM   34  C   UNK N   1      35.200  12.983  11.308  0.00  0.00     0.015 A 
BRANCH  32  35
HETATM   35  O   UNK N   1      37.249  12.633  14.294  0.00  0.00    -0.361 OA
HETATM   36  H   UNK N   1      38.185  12.617  14.234  0.00  0.00     0.217 HD
ENDBRANCH  32  35
ENDBRANCH  10  29
TORSDOF 9
ENDMDL
MODEL 5
REMARK VINA RESULT:      -7.3      7.917     12.887
REMARK  9 active torsions:
REMARK  status: ('A' for Active; 'I' for Inactive)
REMARK    1  A    between atoms: C_1  and  C_12 
REMARK    2  A    between atoms: C_2  and  O_7 
REMARK    3  A    between atoms: C_3  and  O_8 
REMARK    4  A    between atoms: C_4  and  O_9 
REMARK    5  A    between atoms: C_5  and  C_10 
REMARK    6  A    between atoms: C_10  and  O_11 
REMARK    7  A    between atoms: C_16  and  O_21 
REMARK    8  A    between atoms: C_22  and  C_24 
REMARK    9  A    between atoms: C_29  and  O_30 
ROOT
HETATM    1  C   UNK N   1      30.702  16.764   6.198  0.00  0.00     0.041 A 
HETATM    2  C   UNK N   1      29.504  17.396   5.736  0.00  0.00     0.101 A 
HETATM    3  C   UNK N   1      28.765  18.252   6.592  0.00  0.00     0.050 A 
HETATM    4  O   UNK N   1      29.091  17.222   4.487  0.00  0.00    -0.320 OA
HETATM    5  C   UNK N   1      31.134  17.059   7.519  0.00  0.00     0.077 A 
HETATM    6  C   UNK N   1      27.607  18.880   6.094  0.00  0.00     0.197 A 
HETATM    7  C   UNK N   1      29.200  18.471   7.897  0.00  0.00     0.021 A 
HETATM    8  C   UNK N   1      28.013  17.803   3.986  0.00  0.00     0.159 A 
HETATM    9  C   UNK N   1      30.375  17.886   8.350  0.00  0.00     0.038 A 
HETATM   10  C   UNK N   1      27.215  18.651   4.757  0.00  0.00     0.048 A 
HETATM   11  O   UNK N   1      26.959  19.623   6.817  0.00  0.00    -0.286 OA
ENDROOT
BRANCH   1  12
HETATM   12  C   UNK N   1      31.550  15.881   5.242  0.00  0.00     0.192 C 
HETATM   13  C   UNK N   1      32.538  16.491   4.221  0.00  0.00     0.183 C 
HETATM   14  C   UNK N   1      32.834  15.340   3.251  0.00  0.00     0.181 C 
HETATM   15  C   UNK N   1      33.401  14.130   3.992  0.00  0.00     0.180 C 
HETATM   16  C   UNK N   1      32.539  13.801   5.222  0.00  0.00     0.177 C 
HETATM   17  O   UNK N   1      32.330  14.964   5.976  0.00  0.00    -0.368 OA
BRANCH  13  18
HETATM   18  O   UNK N   1      32.025  17.558   3.491  0.00  0.00    -0.390 OA
HETATM   19  H   UNK N   1      31.242  17.435   2.931  0.00  0.00     0.210 HD
ENDBRANCH  13  18
BRANCH  14  20
HETATM   20  O   UNK N   1      33.714  15.742   2.245  0.00  0.00    -0.390 OA
HETATM   21  H   UNK N   1      34.605  16.118   2.308  0.00  0.00     0.210 HD
ENDBRANCH  14  20
BRANCH  15  22
HETATM   22  O   UNK N   1      33.426  13.033   3.127  0.00  0.00    -0.390 OA
HETATM   23  H   UNK N   1      32.776  12.709   2.483  0.00  0.00     0.210 HD
ENDBRANCH  15  22
BRANCH  16  24
HETATM   24  C   UNK N   1      33.284  12.832   6.138  0.00  0.00     0.198 C 
BRANCH  24  25
HETATM   25  O   UNK N   1      32.772  12.843   7.434  0.00  0.00    -0.398 OA
HETATM   26  H   UNK N   1      32.984  13.481   8.133  0.00  0.00     0.209 HD
ENDBRANCH  24  25
ENDBRANCH  16  24
ENDBRANCH   1  12
BRANCH   5  27
HETATM   27  O   UNK N   1      32.290  16.586   8.003  0.00  0.00    -0.360 OA
HETATM   28  H   UNK N   1      32.443  16.568   8.927  0.00  0.00     0.217 HD
ENDBRANCH   5  27
BRANCH  10  29
HETATM   29  C   UNK N   1      25.997  19.236   4.123  0.00  0.00    -0.020 A 
HETATM   30  C   UNK N   1      26.064  20.354   3.276  0.00  0.00     0.015 A 
HETATM   31  C   UNK N   1      24.898  20.917   2.749  0.00  0.00     0.037 A 
HETATM   32  C   UNK N   1      23.650  20.366   3.061  0.00  0.00     0.065 A 
HETATM   33  C   UNK N   1      23.570  19.246   3.887  0.00  0.00     0.037 A 
HETATM   34  C   UNK N   1      24.735  18.689   4.418  0.00  0.00     0.015 A 
BRANCH  32  35
HETATM   35  O   UNK N   1      22.529  20.916   2.569  0.00  0.00    -0.361 OA
HETATM   36  H   UNK N   1      22.581  21.575   1.904  0.00  0.00     0.217 HD
ENDBRANCH  32  35
ENDBRANCH  10  29
TORSDOF 9
ENDMDL
MODEL 6
REMARK VINA RESULT:      -7.2     14.310     16.153
REMARK  9 active torsions:
REMARK  status: ('A' for Active; 'I' for Inactive)
REMARK    1  A    between atoms: C_1  and  C_12 
REMARK    2  A    between atoms: C_2  and  O_7 
REMARK    3  A    between atoms: C_3  and  O_8 
REMARK    4  A    between atoms: C_4  and  O_9 
REMARK    5  A    between atoms: C_5  and  C_10 
REMARK    6  A    between atoms: C_10  and  O_11 
REMARK    7  A    between atoms: C_16  and  O_21 
REMARK    8  A    between atoms: C_22  and  C_24 
REMARK    9  A    between atoms: C_29  and  O_30 
ROOT
HETATM    1  C   UNK N   1      21.348  17.125   6.730  0.00  0.00     0.041 A 
HETATM    2  C   UNK N   1      21.516  15.706   6.652  0.00  0.00     0.101 A 
HETATM    3  C   UNK N   1      20.981  14.861   7.656  0.00  0.00     0.050 A 
HETATM    4  O   UNK N   1      22.139  15.159   5.616  0.00  0.00    -0.320 OA
HETATM    5  C   UNK N   1      20.598  17.639   7.822  0.00  0.00     0.077 A 
HETATM    6  C   UNK N   1      21.141  13.467   7.531  0.00  0.00     0.197 A 
HETATM    7  C   UNK N   1      20.297  15.414   8.736  0.00  0.00     0.021 A 
HETATM    8  C   UNK N   1      22.300  13.855   5.464  0.00  0.00     0.159 A 
HETATM    9  C   UNK N   1      20.103  16.788   8.811  0.00  0.00     0.038 A 
HETATM   10  C   UNK N   1      21.819  12.945   6.408  0.00  0.00     0.048 A 
HETATM   11  O   UNK N   1      20.683  12.723   8.387  0.00  0.00    -0.286 OA
ENDROOT
BRANCH   1  12
HETATM   12  C   UNK N   1      21.873  18.048   5.596  0.00  0.00     0.192 C 
HETATM   13  C   UNK N   1      23.196  17.761   4.850  0.00  0.00     0.183 C 
HETATM   14  C   UNK N   1      23.521  19.081   4.139  0.00  0.00     0.181 C 
HETATM   15  C   UNK N   1      22.382  19.498   3.210  0.00  0.00     0.180 C 
HETATM   16  C   UNK N   1      21.033  19.414   3.943  0.00  0.00     0.177 C 
HETATM   17  O   UNK N   1      20.914  18.166   4.570  0.00  0.00    -0.368 OA
BRANCH  13  18
HETATM   18  O   UNK N   1      24.265  17.436   5.679  0.00  0.00    -0.390 OA
HETATM   19  H   UNK N   1      24.959  16.834   5.368  0.00  0.00     0.210 HD
ENDBRANCH  13  18
BRANCH  14  20
HETATM   20  O   UNK N   1      24.715  18.988   3.423  0.00  0.00    -0.390 OA
HETATM   21  H   UNK N   1      25.483  19.581   3.409  0.00  0.00     0.210 HD
ENDBRANCH  14  20
BRANCH  15  22
HETATM   22  O   UNK N   1      22.601  20.808   2.775  0.00  0.00    -0.390 OA
HETATM   23  H   UNK N   1      23.381  21.231   2.384  0.00  0.00     0.210 HD
ENDBRANCH  15  22
BRANCH  16  24
HETATM   24  C   UNK N   1      19.886  19.493   2.936  0.00  0.00     0.198 C 
BRANCH  24  25
HETATM   25  O   UNK N   1      20.340  19.386   1.623  0.00  0.00    -0.398 OA
HETATM   26  H   UNK N   1      19.859  19.649   0.823  0.00  0.00     0.209 HD
ENDBRANCH  24  25
ENDBRANCH  16  24
ENDBRANCH   1  12
BRANCH   5  27
HETATM   27  O   UNK N   1      20.313  18.944   7.926  0.00  0.00    -0.360 OA
HETATM   28  H   UNK N   1      20.410  19.385   8.748  0.00  0.00     0.217 HD
ENDBRANCH   5  27
BRANCH  10  29
HETATM   29  C   UNK N   1      22.073  11.493   6.177  0.00  0.00    -0.020 A 
HETATM   30  C   UNK N   1      21.178  10.687   5.455  0.00  0.00     0.015 A 
HETATM   31  C   UNK N   1      21.415   9.317   5.311  0.00  0.00     0.037 A 
HETATM   32  C   UNK N   1      22.551   8.737   5.883  0.00  0.00     0.065 A 
HETATM   33  C   UNK N   1      23.457   9.528   6.588  0.00  0.00     0.037 A 
HETATM   34  C   UNK N   1      23.217  10.894   6.738  0.00  0.00     0.015 A 
BRANCH  32  35
HETATM   35  O   UNK N   1      22.769   7.418   5.759  0.00  0.00    -0.361 OA
HETATM   36  H   UNK N   1      22.657   6.851   6.497  0.00  0.00     0.217 HD
ENDBRANCH  32  35
ENDBRANCH  10  29
TORSDOF 9
ENDMDL
MODEL 7
REMARK VINA RESULT:      -7.1      4.634      8.947
REMARK  9 active torsions:
REMARK  status: ('A' for Active; 'I' for Inactive)
REMARK    1  A    between atoms: C_1  and  C_12 
REMARK    2  A    between atoms: C_2  and  O_7 
REMARK    3  A    between atoms: C_3  and  O_8 
REMARK    4  A    between atoms: C_4  and  O_9 
REMARK    5  A    between atoms: C_5  and  C_10 
REMARK    6  A    between atoms: C_10  and  O_11 
REMARK    7  A    between atoms: C_16  and  O_21 
REMARK    8  A    between atoms: C_22  and  C_24 
REMARK    9  A    between atoms: C_29  and  O_30 
ROOT
HETATM    1  C   UNK N   1      30.533  16.550   4.865  0.00  0.00     0.041 A 
HETATM    2  C   UNK N   1      31.448  16.364   5.950  0.00  0.00     0.101 A 
HETATM    3  C   UNK N   1      32.846  16.328   5.714  0.00  0.00     0.050 A 
HETATM    4  O   UNK N   1      31.003  16.263   7.196  0.00  0.00    -0.320 OA
HETATM    5  C   UNK N   1      31.080  16.735   3.567  0.00  0.00     0.077 A 
HETATM    6  C   UNK N   1      33.718  16.172   6.809  0.00  0.00     0.197 A 
HETATM    7  C   UNK N   1      33.334  16.462   4.417  0.00  0.00     0.021 A 
HETATM    8  C   UNK N   1      31.794  16.124   8.246  0.00  0.00     0.159 A 
HETATM    9  C   UNK N   1      32.459  16.670   3.358  0.00  0.00     0.038 A 
HETATM   10  C   UNK N   1      33.183  16.065   8.111  0.00  0.00     0.048 A 
HETATM   11  O   UNK N   1      34.926  16.141   6.625  0.00  0.00    -0.286 OA
ENDROOT
BRANCH   1  12
HETATM   12  C   UNK N   1      29.006  16.658   5.129  0.00  0.00     0.192 C 
HETATM   13  C   UNK N   1      28.120  17.699   4.406  0.00  0.00     0.183 C 
HETATM   14  C   UNK N   1      26.827  17.730   5.232  0.00  0.00     0.181 C 
HETATM   15  C   UNK N   1      26.191  16.342   5.307  0.00  0.00     0.180 C 
HETATM   16  C   UNK N   1      27.242  15.290   5.696  0.00  0.00     0.177 C 
HETATM   17  O   UNK N   1      28.371  15.426   4.875  0.00  0.00    -0.368 OA
BRANCH  13  18
HETATM   18  O   UNK N   1      28.651  18.984   4.376  0.00  0.00    -0.390 OA
HETATM   19  H   UNK N   1      28.764  19.486   5.200  0.00  0.00     0.210 HD
ENDBRANCH  13  18
BRANCH  14  20
HETATM   20  O   UNK N   1      25.916  18.648   4.709  0.00  0.00    -0.390 OA
HETATM   21  H   UNK N   1      26.008  19.266   3.967  0.00  0.00     0.210 HD
ENDBRANCH  14  20
BRANCH  15  22
HETATM   22  O   UNK N   1      25.166  16.359   6.257  0.00  0.00    -0.390 OA
HETATM   23  H   UNK N   1      24.509  15.689   6.502  0.00  0.00     0.210 HD
ENDBRANCH  15  22
BRANCH  16  24
HETATM   24  C   UNK N   1      26.697  13.886   5.436  0.00  0.00     0.198 C 
BRANCH  24  25
HETATM   25  O   UNK N   1      25.813  13.479   6.434  0.00  0.00    -0.398 OA
HETATM   26  H   UNK N   1      24.910  13.152   6.306  0.00  0.00     0.209 HD
ENDBRANCH  24  25
ENDBRANCH  16  24
ENDBRANCH   1  12
BRANCH   5  27
HETATM   27  O   UNK N   1      30.304  17.007   2.510  0.00  0.00    -0.360 OA
HETATM   28  H   UNK N   1      29.422  17.299   2.634  0.00  0.00     0.217 HD
ENDBRANCH   5  27
BRANCH  10  29
HETATM   29  C   UNK N   1      34.000  15.871   9.345  0.00  0.00    -0.020 A 
HETATM   30  C   UNK N   1      34.866  16.866   9.827  0.00  0.00     0.015 A 
HETATM   31  C   UNK N   1      35.665  16.629  10.950  0.00  0.00     0.037 A 
HETATM   32  C   UNK N   1      35.606  15.395  11.605  0.00  0.00     0.065 A 
HETATM   33  C   UNK N   1      34.739  14.405  11.148  0.00  0.00     0.037 A 
HETATM   34  C   UNK N   1      33.946  14.639  10.023  0.00  0.00     0.015 A 
BRANCH  32  35
HETATM   35  O   UNK N   1      36.385  15.161  12.673  0.00  0.00    -0.361 OA
HETATM   36  H   UNK N   1      36.818  15.872  13.104  0.00  0.00     0.217 HD
ENDBRANCH  32  35
ENDBRANCH  10  29
TORSDOF 9
ENDMDL
MODEL 8
REMARK VINA RESULT:      -7.1      4.534      8.847
REMARK  9 active torsions:
REMARK  status: ('A' for Active; 'I' for Inactive)
REMARK    1  A    between atoms: C_1  and  C_12 
REMARK    2  A    between atoms: C_2  and  O_7 
REMARK    3  A    between atoms: C_3  and  O_8 
REMARK    4  A    between atoms: C_4  and  O_9 
REMARK    5  A    between atoms: C_5  and  C_10 
REMARK    6  A    between atoms: C_10  and  O_11 
REMARK    7  A    between atoms: C_16  and  O_21 
REMARK    8  A    between atoms: C_22  and  C_24 
REMARK    9  A    between atoms: C_29  and  O_30 
ROOT
HETATM    1  C   UNK N   1      30.968  16.795   4.707  0.00  0.00     0.041 A 
HETATM    2  C   UNK N   1      31.808  16.535   5.837  0.00  0.00     0.101 A 
HETATM    3  C   UNK N   1      33.180  16.224   5.658  0.00  0.00     0.050 A 
HETATM    4  O   UNK N   1      31.323  16.622   7.069  0.00  0.00    -0.320 OA
HETATM    5  C   UNK N   1      31.570  16.768   3.420  0.00  0.00     0.077 A 
HETATM    6  C   UNK N   1      33.982  16.002   6.794  0.00  0.00     0.197 A 
HETATM    7  C   UNK N   1      33.714  16.158   4.373  0.00  0.00     0.021 A 
HETATM    8  C   UNK N   1      32.051  16.427   8.156  0.00  0.00     0.159 A 
HETATM    9  C   UNK N   1      32.918  16.435   3.270  0.00  0.00     0.038 A 
HETATM   10  C   UNK N   1      33.407  16.104   8.079  0.00  0.00     0.048 A 
HETATM   11  O   UNK N   1      35.168  15.736   6.658  0.00  0.00    -0.286 OA
ENDROOT
BRANCH   1  12
HETATM   12  C   UNK N   1      29.482  17.203   4.903  0.00  0.00     0.192 C 
HETATM   13  C   UNK N   1      28.317  16.237   4.591  0.00  0.00     0.183 C 
HETATM   14  C   UNK N   1      27.082  17.144   4.532  0.00  0.00     0.181 C 
HETATM   15  C   UNK N   1      26.899  17.908   5.843  0.00  0.00     0.180 C 
HETATM   16  C   UNK N   1      28.223  18.559   6.274  0.00  0.00     0.177 C 
HETATM   17  O   UNK N   1      29.252  17.608   6.234  0.00  0.00    -0.368 OA
BRANCH  13  18
HETATM   18  O   UNK N   1      28.431  15.573   3.375  0.00  0.00    -0.390 OA
HETATM   19  H   UNK N   1      28.392  16.069   2.541  0.00  0.00     0.210 HD
ENDBRANCH  13  18
BRANCH  14  20
HETATM   20  O   UNK N   1      25.931  16.411   4.239  0.00  0.00    -0.390 OA
HETATM   21  H   UNK N   1      25.826  15.469   4.032  0.00  0.00     0.210 HD
ENDBRANCH  14  20
BRANCH  15  22
HETATM   22  O   UNK N   1      25.924  18.893   5.668  0.00  0.00    -0.390 OA
HETATM   23  H   UNK N   1      24.961  18.871   5.788  0.00  0.00     0.210 HD
ENDBRANCH  15  22
BRANCH  16  24
HETATM   24  C   UNK N   1      28.129  19.019   7.728  0.00  0.00     0.198 C 
BRANCH  24  25
HETATM   25  O   UNK N   1      27.041  19.864   7.937  0.00  0.00    -0.398 OA
HETATM   26  H   UNK N   1      26.346  19.756   8.604  0.00  0.00     0.209 HD
ENDBRANCH  24  25
ENDBRANCH  16  24
ENDBRANCH   1  12
BRANCH   5  27
HETATM   27  O   UNK N   1      30.883  17.089   2.316  0.00  0.00    -0.360 OA
HETATM   28  H   UNK N   1      30.649  16.426   1.696  0.00  0.00     0.217 HD
ENDBRANCH   5  27
BRANCH  10  29
HETATM   29  C   UNK N   1      34.146  15.866   9.354  0.00  0.00    -0.020 A 
HETATM   30  C   UNK N   1      35.006  16.830   9.905  0.00  0.00     0.015 A 
HETATM   31  C   UNK N   1      35.732  16.552  11.067  0.00  0.00     0.037 A 
HETATM   32  C   UNK N   1      35.603  15.308  11.694  0.00  0.00     0.065 A 
HETATM   33  C   UNK N   1      34.740  14.349  11.168  0.00  0.00     0.037 A 
HETATM   34  C   UNK N   1      34.021  14.625  10.004  0.00  0.00     0.015 A 
BRANCH  32  35
HETATM   35  O   UNK N   1      36.313  15.035  12.800  0.00  0.00    -0.361 OA
HETATM   36  H   UNK N   1      35.926  14.543  13.498  0.00  0.00     0.217 HD
ENDBRANCH  32  35
ENDBRANCH  10  29
TORSDOF 9
ENDMDL
MODEL 9
REMARK VINA RESULT:      -7.0      1.073      2.259
REMARK  9 active torsions:
REMARK  status: ('A' for Active; 'I' for Inactive)
REMARK    1  A    between atoms: C_1  and  C_12 
REMARK    2  A    between atoms: C_2  and  O_7 
REMARK    3  A    between atoms: C_3  and  O_8 
REMARK    4  A    between atoms: C_4  and  O_9 
REMARK    5  A    between atoms: C_5  and  C_10 
REMARK    6  A    between atoms: C_10  and  O_11 
REMARK    7  A    between atoms: C_16  and  O_21 
REMARK    8  A    between atoms: C_22  and  C_24 
REMARK    9  A    between atoms: C_29  and  O_30 
ROOT
HETATM    1  C   UNK N   1      36.176  12.227  10.760  0.00  0.00     0.041 A 
HETATM    2  C   UNK N   1      36.082  12.234  12.188  0.00  0.00     0.101 A 
HETATM    3  C   UNK N   1      36.896  11.374  12.968  0.00  0.00     0.050 A 
HETATM    4  O   UNK N   1      35.259  13.074  12.803  0.00  0.00    -0.320 OA
HETATM    5  C   UNK N   1      37.136  11.363  10.168  0.00  0.00     0.077 A 
HETATM    6  C   UNK N   1      36.797  11.429  14.371  0.00  0.00     0.197 A 
HETATM    7  C   UNK N   1      37.788  10.507  12.340  0.00  0.00     0.021 A 
HETATM    8  C   UNK N   1      35.148  13.156  14.118  0.00  0.00     0.159 A 
HETATM    9  C   UNK N   1      37.909  10.508  10.957  0.00  0.00     0.038 A 
HETATM   10  C   UNK N   1      35.900  12.341  14.967  0.00  0.00     0.048 A 
HETATM   11  O   UNK N   1      37.494  10.697  15.059  0.00  0.00    -0.286 OA
ENDROOT
BRANCH   1  12
HETATM   12  C   UNK N   1      35.334  13.215   9.906  0.00  0.00     0.192 C 
HETATM   13  C   UNK N   1      33.873  12.913   9.502  0.00  0.00     0.183 C 
HETATM   14  C   UNK N   1      33.581  13.912   8.374  0.00  0.00     0.181 C 
HETATM   15  C   UNK N   1      33.792  15.350   8.847  0.00  0.00     0.180 C 
HETATM   16  C   UNK N   1      35.144  15.485   9.566  0.00  0.00     0.177 C 
HETATM   17  O   UNK N   1      35.268  14.477  10.532  0.00  0.00    -0.368 OA
BRANCH  13  18
HETATM   18  O   UNK N   1      33.667  11.628   9.012  0.00  0.00    -0.390 OA
HETATM   19  H   UNK N   1      34.366  10.959   9.085  0.00  0.00     0.210 HD
ENDBRANCH  13  18
BRANCH  14  20
HETATM   20  O   UNK N   1      32.285  13.753   7.883  0.00  0.00    -0.390 OA
HETATM   21  H   UNK N   1      31.430  13.895   8.320  0.00  0.00     0.210 HD
ENDBRANCH  14  20
BRANCH  15  22
HETATM   22  O   UNK N   1      33.758  16.205   7.743  0.00  0.00    -0.390 OA
HETATM   23  H   UNK N   1      34.354  16.919   7.466  0.00  0.00     0.210 HD
ENDBRANCH  15  22
BRANCH  16  24
HETATM   24  C   UNK N   1      35.200  16.809  10.328  0.00  0.00     0.198 C 
BRANCH  24  25
HETATM   25  O   UNK N   1      35.240  17.903   9.466  0.00  0.00    -0.398 OA
HETATM   26  H   UNK N   1      34.853  18.778   9.625  0.00  0.00     0.209 HD
ENDBRANCH  24  25
ENDBRANCH  16  24
ENDBRANCH   1  12
BRANCH   5  27
HETATM   27  O   UNK N   1      37.358  11.358   8.847  0.00  0.00    -0.360 OA
HETATM   28  H   UNK N   1      36.637  11.341   8.247  0.00  0.00     0.217 HD
ENDBRANCH   5  27
BRANCH  10  29
HETATM   29  C   UNK N   1      35.686  12.474  16.439  0.00  0.00    -0.020 A 
HETATM   30  C   UNK N   1      35.583  11.353  17.279  0.00  0.00     0.015 A 
HETATM   31  C   UNK N   1      35.319  11.510  18.643  0.00  0.00     0.037 A 
HETATM   32  C   UNK N   1      35.160  12.790  19.184  0.00  0.00     0.065 A 
HETATM   33  C   UNK N   1      35.277  13.912  18.365  0.00  0.00     0.037 A 
HETATM   34  C   UNK N   1      35.533  13.754  17.002  0.00  0.00     0.015 A 
BRANCH  32  35
HETATM   35  O   UNK N   1      34.890  12.941  20.490  0.00  0.00    -0.361 OA
HETATM   36  H   UNK N   1      34.096  12.594  20.849  0.00  0.00     0.217 HD
ENDBRANCH  32  35
ENDBRANCH  10  29
TORSDOF 9
ENDMDL
