MODEL 1
REMARK VINA RESULT:      -8.5      0.000      0.000
REMARK  15 active torsions:
REMARK  status: ('A' for Active; 'I' for Inactive)
REMARK    1  A    between atoms: C_2  and  C_6 
REMARK    2  A    between atoms: C_5  and  O_10 
REMARK    3  A    between atoms: C_6  and  O_11 
REMARK    4  A    between atoms: C_7  and  O_14 
REMARK    5  A    between atoms: C_8  and  O_15 
REMARK    6  A    between atoms: O_15  and  C_18 
REMARK    7  A    between atoms: C_17  and  O_21 
REMARK    8  A    between atoms: C_22  and  O_27 
REMARK    9  A    between atoms: C_25  and  O_31 
REMARK   10  A    between atoms: C_26  and  N_33 
REMARK   11  A    between atoms: C_30  and  O_37 
REMARK   12  A    between atoms: C_32  and  O_38 
REMARK   13  A    between atoms: C_42  and  O_45 
REMARK   14  A    between atoms: C_47  and  O_50 
REMARK   15  A    between atoms: C_62  and  O_65 
ROOT
HETATM    1  C   UNK N   1      26.542  18.348   5.854  0.00  0.00     0.144 C 
HETATM    2  C   UNK N   1      27.789  19.215   6.167  0.00  0.00     0.141 C 
HETATM    3  O   UNK N   1      26.922  17.189   5.128  0.00  0.00    -0.349 OA
HETATM    4  C   UNK N   1      25.605  19.213   4.987  0.00  0.00     0.069 C 
HETATM    5  C   UNK N   1      28.953  18.400   6.779  0.00  0.00     0.140 C 
HETATM    6  C   UNK N   1      27.880  16.351   5.783  0.00  0.00     0.166 C 
HETATM    7  C   UNK N   1      24.366  18.575   4.345  0.00  0.00     0.150 C 
HETATM    8  C   UNK N   1      28.549  16.964   7.015  0.00  0.00     0.101 C 
HETATM    9  C   UNK N   1      27.250  15.067   6.309  0.00  0.00     0.100 C 
HETATM   10  C   UNK N   1      24.184  17.106   4.540  0.00  0.00     0.005 C 
HETATM   11  C   UNK N   1      26.111  14.520   5.477  0.00  0.00     0.125 C 
HETATM   12  C   UNK N   1      24.329  16.339   3.473  0.00  0.00    -0.002 C 
HETATM   13  C   UNK N   1      26.321  13.040   5.271  0.00  0.00     0.066 C 
HETATM   14  C   UNK N   1      23.639  15.068   3.412  0.00  0.00    -0.000 C 
HETATM   15  C   UNK N   1      27.240  12.758   4.088  0.00  0.00     0.149 C 
HETATM   16  C   UNK N   1      23.601  14.443   2.251  0.00  0.00     0.000 C 
HETATM   17  C   UNK N   1      27.739  11.306   4.096  0.00  0.00     0.147 C 
HETATM   18  C   UNK N   1      22.435  13.627   1.979  0.00  0.00     0.000 C 
HETATM   19  C   UNK N   1      26.655  10.298   4.507  0.00  0.00     0.036 C 
HETATM   20  C   UNK N   1      22.208  13.189   0.748  0.00  0.00     0.000 C 
HETATM   21  C   UNK N   1      25.979   9.632   3.319  0.00  0.00     0.034 C 
HETATM   22  C   UNK N   1      20.832  12.880   0.341  0.00  0.00     0.000 C 
HETATM   23  C   UNK N   1      25.277  10.642   2.431  0.00  0.00     0.120 C 
HETATM   24  C   UNK N   1      19.857  13.717   0.726  0.00  0.00     0.000 C 
HETATM   25  C   UNK N   1      25.059  10.082   1.029  0.00  0.00     0.064 C 
HETATM   26  C   UNK N   1      18.439  13.604   0.340  0.00  0.00     0.000 C 
HETATM   27  C   UNK N   1      23.774   9.290   0.811  0.00  0.00     0.130 C 
HETATM   28  C   UNK N   1      17.825  12.498  -0.090  0.00  0.00     0.000 C 
HETATM   29  C   UNK N   1      23.526   8.214   1.859  0.00  0.00     0.142 C 
HETATM   30  C   UNK N   1      18.449  11.172  -0.116  0.00  0.00     0.000 C 
HETATM   31  C   UNK N   1      22.461   7.305   1.358  0.00  0.00     0.261 C 
HETATM   32  C   UNK N   1      17.844  10.204  -0.787  0.00  0.00    -0.000 C 
HETATM   33  O   UNK N   1      22.687   6.585   0.226  0.00  0.00    -0.316 OA
HETATM   34  O   UNK N   1      21.385   7.252   1.941  0.00  0.00    -0.265 OA
HETATM   35  C   UNK N   1      18.339   8.830  -0.748  0.00  0.00    -0.004 C 
HETATM   36  C   UNK N   1      21.734   5.837  -0.442  0.00  0.00     0.134 C 
HETATM   37  C   UNK N   1      17.782   7.933  -1.556  0.00  0.00    -0.020 C 
HETATM   38  C   UNK N   1      20.582   6.733  -0.945  0.00  0.00     0.040 C 
HETATM   39  C   UNK N   1      21.246   4.699   0.450  0.00  0.00     0.040 C 
HETATM   40  C   UNK N   1      18.099   6.467  -1.499  0.00  0.00     0.033 C 
HETATM   41  C   UNK N   1      19.539   6.058  -1.857  0.00  0.00     0.131 C 
HETATM   42  C   UNK N   1      21.153   7.922  -1.707  0.00  0.00     0.015 C 
HETATM   43  C   UNK N   1      17.125   5.771  -2.432  0.00  0.00     0.017 C 
ENDROOT
BRANCH   7  44
HETATM   44  O   UNK N   1      23.180  19.276   4.666  0.00  0.00    -0.349 OA
BRANCH  44  45
HETATM   45  C   UNK N   1      22.201  18.898   3.716  0.00  0.00     0.291 C 
HETATM   46  C   UNK N   1      21.673  20.091   2.912  0.00  0.00     0.198 C 
HETATM   47  C   UNK N   1      20.655  19.559   1.888  0.00  0.00     0.139 C 
HETATM   48  C   UNK N   1      19.622  18.640   2.549  0.00  0.00     0.171 C 
HETATM   49  C   UNK N   1      20.366  17.616   3.409  0.00  0.00     0.151 C 
HETATM   50  O   UNK N   1      21.110  18.304   4.383  0.00  0.00    -0.351 OA
HETATM   51  C   UNK N   1      19.384  16.690   4.103  0.00  0.00     0.042 C 
BRANCH  46  52
HETATM   52  O   UNK N   1      22.720  20.728   2.244  0.00  0.00    -0.388 OA
HETATM   53  H   UNK N   1      22.819  21.328   1.489  0.00  0.00     0.210 HD
ENDBRANCH  46  52
BRANCH  47  54
HETATM   54  N   UNK N   1      19.983  20.662   1.222  0.00  0.00    -0.421 N 
HETATM   55  H   UNK N   1      20.520  21.326   0.663  0.00  0.00     0.150 HD
HETATM   56  H   UNK N   1      18.974  20.774   1.314  0.00  0.00     0.150 HD
ENDBRANCH  47  54
BRANCH  48  57
HETATM   57  O   UNK N   1      18.870  17.992   1.566  0.00  0.00    -0.391 OA
HETATM   58  H   UNK N   1      18.632  18.373   0.706  0.00  0.00     0.210 HD
ENDBRANCH  48  57
ENDBRANCH  44  45
ENDBRANCH   7  44
BRANCH   2  59
HETATM   59  C   UNK N   1      27.496  20.508   6.898  0.00  0.00     0.148 C 
HETATM   60  O   UNK N   1      27.957  21.558   6.478  0.00  0.00    -0.650 OA
BRANCH  59  61
HETATM   61  O   UNK N   1      26.719  20.519   7.998  0.00  0.00    -0.776 OA
HETATM   62  H   UNK N   1      25.886  20.177   8.262  0.00  0.00     0.167 HD
ENDBRANCH  59  61
ENDBRANCH   2  59
BRANCH   5  63
HETATM   63  O   UNK N   1      29.407  18.931   7.990  0.00  0.00    -0.394 OA
HETATM   64  H   UNK N   1      29.817  18.474   8.740  0.00  0.00     0.210 HD
ENDBRANCH   5  63
BRANCH   6  65
HETATM   65  O   UNK N   1      28.870  16.022   4.855  0.00  0.00    -0.365 OA
HETATM   66  H   UNK N   1      29.798  15.795   4.690  0.00  0.00     0.213 HD
ENDBRANCH   6  65
BRANCH  11  67
HETATM   67  O   UNK N   1      24.936  14.699   6.203  0.00  0.00    -0.395 OA
HETATM   68  H   UNK N   1      23.969  14.607   6.183  0.00  0.00     0.210 HD
ENDBRANCH  11  67
BRANCH  15  69
HETATM   69  O   UNK N   1      26.593  13.068   2.891  0.00  0.00    -0.393 OA
HETATM   70  H   UNK N   1      26.161  13.877   2.577  0.00  0.00     0.210 HD
ENDBRANCH  15  69
BRANCH  17  71
HETATM   71  O   UNK N   1      28.805  11.204   4.986  0.00  0.00    -0.393 OA
HETATM   72  H   UNK N   1      28.775  10.610   5.753  0.00  0.00     0.210 HD
ENDBRANCH  17  71
BRANCH  23  73
HETATM   73  O   UNK N   1      24.097  11.110   3.016  0.00  0.00    -0.395 OA
HETATM   74  H   UNK N   1      23.266  11.492   2.694  0.00  0.00     0.210 HD
ENDBRANCH  23  73
BRANCH  27  75
HETATM   75  O   UNK N   1      22.681  10.153   0.730  0.00  0.00    -0.395 OA
HETATM   76  H   UNK N   1      22.776  11.038   0.345  0.00  0.00     0.210 HD
ENDBRANCH  27  75
BRANCH  41  77
HETATM   77  O   UNK N   1      19.635   4.663  -1.808  0.00  0.00    -0.394 OA
HETATM   78  H   UNK N   1      19.328   4.153  -1.042  0.00  0.00     0.210 HD
ENDBRANCH  41  77
TORSDOF 15
ENDMDL
MODEL 2
REMARK VINA RESULT:      -8.4      9.250     15.008
REMARK  15 active torsions:
REMARK  status: ('A' for Active; 'I' for Inactive)
REMARK    1  A    between atoms: C_2  and  C_6 
REMARK    2  A    between atoms: C_5  and  O_10 
REMARK    3  A    between atoms: C_6  and  O_11 
REMARK    4  A    between atoms: C_7  and  O_14 
REMARK    5  A    between atoms: C_8  and  O_15 
REMARK    6  A    between atoms: O_15  and  C_18 
REMARK    7  A    between atoms: C_17  and  O_21 
REMARK    8  A    between atoms: C_22  and  O_27 
REMARK    9  A    between atoms: C_25  and  O_31 
REMARK   10  A    between atoms: C_26  and  N_33 
REMARK   11  A    between atoms: C_30  and  O_37 
REMARK   12  A    between atoms: C_32  and  O_38 
REMARK   13  A    between atoms: C_42  and  O_45 
REMARK   14  A    between atoms: C_47  and  O_50 
REMARK   15  A    between atoms: C_62  and  O_65 
ROOT
HETATM    1  C   UNK N   1      29.890  17.253   6.456  0.00  0.00     0.144 C 
HETATM    2  C   UNK N   1      28.966  18.381   6.983  0.00  0.00     0.141 C 
HETATM    3  O   UNK N   1      31.092  17.213   7.210  0.00  0.00    -0.349 OA
HETATM    4  C   UNK N   1      30.217  17.593   4.988  0.00  0.00     0.069 C 
HETATM    5  C   UNK N   1      28.785  18.347   8.518  0.00  0.00     0.140 C 
HETATM    6  C   UNK N   1      30.917  17.010   8.617  0.00  0.00     0.166 C 
HETATM    7  C   UNK N   1      31.271  16.769   4.238  0.00  0.00     0.150 C 
HETATM    8  C   UNK N   1      29.480  17.150   9.123  0.00  0.00     0.101 C 
HETATM    9  C   UNK N   1      31.323  15.605   9.046  0.00  0.00     0.100 C 
HETATM   10  C   UNK N   1      31.988  15.717   5.017  0.00  0.00     0.005 C 
HETATM   11  C   UNK N   1      32.463  14.996   8.263  0.00  0.00     0.125 C 
HETATM   12  C   UNK N   1      33.271  15.926   5.265  0.00  0.00    -0.002 C 
HETATM   13  C   UNK N   1      33.456  14.394   9.228  0.00  0.00     0.066 C 
HETATM   14  C   UNK N   1      34.148  14.793   5.470  0.00  0.00    -0.000 C 
HETATM   15  C   UNK N   1      34.445  15.434   9.743  0.00  0.00     0.149 C 
HETATM   16  C   UNK N   1      35.449  15.013   5.469  0.00  0.00     0.000 C 
HETATM   17  C   UNK N   1      35.209  14.924  10.973  0.00  0.00     0.147 C 
HETATM   18  C   UNK N   1      36.298  13.945   4.986  0.00  0.00     0.000 C 
HETATM   19  C   UNK N   1      35.609  13.445  10.864  0.00  0.00     0.036 C 
HETATM   20  C   UNK N   1      37.574  14.187   4.712  0.00  0.00     0.000 C 
HETATM   21  C   UNK N   1      37.042  13.249  10.396  0.00  0.00     0.034 C 
HETATM   22  C   UNK N   1      38.268  13.341   3.733  0.00  0.00     0.000 C 
HETATM   23  C   UNK N   1      37.270  13.832   9.015  0.00  0.00     0.120 C 
HETATM   24  C   UNK N   1      37.608  12.994   2.618  0.00  0.00     0.000 C 
HETATM   25  C   UNK N   1      38.751  14.100   8.770  0.00  0.00     0.064 C 
HETATM   26  C   UNK N   1      38.179  12.223   1.500  0.00  0.00     0.000 C 
HETATM   27  C   UNK N   1      39.560  12.939   8.198  0.00  0.00     0.130 C 
HETATM   28  C   UNK N   1      39.248  11.423   1.557  0.00  0.00     0.000 C 
HETATM   29  C   UNK N   1      39.373  11.628   8.946  0.00  0.00     0.142 C 
HETATM   30  C   UNK N   1      39.949  11.082   2.798  0.00  0.00     0.000 C 
HETATM   31  C   UNK N   1      40.447  10.688   8.528  0.00  0.00     0.261 C 
HETATM   32  C   UNK N   1      41.132  10.492   2.712  0.00  0.00    -0.000 C 
HETATM   33  O   UNK N   1      41.743  11.009   8.789  0.00  0.00    -0.316 OA
HETATM   34  O   UNK N   1      40.156   9.668   7.915  0.00  0.00    -0.265 OA
HETATM   35  C   UNK N   1      41.826  10.008   3.903  0.00  0.00    -0.004 C 
HETATM   36  C   UNK N   1      42.844  10.319   8.312  0.00  0.00     0.134 C 
HETATM   37  C   UNK N   1      43.070   9.559   3.772  0.00  0.00    -0.020 C 
HETATM   38  C   UNK N   1      42.888  10.352   6.770  0.00  0.00     0.040 C 
HETATM   39  C   UNK N   1      42.849   8.900   8.870  0.00  0.00     0.040 C 
HETATM   40  C   UNK N   1      43.828   8.899   4.886  0.00  0.00     0.033 C 
HETATM   41  C   UNK N   1      44.155   9.772   6.111  0.00  0.00     0.131 C 
HETATM   42  C   UNK N   1      42.736  11.787   6.283  0.00  0.00     0.015 C 
HETATM   43  C   UNK N   1      45.115   8.363   4.286  0.00  0.00     0.017 C 
ENDROOT
BRANCH   7  44
HETATM   44  O   UNK N   1      30.771  16.243   3.024  0.00  0.00    -0.349 OA
BRANCH  44  45
HETATM   45  C   UNK N   1      29.553  15.587   3.324  0.00  0.00     0.291 C 
HETATM   46  C   UNK N   1      29.508  14.156   2.775  0.00  0.00     0.198 C 
HETATM   47  C   UNK N   1      28.167  13.529   3.195  0.00  0.00     0.139 C 
HETATM   48  C   UNK N   1      26.988  14.450   2.864  0.00  0.00     0.171 C 
HETATM   49  C   UNK N   1      27.310  15.853   3.383  0.00  0.00     0.151 C 
HETATM   50  O   UNK N   1      28.482  16.306   2.755  0.00  0.00    -0.351 OA
HETATM   51  C   UNK N   1      26.178  16.812   3.063  0.00  0.00     0.042 C 
BRANCH  46  52
HETATM   52  O   UNK N   1      30.561  13.403   3.295  0.00  0.00    -0.388 OA
HETATM   53  H   UNK N   1      30.806  12.466   3.346  0.00  0.00     0.210 HD
ENDBRANCH  46  52
BRANCH  47  54
HETATM   54  N   UNK N   1      27.986  12.240   2.549  0.00  0.00    -0.421 N 
HETATM   55  H   UNK N   1      27.712  12.194   1.567  0.00  0.00     0.150 HD
HETATM   56  H   UNK N   1      28.132  11.381   3.077  0.00  0.00     0.150 HD
ENDBRANCH  47  54
BRANCH  48  57
HETATM   57  O   UNK N   1      25.826  13.965   3.469  0.00  0.00    -0.391 OA
HETATM   58  H   UNK N   1      25.675  13.041   3.722  0.00  0.00     0.210 HD
ENDBRANCH  48  57
ENDBRANCH  44  45
ENDBRANCH   7  44
BRANCH   2  59
HETATM   59  C   UNK N   1      27.672  18.551   6.217  0.00  0.00     0.148 C 
HETATM   60  O   UNK N   1      27.521  19.520   5.491  0.00  0.00    -0.650 OA
BRANCH  59  61
HETATM   61  O   UNK N   1      26.687  17.636   6.312  0.00  0.00    -0.776 OA
HETATM   62  H   UNK N   1      26.426  16.850   5.873  0.00  0.00     0.167 HD
ENDBRANCH  59  61
ENDBRANCH   2  59
BRANCH   5  63
HETATM   63  O   UNK N   1      27.442  18.313   8.903  0.00  0.00    -0.394 OA
HETATM   64  H   UNK N   1      26.833  19.051   9.058  0.00  0.00     0.210 HD
ENDBRANCH   5  63
BRANCH   6  65
HETATM   65  O   UNK N   1      31.718  17.936   9.288  0.00  0.00    -0.365 OA
HETATM   66  H   UNK N   1      31.998  18.320  10.133  0.00  0.00     0.213 HD
ENDBRANCH   6  65
BRANCH  11  67
HETATM   67  O   UNK N   1      31.937  13.970   7.480  0.00  0.00    -0.395 OA
HETATM   68  H   UNK N   1      31.504  13.101   7.498  0.00  0.00     0.210 HD
ENDBRANCH  11  67
BRANCH  15  69
HETATM   69  O   UNK N   1      35.318  15.817   8.723  0.00  0.00    -0.393 OA
HETATM   70  H   UNK N   1      35.689  16.677   8.474  0.00  0.00     0.210 HD
ENDBRANCH  15  69
BRANCH  17  71
HETATM   71  O   UNK N   1      34.405  15.088  12.099  0.00  0.00    -0.393 OA
HETATM   72  H   UNK N   1      34.098  14.330  12.621  0.00  0.00     0.210 HD
ENDBRANCH  17  71
BRANCH  23  73
HETATM   73  O   UNK N   1      36.690  13.041   8.019  0.00  0.00    -0.395 OA
HETATM   74  H   UNK N   1      35.818  12.646   7.866  0.00  0.00     0.210 HD
ENDBRANCH  23  73
BRANCH  27  75
HETATM   75  O   UNK N   1      39.277  12.773   6.843  0.00  0.00    -0.395 OA
HETATM   76  H   UNK N   1      39.917  12.350   6.249  0.00  0.00     0.210 HD
ENDBRANCH  27  75
BRANCH  41  77
HETATM   77  O   UNK N   1      44.908   9.016   7.015  0.00  0.00    -0.394 OA
HETATM   78  H   UNK N   1      44.927   9.217   7.963  0.00  0.00     0.210 HD
ENDBRANCH  41  77
TORSDOF 15
ENDMDL
MODEL 3
REMARK VINA RESULT:      -7.9      4.258      8.505
REMARK  15 active torsions:
REMARK  status: ('A' for Active; 'I' for Inactive)
REMARK    1  A    between atoms: C_2  and  C_6 
REMARK    2  A    between atoms: C_5  and  O_10 
REMARK    3  A    between atoms: C_6  and  O_11 
REMARK    4  A    between atoms: C_7  and  O_14 
REMARK    5  A    between atoms: C_8  and  O_15 
REMARK    6  A    between atoms: O_15  and  C_18 
REMARK    7  A    between atoms: C_17  and  O_21 
REMARK    8  A    between atoms: C_22  and  O_27 
REMARK    9  A    between atoms: C_25  and  O_31 
REMARK   10  A    between atoms: C_26  and  N_33 
REMARK   11  A    between atoms: C_30  and  O_37 
REMARK   12  A    between atoms: C_32  and  O_38 
REMARK   13  A    between atoms: C_42  and  O_45 
REMARK   14  A    between atoms: C_47  and  O_50 
REMARK   15  A    between atoms: C_62  and  O_65 
ROOT
HETATM    1  C   UNK N   1      33.006  14.895   5.946  0.00  0.00     0.144 C 
HETATM    2  C   UNK N   1      33.967  15.496   7.003  0.00  0.00     0.141 C 
HETATM    3  O   UNK N   1      31.671  15.294   6.216  0.00  0.00    -0.349 OA
HETATM    4  C   UNK N   1      33.116  13.361   6.065  0.00  0.00     0.069 C 
HETATM    5  C   UNK N   1      33.759  17.014   7.214  0.00  0.00     0.140 C 
HETATM    6  C   UNK N   1      31.456  16.710   6.242  0.00  0.00     0.166 C 
HETATM    7  C   UNK N   1      32.141  12.470   5.285  0.00  0.00     0.150 C 
HETATM    8  C   UNK N   1      32.727  17.562   6.258  0.00  0.00     0.101 C 
HETATM    9  C   UNK N   1      30.703  17.196   5.009  0.00  0.00     0.100 C 
HETATM   10  C   UNK N   1      31.072  13.159   4.503  0.00  0.00     0.005 C 
HETATM   11  C   UNK N   1      29.694  16.221   4.445  0.00  0.00     0.125 C 
HETATM   12  C   UNK N   1      29.831  13.021   4.937  0.00  0.00    -0.002 C 
HETATM   13  C   UNK N   1      28.402  16.953   4.175  0.00  0.00     0.066 C 
HETATM   14  C   UNK N   1      28.734  13.130   3.999  0.00  0.00    -0.000 C 
HETATM   15  C   UNK N   1      27.530  17.039   5.423  0.00  0.00     0.149 C 
HETATM   16  C   UNK N   1      27.538  12.748   4.403  0.00  0.00     0.000 C 
HETATM   17  C   UNK N   1      26.408  18.073   5.255  0.00  0.00     0.147 C 
HETATM   18  C   UNK N   1      26.647  12.199   3.402  0.00  0.00     0.000 C 
HETATM   19  C   UNK N   1      25.776  18.057   3.855  0.00  0.00     0.036 C 
HETATM   20  C   UNK N   1      25.545  11.561   3.776  0.00  0.00     0.000 C 
HETATM   21  C   UNK N   1      24.490  17.250   3.790  0.00  0.00     0.034 C 
HETATM   22  C   UNK N   1      24.965  10.553   2.880  0.00  0.00     0.000 C 
HETATM   23  C   UNK N   1      24.719  15.794   4.147  0.00  0.00     0.120 C 
HETATM   24  C   UNK N   1      25.800   9.714   2.249  0.00  0.00     0.000 C 
HETATM   25  C   UNK N   1      23.420  15.124   4.580  0.00  0.00     0.064 C 
HETATM   26  C   UNK N   1      25.385   8.596   1.383  0.00  0.00     0.000 C 
HETATM   27  C   UNK N   1      22.572  14.514   3.468  0.00  0.00     0.130 C 
HETATM   28  C   UNK N   1      24.204   8.468   0.771  0.00  0.00     0.000 C 
HETATM   29  C   UNK N   1      22.323  15.452   2.296  0.00  0.00     0.142 C 
HETATM   30  C   UNK N   1      23.170   9.507   0.761  0.00  0.00     0.000 C 
HETATM   31  C   UNK N   1      21.227  14.888   1.465  0.00  0.00     0.261 C 
HETATM   32  C   UNK N   1      21.956   9.184   0.344  0.00  0.00    -0.000 C 
HETATM   33  O   UNK N   1      19.990  14.745   2.012  0.00  0.00    -0.316 OA
HETATM   34  O   UNK N   1      21.462  14.518   0.321  0.00  0.00    -0.265 OA
HETATM   35  C   UNK N   1      20.914  10.196   0.185  0.00  0.00    -0.004 C 
HETATM   36  C   UNK N   1      18.929  14.084   1.417  0.00  0.00     0.134 C 
HETATM   37  C   UNK N   1      19.678   9.794  -0.093  0.00  0.00    -0.020 C 
HETATM   38  C   UNK N   1      19.269  12.596   1.183  0.00  0.00     0.040 C 
HETATM   39  C   UNK N   1      18.522  14.803   0.135  0.00  0.00     0.040 C 
HETATM   40  C   UNK N   1      18.562  10.739  -0.428  0.00  0.00     0.033 C 
HETATM   41  C   UNK N   1      18.116  11.703   0.686  0.00  0.00     0.131 C 
HETATM   42  C   UNK N   1      19.800  11.983   2.471  0.00  0.00     0.015 C 
HETATM   43  C   UNK N   1      17.383   9.890  -0.868  0.00  0.00     0.017 C 
ENDROOT
BRANCH   7  44
HETATM   44  O   UNK N   1      32.815  11.517   4.485  0.00  0.00    -0.349 OA
BRANCH  44  45
HETATM   45  C   UNK N   1      32.786  11.996   3.153  0.00  0.00     0.291 C 
HETATM   46  C   UNK N   1      32.317  10.928   2.157  0.00  0.00     0.198 C 
HETATM   47  C   UNK N   1      32.283  11.568   0.758  0.00  0.00     0.139 C 
HETATM   48  C   UNK N   1      33.592  12.300   0.443  0.00  0.00     0.171 C 
HETATM   49  C   UNK N   1      33.937  13.204   1.629  0.00  0.00     0.151 C 
HETATM   50  O   UNK N   1      34.082  12.404   2.775  0.00  0.00    -0.351 OA
HETATM   51  C   UNK N   1      35.240  13.941   1.376  0.00  0.00     0.042 C 
BRANCH  46  52
HETATM   52  O   UNK N   1      31.042  10.475   2.496  0.00  0.00    -0.388 OA
HETATM   53  H   UNK N   1      30.339   9.955   2.077  0.00  0.00     0.210 HD
ENDBRANCH  46  52
BRANCH  47  54
HETATM   54  N   UNK N   1      32.025  10.557  -0.254  0.00  0.00    -0.421 N 
HETATM   55  H   UNK N   1      31.413  10.768  -1.043  0.00  0.00     0.150 HD
HETATM   56  H   UNK N   1      32.455   9.636  -0.176  0.00  0.00     0.150 HD
ENDBRANCH  47  54
BRANCH  48  57
HETATM   57  O   UNK N   1      33.438  13.062  -0.718  0.00  0.00    -0.391 OA
HETATM   58  H   UNK N   1      34.146  13.262  -1.350  0.00  0.00     0.210 HD
ENDBRANCH  48  57
ENDBRANCH  44  45
ENDBRANCH   7  44
BRANCH   2  59
HETATM   59  C   UNK N   1      35.418  15.093   6.843  0.00  0.00     0.148 C 
HETATM   60  O   UNK N   1      36.000  14.549   7.768  0.00  0.00    -0.650 OA
BRANCH  59  61
HETATM   61  O   UNK N   1      36.072  15.312   5.687  0.00  0.00    -0.776 OA
HETATM   62  H   UNK N   1      36.565  16.004   5.289  0.00  0.00     0.167 HD
ENDBRANCH  59  61
ENDBRANCH   2  59
BRANCH   5  63
HETATM   63  O   UNK N   1      34.937  17.749   7.053  0.00  0.00    -0.394 OA
HETATM   64  H   UNK N   1      35.068  18.709   7.100  0.00  0.00     0.210 HD
ENDBRANCH   5  63
BRANCH   6  65
HETATM   65  O   UNK N   1      30.704  17.010   7.379  0.00  0.00    -0.365 OA
HETATM   66  H   UNK N   1      30.077  16.705   8.054  0.00  0.00     0.213 HD
ENDBRANCH   6  65
BRANCH  11  67
HETATM   67  O   UNK N   1      30.194  15.754   3.231  0.00  0.00    -0.395 OA
HETATM   68  H   UNK N   1      30.845  15.910   2.528  0.00  0.00     0.210 HD
ENDBRANCH  11  67
BRANCH  15  69
HETATM   69  O   UNK N   1      27.019  15.780   5.742  0.00  0.00    -0.393 OA
HETATM   70  H   UNK N   1      27.389  14.888   5.653  0.00  0.00     0.210 HD
ENDBRANCH  15  69
BRANCH  17  71
HETATM   71  O   UNK N   1      26.929  19.343   5.497  0.00  0.00    -0.393 OA
HETATM   72  H   UNK N   1      26.386  20.054   5.872  0.00  0.00     0.210 HD
ENDBRANCH  17  71
BRANCH  23  73
HETATM   73  O   UNK N   1      25.365  15.106   3.116  0.00  0.00    -0.395 OA
HETATM   74  H   UNK N   1      25.135  14.383   2.513  0.00  0.00     0.210 HD
ENDBRANCH  23  73
BRANCH  27  75
HETATM   75  O   UNK N   1      23.141  13.320   3.025  0.00  0.00    -0.395 OA
HETATM   76  H   UNK N   1      23.506  13.247   2.129  0.00  0.00     0.210 HD
ENDBRANCH  27  75
BRANCH  41  77
HETATM   77  O   UNK N   1      17.037  12.461   0.220  0.00  0.00    -0.394 OA
HETATM   78  H   UNK N   1      16.873  13.365   0.529  0.00  0.00     0.210 HD
ENDBRANCH  41  77
TORSDOF 15
ENDMDL
MODEL 4
REMARK VINA RESULT:      -7.8      5.556     10.517
REMARK  15 active torsions:
REMARK  status: ('A' for Active; 'I' for Inactive)
REMARK    1  A    between atoms: C_2  and  C_6 
REMARK    2  A    between atoms: C_5  and  O_10 
REMARK    3  A    between atoms: C_6  and  O_11 
REMARK    4  A    between atoms: C_7  and  O_14 
REMARK    5  A    between atoms: C_8  and  O_15 
REMARK    6  A    between atoms: O_15  and  C_18 
REMARK    7  A    between atoms: C_17  and  O_21 
REMARK    8  A    between atoms: C_22  and  O_27 
REMARK    9  A    between atoms: C_25  and  O_31 
REMARK   10  A    between atoms: C_26  and  N_33 
REMARK   11  A    between atoms: C_30  and  O_37 
REMARK   12  A    between atoms: C_32  and  O_38 
REMARK   13  A    between atoms: C_42  and  O_45 
REMARK   14  A    between atoms: C_47  and  O_50 
REMARK   15  A    between atoms: C_62  and  O_65 
ROOT
HETATM    1  C   UNK N   1      36.117  11.864   5.152  0.00  0.00     0.144 C 
HETATM    2  C   UNK N   1      37.404  11.087   4.771  0.00  0.00     0.141 C 
HETATM    3  O   UNK N   1      35.025  11.420   4.362  0.00  0.00    -0.349 OA
HETATM    4  C   UNK N   1      36.392  13.353   4.856  0.00  0.00     0.069 C 
HETATM    5  C   UNK N   1      37.194   9.555   4.731  0.00  0.00     0.140 C 
HETATM    6  C   UNK N   1      34.734  10.022   4.463  0.00  0.00     0.166 C 
HETATM    7  C   UNK N   1      35.243  14.366   4.945  0.00  0.00     0.150 C 
HETATM    8  C   UNK N   1      35.799   9.183   5.173  0.00  0.00     0.101 C 
HETATM    9  C   UNK N   1      33.465   9.760   5.266  0.00  0.00     0.100 C 
HETATM   10  C   UNK N   1      33.884  13.823   5.240  0.00  0.00     0.005 C 
HETATM   11  C   UNK N   1      32.391  10.816   5.137  0.00  0.00     0.125 C 
HETATM   12  C   UNK N   1      32.993  13.879   4.264  0.00  0.00    -0.002 C 
HETATM   13  C   UNK N   1      31.065  10.141   4.890  0.00  0.00     0.066 C 
HETATM   14  C   UNK N   1      31.584  13.935   4.592  0.00  0.00    -0.000 C 
HETATM   15  C   UNK N   1      30.854   9.832   3.412  0.00  0.00     0.149 C 
HETATM   16  C   UNK N   1      30.739  14.237   3.625  0.00  0.00     0.000 C 
HETATM   17  C   UNK N   1      29.700   8.842   3.202  0.00  0.00     0.147 C 
HETATM   18  C   UNK N   1      29.536  14.952   3.998  0.00  0.00     0.000 C 
HETATM   19  C   UNK N   1      28.503   9.104   4.128  0.00  0.00     0.036 C 
HETATM   20  C   UNK N   1      28.782  15.511   3.061  0.00  0.00     0.000 C 
HETATM   21  C   UNK N   1      27.398   9.907   3.460  0.00  0.00     0.034 C 
HETATM   22  C   UNK N   1      27.939  16.660   3.414  0.00  0.00     0.000 C 
HETATM   23  C   UNK N   1      27.881  11.277   3.025  0.00  0.00     0.120 C 
HETATM   24  C   UNK N   1      28.458  17.600   4.218  0.00  0.00     0.000 C 
HETATM   25  C   UNK N   1      26.980  11.856   1.939  0.00  0.00     0.064 C 
HETATM   26  C   UNK N   1      27.785  18.853   4.604  0.00  0.00     0.000 C 
HETATM   27  C   UNK N   1      25.770  12.651   2.420  0.00  0.00     0.130 C 
HETATM   28  C   UNK N   1      26.469  19.085   4.570  0.00  0.00     0.000 C 
HETATM   29  C   UNK N   1      24.939  11.935   3.475  0.00  0.00     0.142 C 
HETATM   30  C   UNK N   1      25.465  18.061   4.265  0.00  0.00     0.000 C 
HETATM   31  C   UNK N   1      23.634  12.635   3.603  0.00  0.00     0.261 C 
HETATM   32  C   UNK N   1      24.224  18.450   4.015  0.00  0.00    -0.000 C 
HETATM   33  O   UNK N   1      22.799  12.676   2.530  0.00  0.00    -0.316 OA
HETATM   34  O   UNK N   1      23.350  13.203   4.651  0.00  0.00    -0.265 OA
HETATM   35  C   UNK N   1      23.148  17.480   3.831  0.00  0.00    -0.004 C 
HETATM   36  C   UNK N   1      21.640  13.429   2.453  0.00  0.00     0.134 C 
HETATM   37  C   UNK N   1      21.957  17.921   3.438  0.00  0.00    -0.020 C 
HETATM   38  C   UNK N   1      21.953  14.936   2.579  0.00  0.00     0.040 C 
HETATM   39  C   UNK N   1      20.637  12.948   3.496  0.00  0.00     0.040 C 
HETATM   40  C   UNK N   1      20.740  17.047   3.362  0.00  0.00     0.033 C 
HETATM   41  C   UNK N   1      20.776  15.900   2.336  0.00  0.00     0.131 C 
HETATM   42  C   UNK N   1      23.061  15.312   1.605  0.00  0.00     0.015 C 
HETATM   43  C   UNK N   1      19.562  17.958   3.066  0.00  0.00     0.017 C 
ENDROOT
BRANCH   7  44
HETATM   44  O   UNK N   1      35.552  15.447   5.804  0.00  0.00    -0.349 OA
BRANCH  44  45
HETATM   45  C   UNK N   1      34.743  15.307   6.957  0.00  0.00     0.291 C 
HETATM   46  C   UNK N   1      34.015  16.606   7.323  0.00  0.00     0.198 C 
HETATM   47  C   UNK N   1      33.139  16.327   8.557  0.00  0.00     0.139 C 
HETATM   48  C   UNK N   1      33.935  15.627   9.664  0.00  0.00     0.171 C 
HETATM   49  C   UNK N   1      34.688  14.447   9.046  0.00  0.00     0.151 C 
HETATM   50  O   UNK N   1      35.551  14.938   8.052  0.00  0.00    -0.351 OA
HETATM   51  C   UNK N   1      35.510  13.729  10.101  0.00  0.00     0.042 C 
BRANCH  46  52
HETATM   52  O   UNK N   1      33.211  17.027   6.263  0.00  0.00    -0.388 OA
HETATM   53  H   UNK N   1      32.897  16.660   5.422  0.00  0.00     0.210 HD
ENDBRANCH  46  52
BRANCH  47  54
HETATM   54  N   UNK N   1      32.568  17.564   9.063  0.00  0.00    -0.421 N 
HETATM   55  H   UNK N   1      31.892  18.082   8.501  0.00  0.00     0.150 HD
HETATM   56  H   UNK N   1      32.843  17.914   9.979  0.00  0.00     0.150 HD
ENDBRANCH  47  54
BRANCH  48  57
HETATM   57  O   UNK N   1      33.063  15.177  10.659  0.00  0.00    -0.391 OA
HETATM   58  H   UNK N   1      32.113  15.020  10.537  0.00  0.00     0.210 HD
ENDBRANCH  48  57
ENDBRANCH  44  45
ENDBRANCH   7  44
BRANCH   2  59
HETATM   59  C   UNK N   1      38.648  11.516   5.518  0.00  0.00     0.148 C 
HETATM   60  O   UNK N   1      38.685  11.426   6.735  0.00  0.00    -0.650 OA
BRANCH  59  61
HETATM   61  O   UNK N   1      39.725  11.982   4.856  0.00  0.00    -0.776 OA
HETATM   62  H   UNK N   1      40.483  11.630   4.430  0.00  0.00     0.167 HD
ENDBRANCH  59  61
ENDBRANCH   2  59
BRANCH   5  63
HETATM   63  O   UNK N   1      38.106   8.864   5.533  0.00  0.00    -0.394 OA
HETATM   64  H   UNK N   1      37.990   8.023   6.002  0.00  0.00     0.210 HD
ENDBRANCH   5  63
BRANCH   6  65
HETATM   65  O   UNK N   1      34.562   9.523   3.171  0.00  0.00    -0.365 OA
HETATM   66  H   UNK N   1      34.082   9.569   2.330  0.00  0.00     0.213 HD
ENDBRANCH   6  65
BRANCH  11  67
HETATM   67  O   UNK N   1      32.317  11.493   6.353  0.00  0.00    -0.395 OA
HETATM   68  H   UNK N   1      31.760  11.677   7.126  0.00  0.00     0.210 HD
ENDBRANCH  11  67
BRANCH  15  69
HETATM   69  O   UNK N   1      30.648  11.014   2.698  0.00  0.00    -0.393 OA
HETATM   70  H   UNK N   1      31.185  11.476   2.035  0.00  0.00     0.210 HD
ENDBRANCH  15  69
BRANCH  17  71
HETATM   71  O   UNK N   1      30.171   7.551   3.433  0.00  0.00    -0.393 OA
HETATM   72  H   UNK N   1      29.762   6.777   3.016  0.00  0.00     0.210 HD
ENDBRANCH  17  71
BRANCH  23  73
HETATM   73  O   UNK N   1      28.038  12.138   4.114  0.00  0.00    -0.395 OA
HETATM   74  H   UNK N   1      28.461  12.998   4.265  0.00  0.00     0.210 HD
ENDBRANCH  23  73
BRANCH  27  75
HETATM   75  O   UNK N   1      26.167  13.906   2.881  0.00  0.00    -0.395 OA
HETATM   76  H   UNK N   1      27.103  14.163   2.878  0.00  0.00     0.210 HD
ENDBRANCH  27  75
BRANCH  41  77
HETATM   77  O   UNK N   1      19.547  15.234   2.364  0.00  0.00    -0.394 OA
HETATM   78  H   UNK N   1      19.321  14.601   3.063  0.00  0.00     0.210 HD
ENDBRANCH  41  77
TORSDOF 15
ENDMDL
MODEL 5
REMARK VINA RESULT:      -7.8      4.787     12.295
REMARK  15 active torsions:
REMARK  status: ('A' for Active; 'I' for Inactive)
REMARK    1  A    between atoms: C_2  and  C_6 
REMARK    2  A    between atoms: C_5  and  O_10 
REMARK    3  A    between atoms: C_6  and  O_11 
REMARK    4  A    between atoms: C_7  and  O_14 
REMARK    5  A    between atoms: C_8  and  O_15 
REMARK    6  A    between atoms: O_15  and  C_18 
REMARK    7  A    between atoms: C_17  and  O_21 
REMARK    8  A    between atoms: C_22  and  O_27 
REMARK    9  A    between atoms: C_25  and  O_31 
REMARK   10  A    between atoms: C_26  and  N_33 
REMARK   11  A    between atoms: C_30  and  O_37 
REMARK   12  A    between atoms: C_32  and  O_38 
REMARK   13  A    between atoms: C_42  and  O_45 
REMARK   14  A    between atoms: C_47  and  O_50 
REMARK   15  A    between atoms: C_62  and  O_65 
ROOT
HETATM    1  C   UNK N   1      22.255  15.349   2.759  0.00  0.00     0.144 C 
HETATM    2  C   UNK N   1      21.179  16.181   2.014  0.00  0.00     0.141 C 
HETATM    3  O   UNK N   1      23.393  16.154   3.032  0.00  0.00    -0.349 OA
HETATM    4  C   UNK N   1      22.657  14.195   1.818  0.00  0.00     0.069 C 
HETATM    5  C   UNK N   1      20.884  17.537   2.697  0.00  0.00     0.140 C 
HETATM    6  C   UNK N   1      23.131  17.326   3.813  0.00  0.00     0.166 C 
HETATM    7  C   UNK N   1      23.848  13.301   2.185  0.00  0.00     0.150 C 
HETATM    8  C   UNK N   1      21.653  17.677   3.989  0.00  0.00     0.101 C 
HETATM    9  C   UNK N   1      23.649  17.188   5.240  0.00  0.00     0.100 C 
HETATM   10  C   UNK N   1      24.610  13.660   3.418  0.00  0.00     0.005 C 
HETATM   11  C   UNK N   1      24.906  16.361   5.393  0.00  0.00     0.125 C 
HETATM   12  C   UNK N   1      25.840  14.117   3.249  0.00  0.00    -0.002 C 
HETATM   13  C   UNK N   1      25.878  17.103   6.276  0.00  0.00     0.066 C 
HETATM   14  C   UNK N   1      26.814  13.941   4.306  0.00  0.00    -0.000 C 
HETATM   15  C   UNK N   1      26.708  18.107   5.484  0.00  0.00     0.149 C 
HETATM   16  C   UNK N   1      28.080  14.178   4.021  0.00  0.00     0.000 C 
HETATM   17  C   UNK N   1      27.424  19.101   6.409  0.00  0.00     0.147 C 
HETATM   18  C   UNK N   1      29.073  13.403   4.735  0.00  0.00     0.000 C 
HETATM   19  C   UNK N   1      27.987  18.445   7.679  0.00  0.00     0.036 C 
HETATM   20  C   UNK N   1      30.333  13.399   4.318  0.00  0.00     0.000 C 
HETATM   21  C   UNK N   1      29.464  18.106   7.570  0.00  0.00     0.034 C 
HETATM   22  C   UNK N   1      31.187  12.247   4.634  0.00  0.00     0.000 C 
HETATM   23  C   UNK N   1      29.735  17.118   6.452  0.00  0.00     0.120 C 
HETATM   24  C   UNK N   1      30.656  11.020   4.527  0.00  0.00     0.000 C 
HETATM   25  C   UNK N   1      31.194  17.174   6.012  0.00  0.00     0.064 C 
HETATM   26  C   UNK N   1      31.390   9.758   4.725  0.00  0.00     0.000 C 
HETATM   27  C   UNK N   1      32.164  16.276   6.774  0.00  0.00     0.130 C 
HETATM   28  C   UNK N   1      32.531   9.606   5.405  0.00  0.00     0.000 C 
HETATM   29  C   UNK N   1      32.059  16.397   8.287  0.00  0.00     0.142 C 
HETATM   30  C   UNK N   1      33.165  10.672   6.186  0.00  0.00     0.000 C 
HETATM   31  C   UNK N   1      33.256  15.759   8.896  0.00  0.00     0.261 C 
HETATM   32  C   UNK N   1      34.407  10.488   6.609  0.00  0.00    -0.000 C 
HETATM   33  O   UNK N   1      34.486  16.275   8.630  0.00  0.00    -0.316 OA
HETATM   34  O   UNK N   1      33.123  14.754   9.584  0.00  0.00    -0.265 OA
HETATM   35  C   UNK N   1      35.054  11.449   7.499  0.00  0.00    -0.004 C 
HETATM   36  C   UNK N   1      35.688  15.687   8.986  0.00  0.00     0.134 C 
HETATM   37  C   UNK N   1      36.345  11.290   7.771  0.00  0.00    -0.020 C 
HETATM   38  C   UNK N   1      35.848  14.308   8.311  0.00  0.00     0.040 C 
HETATM   39  C   UNK N   1      35.800  15.615  10.506  0.00  0.00     0.040 C 
HETATM   40  C   UNK N   1      37.080  12.117   8.785  0.00  0.00     0.033 C 
HETATM   41  C   UNK N   1      37.216  13.620   8.482  0.00  0.00     0.131 C 
HETATM   42  C   UNK N   1      35.583  14.435   6.817  0.00  0.00     0.015 C 
HETATM   43  C   UNK N   1      38.459  11.502   8.939  0.00  0.00     0.017 C 
ENDROOT
BRANCH   7  44
HETATM   44  O   UNK N   1      23.502  11.929   2.189  0.00  0.00    -0.349 OA
BRANCH  44  45
HETATM   45  C   UNK N   1      23.617  11.473   3.525  0.00  0.00     0.291 C 
HETATM   46  C   UNK N   1      24.447  10.189   3.635  0.00  0.00     0.198 C 
HETATM   47  C   UNK N   1      24.541   9.813   5.125  0.00  0.00     0.139 C 
HETATM   48  C   UNK N   1      23.164   9.824   5.795  0.00  0.00     0.171 C 
HETATM   49  C   UNK N   1      22.461  11.135   5.437  0.00  0.00     0.151 C 
HETATM   50  O   UNK N   1      22.332  11.207   4.039  0.00  0.00    -0.351 OA
HETATM   51  C   UNK N   1      21.080  11.188   6.062  0.00  0.00     0.042 C 
BRANCH  46  52
HETATM   52  O   UNK N   1      25.728  10.393   3.122  0.00  0.00    -0.388 OA
HETATM   53  H   UNK N   1      26.264  11.147   2.829  0.00  0.00     0.210 HD
ENDBRANCH  46  52
BRANCH  47  54
HETATM   54  N   UNK N   1      25.158   8.506   5.279  0.00  0.00    -0.421 N 
HETATM   55  H   UNK N   1      26.171   8.425   5.367  0.00  0.00     0.150 HD
HETATM   56  H   UNK N   1      24.577   7.668   5.299  0.00  0.00     0.150 HD
ENDBRANCH  47  54
BRANCH  48  57
HETATM   57  O   UNK N   1      23.312   9.717   7.180  0.00  0.00    -0.391 OA
HETATM   58  H   UNK N   1      24.136   9.883   7.666  0.00  0.00     0.210 HD
ENDBRANCH  48  57
ENDBRANCH  44  45
ENDBRANCH   7  44
BRANCH   2  59
HETATM   59  C   UNK N   1      19.938  15.408   1.625  0.00  0.00     0.148 C 
HETATM   60  O   UNK N   1      19.617  15.329   0.450  0.00  0.00    -0.650 OA
BRANCH  59  61
HETATM   61  O   UNK N   1      19.187  14.790   2.558  0.00  0.00    -0.776 OA
HETATM   62  H   UNK N   1      18.514  15.018   3.169  0.00  0.00     0.167 HD
ENDBRANCH  59  61
ENDBRANCH   2  59
BRANCH   5  63
HETATM   63  O   UNK N   1      19.526  17.718   2.974  0.00  0.00    -0.394 OA
HETATM   64  H   UNK N   1      19.100  18.402   3.514  0.00  0.00     0.210 HD
ENDBRANCH   5  63
BRANCH   6  65
HETATM   65  O   UNK N   1      23.776  18.403   3.200  0.00  0.00    -0.365 OA
HETATM   66  H   UNK N   1      23.714  19.167   2.607  0.00  0.00     0.213 HD
ENDBRANCH   6  65
BRANCH  11  67
HETATM   67  O   UNK N   1      24.554  15.173   6.031  0.00  0.00    -0.395 OA
HETATM   68  H   UNK N   1      23.832  14.689   6.463  0.00  0.00     0.210 HD
ENDBRANCH  11  67
BRANCH  15  69
HETATM   69  O   UNK N   1      27.612  17.439   4.656  0.00  0.00    -0.393 OA
HETATM   70  H   UNK N   1      27.569  17.178   3.723  0.00  0.00     0.210 HD
ENDBRANCH  15  69
BRANCH  17  71
HETATM   71  O   UNK N   1      26.523  20.096   6.781  0.00  0.00    -0.393 OA
HETATM   72  H   UNK N   1      26.264  20.229   7.706  0.00  0.00     0.210 HD
ENDBRANCH  17  71
BRANCH  23  73
HETATM   73  O   UNK N   1      29.322  15.827   6.792  0.00  0.00    -0.395 OA
HETATM   74  H   UNK N   1      28.472  15.369   6.874  0.00  0.00     0.210 HD
ENDBRANCH  23  73
BRANCH  27  75
HETATM   75  O   UNK N   1      32.006  14.948   6.378  0.00  0.00    -0.395 OA
HETATM   76  H   UNK N   1      31.751  14.266   7.020  0.00  0.00     0.210 HD
ENDBRANCH  27  75
BRANCH  41  77
HETATM   77  O   UNK N   1      37.973  14.217   9.496  0.00  0.00    -0.394 OA
HETATM   78  H   UNK N   1      38.225  15.152   9.465  0.00  0.00     0.210 HD
ENDBRANCH  41  77
TORSDOF 15
ENDMDL
MODEL 6
REMARK VINA RESULT:      -7.8      8.736     12.226
REMARK  15 active torsions:
REMARK  status: ('A' for Active; 'I' for Inactive)
REMARK    1  A    between atoms: C_2  and  C_6 
REMARK    2  A    between atoms: C_5  and  O_10 
REMARK    3  A    between atoms: C_6  and  O_11 
REMARK    4  A    between atoms: C_7  and  O_14 
REMARK    5  A    between atoms: C_8  and  O_15 
REMARK    6  A    between atoms: O_15  and  C_18 
REMARK    7  A    between atoms: C_17  and  O_21 
REMARK    8  A    between atoms: C_22  and  O_27 
REMARK    9  A    between atoms: C_25  and  O_31 
REMARK   10  A    between atoms: C_26  and  N_33 
REMARK   11  A    between atoms: C_30  and  O_37 
REMARK   12  A    between atoms: C_32  and  O_38 
REMARK   13  A    between atoms: C_42  and  O_45 
REMARK   14  A    between atoms: C_47  and  O_50 
REMARK   15  A    between atoms: C_62  and  O_65 
ROOT
HETATM    1  C   UNK N   1      35.735  12.193  13.124  0.00  0.00     0.144 C 
HETATM    2  C   UNK N   1      36.798  12.156  14.252  0.00  0.00     0.141 C 
HETATM    3  O   UNK N   1      35.966  11.141  12.199  0.00  0.00    -0.349 OA
HETATM    4  C   UNK N   1      35.891  13.550  12.408  0.00  0.00     0.069 C 
HETATM    5  C   UNK N   1      36.971  10.751  14.874  0.00  0.00     0.140 C 
HETATM    6  C   UNK N   1      35.956   9.825  12.764  0.00  0.00     0.166 C 
HETATM    7  C   UNK N   1      35.110  13.816  11.115  0.00  0.00     0.150 C 
HETATM    8  C   UNK N   1      35.980   9.771  14.292  0.00  0.00     0.101 C 
HETATM    9  C   UNK N   1      34.697   9.053  12.388  0.00  0.00     0.100 C 
HETATM   10  C   UNK N   1      34.289  12.691  10.576  0.00  0.00     0.005 C 
HETATM   11  C   UNK N   1      34.132   9.366  11.021  0.00  0.00     0.125 C 
HETATM   12  C   UNK N   1      34.700  12.140   9.445  0.00  0.00    -0.002 C 
HETATM   13  C   UNK N   1      33.818   8.072  10.311  0.00  0.00     0.066 C 
HETATM   14  C   UNK N   1      33.736  11.498   8.577  0.00  0.00    -0.000 C 
HETATM   15  C   UNK N   1      35.045   7.501   9.608  0.00  0.00     0.149 C 
HETATM   16  C   UNK N   1      34.123  11.180   7.357  0.00  0.00     0.000 C 
HETATM   17  C   UNK N   1      34.829   6.036   9.201  0.00  0.00     0.147 C 
HETATM   18  C   UNK N   1      33.115  11.207   6.317  0.00  0.00     0.000 C 
HETATM   19  C   UNK N   1      33.416   5.760   8.665  0.00  0.00     0.036 C 
HETATM   20  C   UNK N   1      33.479  11.157   5.042  0.00  0.00     0.000 C 
HETATM   21  C   UNK N   1      33.342   5.769   7.147  0.00  0.00     0.034 C 
HETATM   22  C   UNK N   1      32.594  11.734   4.023  0.00  0.00     0.000 C 
HETATM   23  C   UNK N   1      33.737   7.116   6.571  0.00  0.00     0.120 C 
HETATM   24  C   UNK N   1      32.001  12.907   4.293  0.00  0.00     0.000 C 
HETATM   25  C   UNK N   1      34.157   6.986   5.111  0.00  0.00     0.064 C 
HETATM   26  C   UNK N   1      31.152  13.664   3.357  0.00  0.00     0.000 C 
HETATM   27  C   UNK N   1      33.040   7.091   4.076  0.00  0.00     0.130 C 
HETATM   28  C   UNK N   1      30.517  13.169   2.290  0.00  0.00     0.000 C 
HETATM   29  C   UNK N   1      31.842   6.199   4.367  0.00  0.00     0.142 C 
HETATM   30  C   UNK N   1      30.461  11.742   1.960  0.00  0.00     0.000 C 
HETATM   31  C   UNK N   1      31.001   6.126   3.143  0.00  0.00     0.261 C 
HETATM   32  C   UNK N   1      30.026  11.389   0.760  0.00  0.00    -0.000 C 
HETATM   33  O   UNK N   1      31.525   5.579   2.014  0.00  0.00    -0.316 OA
HETATM   34  O   UNK N   1      29.871   6.599   3.155  0.00  0.00    -0.265 OA
HETATM   35  C   UNK N   1      29.821   9.985   0.411  0.00  0.00    -0.004 C 
HETATM   36  C   UNK N   1      30.922   5.599   0.768  0.00  0.00     0.134 C 
HETATM   37  C   UNK N   1      29.525   9.683  -0.850  0.00  0.00    -0.020 C 
HETATM   38  C   UNK N   1      30.728   7.049   0.273  0.00  0.00     0.040 C 
HETATM   39  C   UNK N   1      29.615   4.813   0.810  0.00  0.00     0.040 C 
HETATM   40  C   UNK N   1      29.145   8.302  -1.297  0.00  0.00     0.033 C 
HETATM   41  C   UNK N   1      30.227   7.215  -1.175  0.00  0.00     0.131 C 
HETATM   42  C   UNK N   1      32.042   7.810   0.393  0.00  0.00     0.015 C 
HETATM   43  C   UNK N   1      28.699   8.415  -2.743  0.00  0.00     0.017 C 
ENDROOT
BRANCH   7  44
HETATM   44  O   UNK N   1      34.346  15.005  11.190  0.00  0.00    -0.349 OA
BRANCH  44  45
HETATM   45  C   UNK N   1      34.332  15.574   9.894  0.00  0.00     0.291 C 
HETATM   46  C   UNK N   1      34.685  17.066   9.906  0.00  0.00     0.198 C 
HETATM   47  C   UNK N   1      34.681  17.566   8.451  0.00  0.00     0.139 C 
HETATM   48  C   UNK N   1      33.402  17.149   7.717  0.00  0.00     0.171 C 
HETATM   49  C   UNK N   1      33.173  15.655   7.956  0.00  0.00     0.151 C 
HETATM   50  O   UNK N   1      33.044  15.436   9.338  0.00  0.00    -0.351 OA
HETATM   51  C   UNK N   1      31.904  15.193   7.264  0.00  0.00     0.042 C 
BRANCH  46  52
HETATM   52  O   UNK N   1      35.949  17.262  10.465  0.00  0.00    -0.388 OA
HETATM   53  H   UNK N   1      36.783  17.681  10.203  0.00  0.00     0.210 HD
ENDBRANCH  46  52
BRANCH  47  54
HETATM   54  N   UNK N   1      34.827  19.011   8.411  0.00  0.00    -0.421 N 
HETATM   55  H   UNK N   1      34.831  19.549   9.278  0.00  0.00     0.150 HD
HETATM   56  H   UNK N   1      34.924  19.489   7.516  0.00  0.00     0.150 HD
ENDBRANCH  47  54
BRANCH  48  57
HETATM   57  O   UNK N   1      33.538  17.405   6.350  0.00  0.00    -0.391 OA
HETATM   58  H   UNK N   1      33.970  16.815   5.714  0.00  0.00     0.210 HD
ENDBRANCH  48  57
ENDBRANCH  44  45
ENDBRANCH   7  44
BRANCH   2  59
HETATM   59  C   UNK N   1      36.679  13.268  15.272  0.00  0.00     0.148 C 
HETATM   60  O   UNK N   1      35.693  13.329  15.988  0.00  0.00    -0.650 OA
BRANCH  59  61
HETATM   61  O   UNK N   1      37.657  14.184  15.413  0.00  0.00    -0.776 OA
HETATM   62  H   UNK N   1      38.063  14.663  16.109  0.00  0.00     0.167 HD
ENDBRANCH  59  61
ENDBRANCH   2  59
BRANCH   5  63
HETATM   63  O   UNK N   1      36.818  10.753  16.264  0.00  0.00    -0.394 OA
HETATM   64  H   UNK N   1      36.893  10.013  16.886  0.00  0.00     0.210 HD
ENDBRANCH   5  63
BRANCH   6  65
HETATM   65  O   UNK N   1      37.070   9.139  12.275  0.00  0.00    -0.365 OA
HETATM   66  H   UNK N   1      37.999   8.889  12.396  0.00  0.00     0.213 HD
ENDBRANCH   6  65
BRANCH  11  67
HETATM   67  O   UNK N   1      32.941  10.064  11.206  0.00  0.00    -0.395 OA
HETATM   68  H   UNK N   1      32.067  10.043  11.629  0.00  0.00     0.210 HD
ENDBRANCH  11  67
BRANCH  15  69
HETATM   69  O   UNK N   1      35.381   8.291   8.507  0.00  0.00    -0.393 OA
HETATM   70  H   UNK N   1      35.886   9.115   8.429  0.00  0.00     0.210 HD
ENDBRANCH  15  69
BRANCH  17  71
HETATM   71  O   UNK N   1      35.053   5.226  10.312  0.00  0.00    -0.393 OA
HETATM   72  H   UNK N   1      34.369   4.629  10.654  0.00  0.00     0.210 HD
ENDBRANCH  17  71
BRANCH  23  73
HETATM   73  O   UNK N   1      32.736   8.072   6.764  0.00  0.00    -0.395 OA
HETATM   74  H   UNK N   1      32.709   9.029   6.915  0.00  0.00     0.210 HD
ENDBRANCH  23  73
BRANCH  27  75
HETATM   75  O   UNK N   1      32.637   8.418   3.933  0.00  0.00    -0.395 OA
HETATM   76  H   UNK N   1      31.717   8.678   4.096  0.00  0.00     0.210 HD
ENDBRANCH  27  75
BRANCH  41  77
HETATM   77  O   UNK N   1      29.721   6.016  -1.688  0.00  0.00    -0.394 OA
HETATM   78  H   UNK N   1      29.934   5.157  -1.292  0.00  0.00     0.210 HD
ENDBRANCH  41  77
TORSDOF 15
ENDMDL
MODEL 7
REMARK VINA RESULT:      -7.7      5.976      9.961
REMARK  15 active torsions:
REMARK  status: ('A' for Active; 'I' for Inactive)
REMARK    1  A    between atoms: C_2  and  C_6 
REMARK    2  A    between atoms: C_5  and  O_10 
REMARK    3  A    between atoms: C_6  and  O_11 
REMARK    4  A    between atoms: C_7  and  O_14 
REMARK    5  A    between atoms: C_8  and  O_15 
REMARK    6  A    between atoms: O_15  and  C_18 
REMARK    7  A    between atoms: C_17  and  O_21 
REMARK    8  A    between atoms: C_22  and  O_27 
REMARK    9  A    between atoms: C_25  and  O_31 
REMARK   10  A    between atoms: C_26  and  N_33 
REMARK   11  A    between atoms: C_30  and  O_37 
REMARK   12  A    between atoms: C_32  and  O_38 
REMARK   13  A    between atoms: C_42  and  O_45 
REMARK   14  A    between atoms: C_47  and  O_50 
REMARK   15  A    between atoms: C_62  and  O_65 
ROOT
HETATM    1  C   UNK N   1      36.567  13.366   5.604  0.00  0.00     0.144 C 
HETATM    2  C   UNK N   1      38.083  13.154   5.354  0.00  0.00     0.141 C 
HETATM    3  O   UNK N   1      35.813  12.795   4.546  0.00  0.00    -0.349 OA
HETATM    4  C   UNK N   1      36.330  14.889   5.638  0.00  0.00     0.069 C 
HETATM    5  C   UNK N   1      38.438  11.691   5.000  0.00  0.00     0.140 C 
HETATM    6  C   UNK N   1      36.027  11.394   4.337  0.00  0.00     0.166 C 
HETATM    7  C   UNK N   1      34.895  15.430   5.675  0.00  0.00     0.150 C 
HETATM    8  C   UNK N   1      37.223  10.798   5.083  0.00  0.00     0.101 C 
HETATM    9  C   UNK N   1      34.844  10.559   4.812  0.00  0.00     0.100 C 
HETATM   10  C   UNK N   1      33.791  14.427   5.593  0.00  0.00     0.005 C 
HETATM   11  C   UNK N   1      33.490  11.215   4.662  0.00  0.00     0.125 C 
HETATM   12  C   UNK N   1      33.069  14.423   4.486  0.00  0.00    -0.002 C 
HETATM   13  C   UNK N   1      32.533  10.228   4.040  0.00  0.00     0.066 C 
HETATM   14  C   UNK N   1      31.702  13.947   4.531  0.00  0.00    -0.000 C 
HETATM   15  C   UNK N   1      32.632  10.226   2.518  0.00  0.00     0.149 C 
HETATM   16  C   UNK N   1      30.934  14.181   3.485  0.00  0.00     0.000 C 
HETATM   17  C   UNK N   1      31.942   8.997   1.910  0.00  0.00     0.147 C 
HETATM   18  C   UNK N   1      29.519  14.364   3.733  0.00  0.00     0.000 C 
HETATM   19  C   UNK N   1      30.624   8.637   2.612  0.00  0.00     0.036 C 
HETATM   20  C   UNK N   1      28.739  14.856   2.780  0.00  0.00     0.000 C 
HETATM   21  C   UNK N   1      29.399   9.177   1.892  0.00  0.00     0.034 C 
HETATM   22  C   UNK N   1      27.506  15.558   3.157  0.00  0.00     0.000 C 
HETATM   23  C   UNK N   1      29.413  10.691   1.812  0.00  0.00     0.120 C 
HETATM   24  C   UNK N   1      27.552  16.397   4.202  0.00  0.00     0.000 C 
HETATM   25  C   UNK N   1      28.509  11.190   0.690  0.00  0.00     0.064 C 
HETATM   26  C   UNK N   1      26.434  17.241   4.663  0.00  0.00     0.000 C 
HETATM   27  C   UNK N   1      27.045  11.419   1.054  0.00  0.00     0.130 C 
HETATM   28  C   UNK N   1      25.137  17.040   4.410  0.00  0.00     0.000 C 
HETATM   29  C   UNK N   1      26.398  10.248   1.778  0.00  0.00     0.142 C 
HETATM   30  C   UNK N   1      24.610  15.851   3.734  0.00  0.00     0.000 C 
HETATM   31  C   UNK N   1      24.924  10.442   1.766  0.00  0.00     0.261 C 
HETATM   32  C   UNK N   1      23.354  15.870   3.316  0.00  0.00    -0.000 C 
HETATM   33  O   UNK N   1      24.271  10.465   0.574  0.00  0.00    -0.316 OA
HETATM   34  O   UNK N   1      24.328  10.626   2.821  0.00  0.00    -0.265 OA
HETATM   35  C   UNK N   1      22.724  14.678   2.752  0.00  0.00    -0.004 C 
HETATM   36  C   UNK N   1      22.940  10.804   0.403  0.00  0.00     0.134 C 
HETATM   37  C   UNK N   1      21.514  14.795   2.215  0.00  0.00    -0.020 C 
HETATM   38  C   UNK N   1      22.679  12.256   0.855  0.00  0.00     0.040 C 
HETATM   39  C   UNK N   1      22.051   9.795   1.124  0.00  0.00     0.040 C 
HETATM   40  C   UNK N   1      20.707  13.621   1.745  0.00  0.00     0.033 C 
HETATM   41  C   UNK N   1      21.276  12.822   0.559  0.00  0.00     0.131 C 
HETATM   42  C   UNK N   1      23.693  13.186   0.204  0.00  0.00     0.015 C 
HETATM   43  C   UNK N   1      19.329  14.149   1.387  0.00  0.00     0.017 C 
ENDROOT
BRANCH   7  44
HETATM   44  O   UNK N   1      34.689  16.318   6.757  0.00  0.00    -0.349 OA
BRANCH  44  45
HETATM   45  C   UNK N   1      34.438  15.528   7.904  0.00  0.00     0.291 C 
HETATM   46  C   UNK N   1      33.081  15.840   8.545  0.00  0.00     0.198 C 
HETATM   47  C   UNK N   1      32.897  14.899   9.749  0.00  0.00     0.139 C 
HETATM   48  C   UNK N   1      34.128  14.908  10.661  0.00  0.00     0.171 C 
HETATM   49  C   UNK N   1      35.375  14.717   9.794  0.00  0.00     0.151 C 
HETATM   50  O   UNK N   1      35.440  15.770   8.866  0.00  0.00    -0.351 OA
HETATM   51  C   UNK N   1      36.627  14.737  10.650  0.00  0.00     0.042 C 
BRANCH  46  52
HETATM   52  O   UNK N   1      32.051  15.633   7.627  0.00  0.00    -0.388 OA
HETATM   53  H   UNK N   1      31.947  15.645   6.663  0.00  0.00     0.210 HD
ENDBRANCH  46  52
BRANCH  47  54
HETATM   54  N   UNK N   1      31.715  15.271  10.507  0.00  0.00    -0.421 N 
HETATM   55  H   UNK N   1      31.422  14.710  11.307  0.00  0.00     0.150 HD
HETATM   56  H   UNK N   1      31.177  16.094  10.240  0.00  0.00     0.150 HD
ENDBRANCH  47  54
BRANCH  48  57
HETATM   57  O   UNK N   1      34.028  13.875  11.598  0.00  0.00    -0.391 OA
HETATM   58  H   UNK N   1      34.038  13.995  12.560  0.00  0.00     0.210 HD
ENDBRANCH  48  57
ENDBRANCH  44  45
ENDBRANCH   7  44
BRANCH   2  59
HETATM   59  C   UNK N   1      38.990  13.770   6.398  0.00  0.00     0.148 C 
HETATM   60  O   UNK N   1      38.942  13.373   7.551  0.00  0.00    -0.650 OA
BRANCH  59  61
HETATM   61  O   UNK N   1      39.862  14.742   6.068  0.00  0.00    -0.776 OA
HETATM   62  H   UNK N   1      39.870  15.517   5.540  0.00  0.00     0.167 HD
ENDBRANCH  59  61
ENDBRANCH   2  59
BRANCH   5  63
HETATM   63  O   UNK N   1      39.428  11.159   5.832  0.00  0.00    -0.394 OA
HETATM   64  H   UNK N   1      39.962  10.359   5.709  0.00  0.00     0.210 HD
ENDBRANCH   5  63
BRANCH   6  65
HETATM   65  O   UNK N   1      36.207  11.186   2.968  0.00  0.00    -0.365 OA
HETATM   66  H   UNK N   1      36.037  11.487   2.062  0.00  0.00     0.213 HD
ENDBRANCH   6  65
BRANCH  11  67
HETATM   67  O   UNK N   1      33.029  11.526   5.940  0.00  0.00    -0.395 OA
HETATM   68  H   UNK N   1      32.309  11.392   6.578  0.00  0.00     0.210 HD
ENDBRANCH  11  67
BRANCH  15  69
HETATM   69  O   UNK N   1      32.111  11.413   2.000  0.00  0.00    -0.393 OA
HETATM   70  H   UNK N   1      32.502  12.289   1.862  0.00  0.00     0.210 HD
ENDBRANCH  15  69
BRANCH  17  71
HETATM   71  O   UNK N   1      32.808   7.909   1.997  0.00  0.00    -0.393 OA
HETATM   72  H   UNK N   1      33.756   8.025   2.169  0.00  0.00     0.210 HD
ENDBRANCH  17  71
BRANCH  23  73
HETATM   73  O   UNK N   1      29.116  11.275   3.047  0.00  0.00    -0.395 OA
HETATM   74  H   UNK N   1      28.580  12.024   3.350  0.00  0.00     0.210 HD
ENDBRANCH  23  73
BRANCH  27  75
HETATM   75  O   UNK N   1      26.910  12.589   1.801  0.00  0.00    -0.395 OA
HETATM   76  H   UNK N   1      26.269  12.644   2.527  0.00  0.00     0.210 HD
ENDBRANCH  27  75
BRANCH  41  77
HETATM   77  O   UNK N   1      20.371  11.810   0.222  0.00  0.00    -0.394 OA
HETATM   78  H   UNK N   1      20.031  11.184   0.881  0.00  0.00     0.210 HD
ENDBRANCH  41  77
TORSDOF 15
ENDMDL
MODEL 8
REMARK VINA RESULT:      -7.7      4.687     12.438
REMARK  15 active torsions:
REMARK  status: ('A' for Active; 'I' for Inactive)
REMARK    1  A    between atoms: C_2  and  C_6 
REMARK    2  A    between atoms: C_5  and  O_10 
REMARK    3  A    between atoms: C_6  and  O_11 
REMARK    4  A    between atoms: C_7  and  O_14 
REMARK    5  A    between atoms: C_8  and  O_15 
REMARK    6  A    between atoms: O_15  and  C_18 
REMARK    7  A    between atoms: C_17  and  O_21 
REMARK    8  A    between atoms: C_22  and  O_27 
REMARK    9  A    between atoms: C_25  and  O_31 
REMARK   10  A    between atoms: C_26  and  N_33 
REMARK   11  A    between atoms: C_30  and  O_37 
REMARK   12  A    between atoms: C_32  and  O_38 
REMARK   13  A    between atoms: C_42  and  O_45 
REMARK   14  A    between atoms: C_47  and  O_50 
REMARK   15  A    between atoms: C_62  and  O_65 
ROOT
HETATM    1  C   UNK N   1      22.255  15.364   2.757  0.00  0.00     0.144 C 
HETATM    2  C   UNK N   1      21.180  16.196   2.013  0.00  0.00     0.141 C 
HETATM    3  O   UNK N   1      23.393  16.167   3.031  0.00  0.00    -0.349 OA
HETATM    4  C   UNK N   1      22.657  14.210   1.815  0.00  0.00     0.069 C 
HETATM    5  C   UNK N   1      20.885  17.552   2.697  0.00  0.00     0.140 C 
HETATM    6  C   UNK N   1      23.133  17.338   3.812  0.00  0.00     0.166 C 
HETATM    7  C   UNK N   1      23.847  13.315   2.181  0.00  0.00     0.150 C 
HETATM    8  C   UNK N   1      21.654  17.690   3.989  0.00  0.00     0.101 C 
HETATM    9  C   UNK N   1      23.650  17.199   5.240  0.00  0.00     0.100 C 
HETATM   10  C   UNK N   1      24.609  13.672   3.415  0.00  0.00     0.005 C 
HETATM   11  C   UNK N   1      24.906  16.371   5.392  0.00  0.00     0.125 C 
HETATM   12  C   UNK N   1      25.839  14.128   3.246  0.00  0.00    -0.002 C 
HETATM   13  C   UNK N   1      25.879  17.112   6.276  0.00  0.00     0.066 C 
HETATM   14  C   UNK N   1      26.813  13.951   4.302  0.00  0.00    -0.000 C 
HETATM   15  C   UNK N   1      26.710  18.116   5.484  0.00  0.00     0.149 C 
HETATM   16  C   UNK N   1      28.079  14.188   4.018  0.00  0.00     0.000 C 
HETATM   17  C   UNK N   1      27.426  19.109   6.411  0.00  0.00     0.147 C 
HETATM   18  C   UNK N   1      29.072  13.411   4.731  0.00  0.00     0.000 C 
HETATM   19  C   UNK N   1      27.988  18.451   7.681  0.00  0.00     0.036 C 
HETATM   20  C   UNK N   1      30.331  13.407   4.315  0.00  0.00     0.000 C 
HETATM   21  C   UNK N   1      29.466  18.111   7.571  0.00  0.00     0.034 C 
HETATM   22  C   UNK N   1      31.185  12.254   4.629  0.00  0.00     0.000 C 
HETATM   23  C   UNK N   1      29.736  17.124   6.451  0.00  0.00     0.120 C 
HETATM   24  C   UNK N   1      30.653  11.027   4.521  0.00  0.00     0.000 C 
HETATM   25  C   UNK N   1      31.195  17.180   6.012  0.00  0.00     0.064 C 
HETATM   26  C   UNK N   1      31.387   9.764   4.717  0.00  0.00     0.000 C 
HETATM   27  C   UNK N   1      32.164  16.280   6.773  0.00  0.00     0.130 C 
HETATM   28  C   UNK N   1      32.527   9.612   5.397  0.00  0.00     0.000 C 
HETATM   29  C   UNK N   1      32.059  16.400   8.286  0.00  0.00     0.142 C 
HETATM   30  C   UNK N   1      33.162  10.676   6.179  0.00  0.00     0.000 C 
HETATM   31  C   UNK N   1      33.256  15.760   8.894  0.00  0.00     0.261 C 
HETATM   32  C   UNK N   1      34.404  10.492   6.602  0.00  0.00    -0.000 C 
HETATM   33  O   UNK N   1      34.486  16.276   8.629  0.00  0.00    -0.316 OA
HETATM   34  O   UNK N   1      33.123  14.755   9.582  0.00  0.00    -0.265 OA
HETATM   35  C   UNK N   1      35.051  11.451   7.493  0.00  0.00    -0.004 C 
HETATM   36  C   UNK N   1      35.688  15.687   8.985  0.00  0.00     0.134 C 
HETATM   37  C   UNK N   1      36.343  11.291   7.765  0.00  0.00    -0.020 C 
HETATM   38  C   UNK N   1      35.847  14.309   8.308  0.00  0.00     0.040 C 
HETATM   39  C   UNK N   1      35.800  15.613  10.504  0.00  0.00     0.040 C 
HETATM   40  C   UNK N   1      37.078  12.117   8.780  0.00  0.00     0.033 C 
HETATM   41  C   UNK N   1      37.215  13.619   8.478  0.00  0.00     0.131 C 
HETATM   42  C   UNK N   1      35.582  14.437   6.814  0.00  0.00     0.015 C 
HETATM   43  C   UNK N   1      38.456  11.501   8.933  0.00  0.00     0.017 C 
ENDROOT
BRANCH   7  44
HETATM   44  O   UNK N   1      23.500  11.943   2.184  0.00  0.00    -0.349 OA
BRANCH  44  45
HETATM   45  C   UNK N   1      24.442  11.272   1.368  0.00  0.00     0.291 C 
HETATM   46  C   UNK N   1      23.877   9.983   0.759  0.00  0.00     0.198 C 
HETATM   47  C   UNK N   1      24.965   9.366  -0.136  0.00  0.00     0.139 C 
HETATM   48  C   UNK N   1      26.309   9.272   0.595  0.00  0.00     0.171 C 
HETATM   49  C   UNK N   1      26.604  10.629   1.239  0.00  0.00     0.151 C 
HETATM   50  O   UNK N   1      25.570  10.931   2.141  0.00  0.00    -0.351 OA
HETATM   51  C   UNK N   1      27.919  10.584   1.995  0.00  0.00     0.042 C 
BRANCH  46  52
HETATM   52  O   UNK N   1      22.744  10.263  -0.005  0.00  0.00    -0.388 OA
HETATM   53  H   UNK N   1      22.486  10.206  -0.939  0.00  0.00     0.210 HD
ENDBRANCH  46  52
BRANCH  47  54
HETATM   54  N   UNK N   1      24.557   8.048  -0.594  0.00  0.00    -0.421 N 
HETATM   55  H   UNK N   1      25.221   7.274  -0.580  0.00  0.00     0.150 HD
HETATM   56  H   UNK N   1      23.607   7.898  -0.931  0.00  0.00     0.150 HD
ENDBRANCH  47  54
BRANCH  48  57
HETATM   57  O   UNK N   1      27.317   8.938  -0.313  0.00  0.00    -0.391 OA
HETATM   58  H   UNK N   1      27.695   9.540  -0.972  0.00  0.00     0.210 HD
ENDBRANCH  48  57
ENDBRANCH  44  45
ENDBRANCH   7  44
BRANCH   2  59
HETATM   59  C   UNK N   1      19.937  15.424   1.623  0.00  0.00     0.148 C 
HETATM   60  O   UNK N   1      19.617  15.348   0.448  0.00  0.00    -0.650 OA
BRANCH  59  61
HETATM   61  O   UNK N   1      19.187  14.805   2.555  0.00  0.00    -0.776 OA
HETATM   62  H   UNK N   1      18.984  14.912   3.464  0.00  0.00     0.167 HD
ENDBRANCH  59  61
ENDBRANCH   2  59
BRANCH   5  63
HETATM   63  O   UNK N   1      19.527  17.734   2.975  0.00  0.00    -0.394 OA
HETATM   64  H   UNK N   1      18.778  17.759   2.360  0.00  0.00     0.210 HD
ENDBRANCH   5  63
BRANCH   6  65
HETATM   65  O   UNK N   1      23.777  18.416   3.201  0.00  0.00    -0.365 OA
HETATM   66  H   UNK N   1      23.704  19.288   2.785  0.00  0.00     0.213 HD
ENDBRANCH   6  65
BRANCH  11  67
HETATM   67  O   UNK N   1      24.553  15.183   6.029  0.00  0.00    -0.395 OA
HETATM   68  H   UNK N   1      24.609  14.681   6.858  0.00  0.00     0.210 HD
ENDBRANCH  11  67
BRANCH  15  69
HETATM   69  O   UNK N   1      27.613  17.448   4.656  0.00  0.00    -0.393 OA
HETATM   70  H   UNK N   1      27.497  16.738   4.006  0.00  0.00     0.210 HD
ENDBRANCH  15  69
BRANCH  17  71
HETATM   71  O   UNK N   1      26.526  20.104   6.784  0.00  0.00    -0.393 OA
HETATM   72  H   UNK N   1      25.590  19.908   6.949  0.00  0.00     0.210 HD
ENDBRANCH  17  71
BRANCH  23  73
HETATM   73  O   UNK N   1      29.322  15.833   6.791  0.00  0.00    -0.395 OA
HETATM   74  H   UNK N   1      29.624  15.145   7.404  0.00  0.00     0.210 HD
ENDBRANCH  23  73
BRANCH  27  75
HETATM   75  O   UNK N   1      32.005  14.953   6.376  0.00  0.00    -0.395 OA
HETATM   76  H   UNK N   1      31.121  14.568   6.271  0.00  0.00     0.210 HD
ENDBRANCH  27  75
BRANCH  41  77
HETATM   77  O   UNK N   1      37.972  14.215   9.493  0.00  0.00    -0.394 OA
HETATM   78  H   UNK N   1      37.712  15.054   9.903  0.00  0.00     0.210 HD
ENDBRANCH  41  77
TORSDOF 15
ENDMDL
MODEL 9
REMARK VINA RESULT:      -7.6      4.963     11.647
REMARK  15 active torsions:
REMARK  status: ('A' for Active; 'I' for Inactive)
REMARK    1  A    between atoms: C_2  and  C_6 
REMARK    2  A    between atoms: C_5  and  O_10 
REMARK    3  A    between atoms: C_6  and  O_11 
REMARK    4  A    between atoms: C_7  and  O_14 
REMARK    5  A    between atoms: C_8  and  O_15 
REMARK    6  A    between atoms: O_15  and  C_18 
REMARK    7  A    between atoms: C_17  and  O_21 
REMARK    8  A    between atoms: C_22  and  O_27 
REMARK    9  A    between atoms: C_25  and  O_31 
REMARK   10  A    between atoms: C_26  and  N_33 
REMARK   11  A    between atoms: C_30  and  O_37 
REMARK   12  A    between atoms: C_32  and  O_38 
REMARK   13  A    between atoms: C_42  and  O_45 
REMARK   14  A    between atoms: C_47  and  O_50 
REMARK   15  A    between atoms: C_62  and  O_65 
ROOT
HETATM    1  C   UNK N   1      22.398  15.384   2.670  0.00  0.00     0.144 C 
HETATM    2  C   UNK N   1      21.242  16.364   2.341  0.00  0.00     0.141 C 
HETATM    3  O   UNK N   1      23.570  16.108   3.013  0.00  0.00    -0.349 OA
HETATM    4  C   UNK N   1      22.660  14.560   1.393  0.00  0.00     0.069 C 
HETATM    5  C   UNK N   1      21.054  17.459   3.417  0.00  0.00     0.140 C 
HETATM    6  C   UNK N   1      23.427  17.000   4.124  0.00  0.00     0.166 C 
HETATM    7  C   UNK N   1      23.879  13.631   1.329  0.00  0.00     0.150 C 
HETATM    8  C   UNK N   1      21.988  17.244   4.584  0.00  0.00     0.101 C 
HETATM    9  C   UNK N   1      24.127  16.473   5.372  0.00  0.00     0.100 C 
HETATM   10  C   UNK N   1      24.801  13.644   2.504  0.00  0.00     0.005 C 
HETATM   11  C   UNK N   1      25.384  15.672   5.116  0.00  0.00     0.125 C 
HETATM   12  C   UNK N   1      26.002  14.164   2.316  0.00  0.00    -0.002 C 
HETATM   13  C   UNK N   1      26.472  16.158   6.042  0.00  0.00     0.066 C 
HETATM   14  C   UNK N   1      27.106  13.720   3.142  0.00  0.00    -0.000 C 
HETATM   15  C   UNK N   1      27.201  17.370   5.471  0.00  0.00     0.149 C 
HETATM   16  C   UNK N   1      28.325  14.064   2.776  0.00  0.00     0.000 C 
HETATM   17  C   UNK N   1      28.043  18.076   6.543  0.00  0.00     0.147 C 
HETATM   18  C   UNK N   1      29.396  13.144   3.101  0.00  0.00     0.000 C 
HETATM   19  C   UNK N   1      28.762  17.099   7.486  0.00  0.00     0.036 C 
HETATM   20  C   UNK N   1      30.589  13.295   2.542  0.00  0.00     0.000 C 
HETATM   21  C   UNK N   1      30.208  16.847   7.094  0.00  0.00     0.034 C 
HETATM   22  C   UNK N   1      31.465  12.126   2.400  0.00  0.00     0.000 C 
HETATM   23  C   UNK N   1      30.319  16.229   5.713  0.00  0.00     0.120 C 
HETATM   24  C   UNK N   1      30.912  10.966   2.013  0.00  0.00     0.000 C 
HETATM   25  C   UNK N   1      31.707  16.450   5.123  0.00  0.00     0.064 C 
HETATM   26  C   UNK N   1      31.652   9.721   1.743  0.00  0.00     0.000 C 
HETATM   27  C   UNK N   1      32.759  15.398   5.462  0.00  0.00     0.130 C 
HETATM   28  C   UNK N   1      32.871   9.413   2.197  0.00  0.00     0.000 C 
HETATM   29  C   UNK N   1      32.856  15.078   6.946  0.00  0.00     0.142 C 
HETATM   30  C   UNK N   1      33.615  10.228   3.162  0.00  0.00     0.000 C 
HETATM   31  C   UNK N   1      34.116  14.326   7.185  0.00  0.00     0.261 C 
HETATM   32  C   UNK N   1      34.899   9.966   3.350  0.00  0.00    -0.000 C 
HETATM   33  O   UNK N   1      35.306  14.930   6.922  0.00  0.00    -0.316 OA
HETATM   34  O   UNK N   1      34.066  13.163   7.567  0.00  0.00    -0.265 OA
HETATM   35  C   UNK N   1      35.668  10.649   4.387  0.00  0.00    -0.004 C 
HETATM   36  C   UNK N   1      36.538  14.299   6.936  0.00  0.00     0.134 C 
HETATM   37  C   UNK N   1      36.983  10.454   4.432  0.00  0.00    -0.020 C 
HETATM   38  C   UNK N   1      36.593  13.176   5.878  0.00  0.00     0.040 C 
HETATM   39  C   UNK N   1      36.850  13.798   8.342  0.00  0.00     0.040 C 
HETATM   40  C   UNK N   1      37.853  10.977   5.537  0.00  0.00     0.033 C 
HETATM   41  C   UNK N   1      37.964  12.506   5.664  0.00  0.00     0.131 C 
HETATM   42  C   UNK N   1      36.135  13.719   4.531  0.00  0.00     0.015 C 
HETATM   43  C   UNK N   1      39.234  10.382   5.328  0.00  0.00     0.017 C 
ENDROOT
BRANCH   7  44
HETATM   44  O   UNK N   1      23.522  12.307   0.983  0.00  0.00    -0.349 OA
BRANCH  44  45
HETATM   45  C   UNK N   1      22.279  12.034   1.605  0.00  0.00     0.291 C 
HETATM   46  C   UNK N   1      22.312  10.750   2.441  0.00  0.00     0.198 C 
HETATM   47  C   UNK N   1      20.932  10.578   3.099  0.00  0.00     0.139 C 
HETATM   48  C   UNK N   1      19.800  10.726   2.078  0.00  0.00     0.171 C 
HETATM   49  C   UNK N   1      20.046  12.000   1.265  0.00  0.00     0.151 C 
HETATM   50  O   UNK N   1      21.286  11.885   0.615  0.00  0.00    -0.351 OA
HETATM   51  C   UNK N   1      18.959  12.184   0.222  0.00  0.00     0.042 C 
BRANCH  46  52
HETATM   52  O   UNK N   1      23.294  10.838   3.428  0.00  0.00    -0.388 OA
HETATM   53  H   UNK N   1      23.326  10.858   4.398  0.00  0.00     0.210 HD
ENDBRANCH  46  52
BRANCH  47  54
HETATM   54  N   UNK N   1      20.841   9.284   3.755  0.00  0.00    -0.421 N 
HETATM   55  H   UNK N   1      21.626   8.933   4.304  0.00  0.00     0.150 HD
HETATM   56  H   UNK N   1      19.993   8.726   3.666  0.00  0.00     0.150 HD
ENDBRANCH  47  54
BRANCH  48  57
HETATM   57  O   UNK N   1      18.573  10.805   2.742  0.00  0.00    -0.391 OA
HETATM   58  H   UNK N   1      18.424  10.555   3.667  0.00  0.00     0.210 HD
ENDBRANCH  48  57
ENDBRANCH  44  45
ENDBRANCH   7  44
BRANCH   2  59
HETATM   59  C   UNK N   1      19.951  15.700   1.910  0.00  0.00     0.148 C 
HETATM   60  O   UNK N   1      19.550  15.843   0.766  0.00  0.00    -0.650 OA
BRANCH  59  61
HETATM   61  O   UNK N   1      19.245  14.940   2.769  0.00  0.00    -0.776 OA
HETATM   62  H   UNK N   1      19.419  14.331   3.461  0.00  0.00     0.167 HD
ENDBRANCH  59  61
ENDBRANCH   2  59
BRANCH   5  63
HETATM   63  O   UNK N   1      19.746  17.515   3.909  0.00  0.00    -0.394 OA
HETATM   64  H   UNK N   1      19.428  17.867   4.754  0.00  0.00     0.210 HD
ENDBRANCH   5  63
BRANCH   6  65
HETATM   65  O   UNK N   1      23.995  18.225   3.770  0.00  0.00    -0.365 OA
HETATM   66  H   UNK N   1      23.876  19.177   3.635  0.00  0.00     0.213 HD
ENDBRANCH   6  65
BRANCH  11  67
HETATM   67  O   UNK N   1      25.106  14.343   5.426  0.00  0.00    -0.395 OA
HETATM   68  H   UNK N   1      24.469  13.742   5.845  0.00  0.00     0.210 HD
ENDBRANCH  11  67
BRANCH  15  69
HETATM   69  O   UNK N   1      27.980  16.992   4.377  0.00  0.00    -0.393 OA
HETATM   70  H   UNK N   1      28.075  16.149   3.907  0.00  0.00     0.210 HD
ENDBRANCH  15  69
BRANCH  17  71
HETATM   71  O   UNK N   1      27.210  18.897   7.298  0.00  0.00    -0.393 OA
HETATM   72  H   UNK N   1      26.302  18.636   7.521  0.00  0.00     0.210 HD
ENDBRANCH  17  71
BRANCH  23  73
HETATM   73  O   UNK N   1      29.940  14.884   5.719  0.00  0.00    -0.395 OA
HETATM   74  H   UNK N   1      30.342  14.048   5.436  0.00  0.00     0.210 HD
ENDBRANCH  23  73
BRANCH  27  75
HETATM   75  O   UNK N   1      32.536  14.235   4.725  0.00  0.00    -0.395 OA
HETATM   76  H   UNK N   1      32.309  14.280   3.783  0.00  0.00     0.210 HD
ENDBRANCH  27  75
BRANCH  41  77
HETATM   77  O   UNK N   1      38.855  12.809   6.700  0.00  0.00    -0.394 OA
HETATM   78  H   UNK N   1      38.660  13.488   7.363  0.00  0.00     0.210 HD
ENDBRANCH  41  77
TORSDOF 15
ENDMDL
