MODEL 1
REMARK VINA RESULT:      -8.4      0.000      0.000
REMARK  7 active torsions:
REMARK  status: ('A' for Active; 'I' for Inactive)
REMARK    1  A    between atoms: C_1  and  O_14 
REMARK    2  A    between atoms: C_4  and  O_3 
REMARK    3  A    between atoms: C_18  and  O_19 
REMARK    4  A    between atoms: O_19  and  C_34 
REMARK    5  A    between atoms: C_23  and  O_31 
REMARK    6  A    between atoms: C_27  and  O_32 
REMARK    7  A    between atoms: C_37  and  O_38 
ROOT
HETATM    1  C   UNK N   1      27.645  18.373   5.258  0.00  0.00     0.130 C 
HETATM    2  C   UNK N   1      27.893  17.601   6.584  0.00  0.00     0.041 C 
HETATM    3  C   UNK N   1      25.217  18.620   4.060  0.00  0.00     0.131 C 
HETATM    4  C   UNK N   1      26.221  18.971   5.174  0.00  0.00     0.040 C 
HETATM    5  C   UNK N   1      23.208  17.268   3.425  0.00  0.00    -0.020 C 
HETATM    6  C   UNK N   1      24.020  17.797   4.576  0.00  0.00     0.033 C 
HETATM    7  C   UNK N   1      23.162  14.063   2.954  0.00  0.00     0.251 C 
HETATM    8  C   UNK N   1      22.080  14.673   2.121  0.00  0.00     0.006 C 
HETATM    9  C   UNK N   1      21.525  15.867   2.426  0.00  0.00     0.012 C 
HETATM   10  C   UNK N   1      22.020  16.665   3.563  0.00  0.00    -0.003 C 
HETATM   11  C   UNK N   1      23.166  18.606   5.536  0.00  0.00     0.017 C 
HETATM   12  C   UNK N   1      25.875  20.147   6.069  0.00  0.00     0.015 C 
HETATM   13  C   UNK N   1      21.720  14.044   0.814  0.00  0.00     0.054 C 
HETATM   14  O   UNK N   1      23.341  14.420   4.110  0.00  0.00    -0.268 OA
HETATM   15  N   UNK N   1      24.001  13.171   2.381  0.00  0.00    -0.319 N 
HETATM   16  C   UNK N   1      29.330  17.058   6.901  0.00  0.00     0.144 C 
HETATM   17  C   UNK N   1      30.226  16.513   5.765  0.00  0.00     0.044 C 
HETATM   18  C   UNK N   1      25.381  12.997   2.706  0.00  0.00     0.099 C 
HETATM   19  C   UNK N   1      26.050  11.864   2.261  0.00  0.00     0.098 A 
HETATM   20  C   UNK N   1      26.174  14.076   3.161  0.00  0.00     0.108 C 
HETATM   21  C   UNK N   1      27.589  13.995   3.083  0.00  0.00     0.047 C 
HETATM   22  C   UNK N   1      28.236  12.758   2.764  0.00  0.00     0.026 C 
HETATM   23  C   UNK N   1      27.415  11.697   2.357  0.00  0.00     0.076 A 
HETATM   24  C   UNK N   1      28.367  15.180   3.155  0.00  0.00     0.088 C 
HETATM   25  C   UNK N   1      29.722  15.140   2.859  0.00  0.00     0.007 C 
HETATM   26  C   UNK N   1      30.329  13.927   2.721  0.00  0.00     0.096 C 
HETATM   27  C   UNK N   1      29.648  12.753   2.736  0.00  0.00     0.063 C 
HETATM   28  C   UNK N   1      26.908  16.449   6.673  0.00  0.00     0.015 C 
HETATM   29  C   UNK N   1      31.303  15.463   6.230  0.00  0.00     0.151 C 
HETATM   30  C   UNK N   1      31.894  14.567   5.135  0.00  0.00     0.029 C 
HETATM   31  C   UNK N   1      30.887  17.707   5.083  0.00  0.00     0.015 C 
HETATM   32  C   UNK N   1      32.056  13.219   5.242  0.00  0.00     0.137 C 
HETATM   33  O   UNK N   1      32.495  12.416   4.196  0.00  0.00    -0.319 OA
HETATM   34  O   UNK N   1      31.655  13.772   2.609  0.00  0.00    -0.305 OA
HETATM   35  C   UNK N   1      32.017  12.472   2.877  0.00  0.00     0.237 C 
HETATM   36  C   UNK N   1      30.682  11.747   2.721  0.00  0.00     0.225 C 
HETATM   37  C   UNK N   1      33.045  11.989   1.869  0.00  0.00     0.089 C 
HETATM   38  C   UNK N   1      30.520  16.379   2.688  0.00  0.00     0.054 C 
HETATM   39  N   UNK N   1      27.783  10.566   1.709  0.00  0.00    -0.339 N 
ATOM     40  HN  UNK N   1      28.714  10.156   1.632  1.00  0.00     0.167 HD
HETATM   41  C   UNK N   1      26.612  10.104   1.184  0.00  0.00     0.113 A 
HETATM   42  N   UNK N   1      25.559  10.867   1.529  0.00  0.00    -0.304 N 
HETATM   43  O   UNK N   1      30.511  10.541   2.806  0.00  0.00    -0.286 OA
HETATM   44  C   UNK N   1      26.474   9.085   0.247  0.00  0.00     0.056 A 
HETATM   45  C   UNK N   1      25.194   8.884  -0.313  0.00  0.00    -0.057 A 
HETATM   46  C   UNK N   1      24.103   9.675   0.095  0.00  0.00     0.024 A 
HETATM   47  C   UNK N   1      24.304  10.683   1.038  0.00  0.00     0.099 A 
HETATM   48  C   UNK N   1      24.998   7.878  -1.385  0.00  0.00     0.048 C 
HETATM   49  H   UNK N   1      23.628  12.590   1.679  0.00  0.00     0.169 HD
ENDROOT
BRANCH  16  50
HETATM   50  O   UNK N   1      30.072  17.802   7.806  0.00  0.00    -0.315 OA
BRANCH  50  51
HETATM   51  C   UNK N   1      29.732  18.033   9.098  0.00  0.00     0.255 C 
HETATM   52  C   UNK N   1      28.938  17.013   9.834  0.00  0.00     0.126 C 
HETATM   53  O   UNK N   1      30.062  19.063   9.664  0.00  0.00    -0.266 OA
ENDBRANCH  50  51
ENDBRANCH  16  50
BRANCH   1  54
HETATM   54  O   UNK N   1      28.578  19.388   5.045  0.00  0.00    -0.395 OA
HETATM   55  H   UNK N   1      29.365  19.490   4.488  0.00  0.00     0.210 HD
ENDBRANCH   1  54
BRANCH  29  56
HETATM   56  O   UNK N   1      32.267  15.978   7.131  0.00  0.00    -0.386 OA
HETATM   57  C   UNK N   1      32.312  15.180   8.289  0.00  0.00     0.202 C 
ENDBRANCH  29  56
BRANCH   3  58
HETATM   58  O   UNK N   1      25.849  17.985   2.991  0.00  0.00    -0.394 OA
HETATM   59  H   UNK N   1      26.079  18.344   2.119  0.00  0.00     0.210 HD
ENDBRANCH   3  58
BRANCH  24  60
HETATM   60  O   UNK N   1      27.804  16.367   3.386  0.00  0.00    -0.359 OA
HETATM   61  H   UNK N   1      28.287  17.165   3.297  0.00  0.00     0.217 HD
ENDBRANCH  24  60
BRANCH  20  62
HETATM   62  O   UNK N   1      25.599  15.237   3.507  0.00  0.00    -0.357 OA
HETATM   63  H   UNK N   1      25.650  15.549   4.389  0.00  0.00     0.217 HD
ENDBRANCH  20  62
TORSDOF 7
ENDMDL
MODEL 2
REMARK VINA RESULT:      -8.4      2.579      7.790
REMARK  7 active torsions:
REMARK  status: ('A' for Active; 'I' for Inactive)
REMARK    1  A    between atoms: C_1  and  O_14 
REMARK    2  A    between atoms: C_4  and  O_3 
REMARK    3  A    between atoms: C_18  and  O_19 
REMARK    4  A    between atoms: O_19  and  C_34 
REMARK    5  A    between atoms: C_23  and  O_31 
REMARK    6  A    between atoms: C_27  and  O_32 
REMARK    7  A    between atoms: C_37  and  O_38 
ROOT
HETATM    1  C   UNK N   1      28.954  10.142   1.783  0.00  0.00     0.130 C 
HETATM    2  C   UNK N   1      29.665  10.702   0.519  0.00  0.00     0.041 C 
HETATM    3  C   UNK N   1      26.289  10.369   2.269  0.00  0.00     0.131 C 
HETATM    4  C   UNK N   1      27.482   9.752   1.514  0.00  0.00     0.040 C 
HETATM    5  C   UNK N   1      24.430  12.043   2.199  0.00  0.00    -0.020 C 
HETATM    6  C   UNK N   1      25.420  11.272   1.371  0.00  0.00     0.033 C 
HETATM    7  C   UNK N   1      24.778  15.260   2.365  0.00  0.00     0.251 C 
HETATM    8  C   UNK N   1      23.430  14.908   2.910  0.00  0.00     0.006 C 
HETATM    9  C   UNK N   1      22.790  13.768   2.564  0.00  0.00     0.012 C 
HETATM   10  C   UNK N   1      23.433  12.776   1.683  0.00  0.00    -0.003 C 
HETATM   11  C   UNK N   1      24.731  10.468   0.282  0.00  0.00     0.017 C 
HETATM   12  C   UNK N   1      27.200   8.529   0.661  0.00  0.00     0.015 C 
HETATM   13  C   UNK N   1      22.844  15.737   4.006  0.00  0.00     0.054 C 
HETATM   14  O   UNK N   1      25.196  14.740   1.341  0.00  0.00    -0.268 OA
HETATM   15  N   UNK N   1      25.567  16.098   3.073  0.00  0.00    -0.319 N 
HETATM   16  C   UNK N   1      31.203  11.007   0.572  0.00  0.00     0.144 C 
HETATM   17  C   UNK N   1      31.843  11.567   1.864  0.00  0.00     0.044 C 
HETATM   18  C   UNK N   1      26.994  16.047   3.134  0.00  0.00     0.099 C 
HETATM   19  C   UNK N   1      27.695  17.129   3.652  0.00  0.00     0.098 A 
HETATM   20  C   UNK N   1      27.694  14.824   3.013  0.00  0.00     0.108 C 
HETATM   21  C   UNK N   1      29.032  14.727   3.477  0.00  0.00     0.047 C 
HETATM   22  C   UNK N   1      29.762  15.898   3.859  0.00  0.00     0.026 C 
HETATM   23  C   UNK N   1      29.046  17.101   3.928  0.00  0.00     0.076 A 
HETATM   24  C   UNK N   1      29.600  13.450   3.726  0.00  0.00     0.088 C 
HETATM   25  C   UNK N   1      30.816  13.348   4.385  0.00  0.00     0.007 C 
HETATM   26  C   UNK N   1      31.553  14.478   4.585  0.00  0.00     0.096 C 
HETATM   27  C   UNK N   1      31.098  15.721   4.281  0.00  0.00     0.063 C 
HETATM   28  C   UNK N   1      28.938  11.954   0.060  0.00  0.00     0.015 C 
HETATM   29  C   UNK N   1      33.159  12.399   1.632  0.00  0.00     0.151 C 
HETATM   30  C   UNK N   1      33.576  13.340   2.769  0.00  0.00     0.029 C 
HETATM   31  C   UNK N   1      32.098  10.391   2.802  0.00  0.00     0.015 C 
HETATM   32  C   UNK N   1      33.975  14.630   2.599  0.00  0.00     0.137 C 
HETATM   33  O   UNK N   1      34.245  15.494   3.654  0.00  0.00    -0.319 OA
HETATM   34  O   UNK N   1      32.809  14.470   5.050  0.00  0.00    -0.305 OA
HETATM   35  C   UNK N   1      33.434  15.667   4.786  0.00  0.00     0.237 C 
HETATM   36  C   UNK N   1      32.240  16.575   4.500  0.00  0.00     0.225 C 
HETATM   37  C   UNK N   1      34.222  16.132   5.997  0.00  0.00     0.089 C 
HETATM   38  C   UNK N   1      31.330  12.046   4.878  0.00  0.00     0.054 C 
HETATM   39  N   UNK N   1      29.406  18.246   4.556  0.00  0.00    -0.339 N 
ATOM     40  HN  UNK N   1      30.337  18.535   4.856  1.00  0.00     0.167 HD
HETATM   41  C   UNK N   1      28.228  18.920   4.690  0.00  0.00     0.113 A 
HETATM   42  N   UNK N   1      27.195  18.265   4.131  0.00  0.00    -0.304 N 
HETATM   43  O   UNK N   1      32.294  17.773   4.269  0.00  0.00    -0.286 OA
HETATM   44  C   UNK N   1      28.014  20.058   5.462  0.00  0.00     0.056 A 
HETATM   45  C   UNK N   1      26.681  20.494   5.621  0.00  0.00    -0.057 A 
HETATM   46  C   UNK N   1      25.624  19.809   4.993  0.00  0.00     0.024 A 
HETATM   47  C   UNK N   1      25.902  18.673   4.233  0.00  0.00     0.099 A 
HETATM   48  C   UNK N   1      26.373  21.644   6.507  0.00  0.00     0.048 C 
HETATM   49  H   UNK N   1      25.121  16.806   3.591  0.00  0.00     0.169 HD
ENDROOT
BRANCH  16  50
HETATM   50  O   UNK N   1      32.028  10.064  -0.022  0.00  0.00    -0.315 OA
BRANCH  50  51
HETATM   51  C   UNK N   1      32.126   9.836  -1.355  0.00  0.00     0.255 C 
HETATM   52  C   UNK N   1      32.088  10.988  -2.295  0.00  0.00     0.126 C 
HETATM   53  O   UNK N   1      32.241   8.703  -1.795  0.00  0.00    -0.266 OA
ENDBRANCH  50  51
ENDBRANCH  16  50
BRANCH   1  54
HETATM   54  O   UNK N   1      29.622   9.048   2.333  0.00  0.00    -0.395 OA
HETATM   55  H   UNK N   1      30.450   8.924   2.822  0.00  0.00     0.210 HD
ENDBRANCH   1  54
BRANCH  29  56
HETATM   56  O   UNK N   1      34.231  11.652   1.084  0.00  0.00    -0.386 OA
HETATM   57  C   UNK N   1      34.743  12.314  -0.047  0.00  0.00     0.202 C 
ENDBRANCH  29  56
BRANCH   3  58
HETATM   58  O   UNK N   1      26.710  11.044   3.415  0.00  0.00    -0.394 OA
HETATM   59  H   UNK N   1      26.210  11.245   4.222  0.00  0.00     0.210 HD
ENDBRANCH   3  58
BRANCH  24  60
HETATM   60  O   UNK N   1      28.934  12.328   3.448  0.00  0.00    -0.359 OA
HETATM   61  H   UNK N   1      28.016  12.336   3.263  0.00  0.00     0.217 HD
ENDBRANCH  24  60
BRANCH  20  62
HETATM   62  O   UNK N   1      27.052  13.715   2.619  0.00  0.00    -0.357 OA
HETATM   63  H   UNK N   1      27.306  13.271   1.834  0.00  0.00     0.217 HD
ENDBRANCH  20  62
TORSDOF 7
ENDMDL
MODEL 3
REMARK VINA RESULT:      -8.1      2.998      8.073
REMARK  7 active torsions:
REMARK  status: ('A' for Active; 'I' for Inactive)
REMARK    1  A    between atoms: C_1  and  O_14 
REMARK    2  A    between atoms: C_4  and  O_3 
REMARK    3  A    between atoms: C_18  and  O_19 
REMARK    4  A    between atoms: O_19  and  C_34 
REMARK    5  A    between atoms: C_23  and  O_31 
REMARK    6  A    between atoms: C_27  and  O_32 
REMARK    7  A    between atoms: C_37  and  O_38 
ROOT
HETATM    1  C   UNK N   1      23.285  10.611   2.402  0.00  0.00     0.130 C 
HETATM    2  C   UNK N   1      23.701  10.840   0.921  0.00  0.00     0.041 C 
HETATM    3  C   UNK N   1      21.319  11.993   3.672  0.00  0.00     0.131 C 
HETATM    4  C   UNK N   1      21.795  10.935   2.659  0.00  0.00     0.040 C 
HETATM    5  C   UNK N   1      20.469  14.325   3.994  0.00  0.00    -0.020 C 
HETATM    6  C   UNK N   1      20.684  13.223   2.993  0.00  0.00     0.033 C 
HETATM    7  C   UNK N   1      22.214  17.034   3.661  0.00  0.00     0.251 C 
HETATM    8  C   UNK N   1      21.117  17.304   4.640  0.00  0.00     0.006 C 
HETATM    9  C   UNK N   1      19.971  16.587   4.651  0.00  0.00     0.012 C 
HETATM   10  C   UNK N   1      19.781  15.446   3.735  0.00  0.00    -0.003 C 
HETATM   11  C   UNK N   1      19.395  12.856   2.280  0.00  0.00     0.017 C 
HETATM   12  C   UNK N   1      20.742  10.002   2.089  0.00  0.00     0.015 C 
HETATM   13  C   UNK N   1      21.354  18.266   5.759  0.00  0.00     0.054 C 
HETATM   14  O   UNK N   1      21.996  16.421   2.626  0.00  0.00    -0.268 OA
HETATM   15  N   UNK N   1      23.476  17.400   3.980  0.00  0.00    -0.319 N 
HETATM   16  C   UNK N   1      25.137  10.420   0.451  0.00  0.00     0.144 C 
HETATM   17  C   UNK N   1      26.348  10.583   1.400  0.00  0.00     0.044 C 
HETATM   18  C   UNK N   1      24.667  16.711   3.594  0.00  0.00     0.099 C 
HETATM   19  C   UNK N   1      25.897  17.343   3.732  0.00  0.00     0.098 A 
HETATM   20  C   UNK N   1      24.680  15.310   3.404  0.00  0.00     0.108 C 
HETATM   21  C   UNK N   1      25.911  14.605   3.430  0.00  0.00     0.047 C 
HETATM   22  C   UNK N   1      27.159  15.307   3.422  0.00  0.00     0.026 C 
HETATM   23  C   UNK N   1      27.106  16.700   3.570  0.00  0.00     0.076 A 
HETATM   24  C   UNK N   1      25.914  13.200   3.637  0.00  0.00     0.088 C 
HETATM   25  C   UNK N   1      27.107  12.537   3.887  0.00  0.00     0.007 C 
HETATM   26  C   UNK N   1      28.281  13.208   3.709  0.00  0.00     0.096 C 
HETATM   27  C   UNK N   1      28.340  14.533   3.419  0.00  0.00     0.063 C 
HETATM   28  C   UNK N   1      23.484  12.302   0.570  0.00  0.00     0.015 C 
HETATM   29  C   UNK N   1      27.732  10.744   0.668  0.00  0.00     0.151 C 
HETATM   30  C   UNK N   1      28.871  11.352   1.496  0.00  0.00     0.029 C 
HETATM   31  C   UNK N   1      26.363   9.383   2.341  0.00  0.00     0.015 C 
HETATM   32  C   UNK N   1      29.709  12.332   1.058  0.00  0.00     0.137 C 
HETATM   33  O   UNK N   1      30.663  12.941   1.864  0.00  0.00    -0.319 OA
HETATM   34  O   UNK N   1      29.483  12.619   3.752  0.00  0.00    -0.305 OA
HETATM   35  C   UNK N   1      30.438  13.417   3.166  0.00  0.00     0.237 C 
HETATM   36  C   UNK N   1      29.739  14.774   3.164  0.00  0.00     0.225 C 
HETATM   37  C   UNK N   1      31.704  13.432   4.002  0.00  0.00     0.089 C 
HETATM   38  C   UNK N   1      27.135  11.126   4.342  0.00  0.00     0.054 C 
HETATM   39  N   UNK N   1      28.115  17.536   3.912  0.00  0.00    -0.339 N 
ATOM     40  HN  UNK N   1      29.120  17.365   3.867  1.00  0.00     0.167 HD
HETATM   41  C   UNK N   1      27.469  18.662   4.330  0.00  0.00     0.113 A 
HETATM   42  N   UNK N   1      26.133  18.563   4.206  0.00  0.00    -0.304 N 
HETATM   43  O   UNK N   1      30.228  15.828   2.789  0.00  0.00    -0.286 OA
HETATM   44  C   UNK N   1      28.042  19.745   4.990  0.00  0.00     0.056 A 
HETATM   45  C   UNK N   1      27.171  20.727   5.508  0.00  0.00    -0.057 A 
HETATM   46  C   UNK N   1      25.780  20.614   5.330  0.00  0.00     0.024 A 
HETATM   47  C   UNK N   1      25.263  19.504   4.662  0.00  0.00     0.099 A 
HETATM   48  C   UNK N   1      27.710  21.858   6.304  0.00  0.00     0.048 C 
HETATM   49  H   UNK N   1      23.584  18.213   4.524  0.00  0.00     0.169 HD
ENDROOT
BRANCH  16  50
HETATM   50  O   UNK N   1      25.218   9.230  -0.257  0.00  0.00    -0.315 OA
BRANCH  50  51
HETATM   51  C   UNK N   1      24.170   8.426  -0.563  0.00  0.00     0.255 C 
HETATM   52  C   UNK N   1      23.525   8.549  -1.898  0.00  0.00     0.126 C 
HETATM   53  O   UNK N   1      23.746   7.609   0.237  0.00  0.00    -0.266 OA
ENDBRANCH  50  51
ENDBRANCH  16  50
BRANCH   1  54
HETATM   54  O   UNK N   1      23.552   9.314   2.839  0.00  0.00    -0.395 OA
HETATM   55  H   UNK N   1      23.018   8.587   3.196  0.00  0.00     0.210 HD
ENDBRANCH   1  54
BRANCH  29  56
HETATM   56  O   UNK N   1      28.121   9.616  -0.097  0.00  0.00    -0.386 OA
HETATM   57  C   UNK N   1      29.230   8.992   0.502  0.00  0.00     0.202 C 
ENDBRANCH  29  56
BRANCH   3  58
HETATM   58  O   UNK N   1      22.347  12.362   4.539  0.00  0.00    -0.394 OA
HETATM   59  H   UNK N   1      22.287  12.729   5.435  0.00  0.00     0.210 HD
ENDBRANCH   3  58
BRANCH  24  60
HETATM   60  O   UNK N   1      24.776  12.508   3.717  0.00  0.00    -0.359 OA
HETATM   61  H   UNK N   1      24.755  11.637   4.060  0.00  0.00     0.217 HD
ENDBRANCH  24  60
BRANCH  20  62
HETATM   62  O   UNK N   1      23.529  14.624   3.366  0.00  0.00    -0.357 OA
HETATM   63  H   UNK N   1      23.492  13.738   3.669  0.00  0.00     0.217 HD
ENDBRANCH  20  62
TORSDOF 7
ENDMDL
MODEL 4
REMARK VINA RESULT:      -8.0      1.623      2.240
REMARK  7 active torsions:
REMARK  status: ('A' for Active; 'I' for Inactive)
REMARK    1  A    between atoms: C_1  and  O_14 
REMARK    2  A    between atoms: C_4  and  O_3 
REMARK    3  A    between atoms: C_18  and  O_19 
REMARK    4  A    between atoms: O_19  and  C_34 
REMARK    5  A    between atoms: C_23  and  O_31 
REMARK    6  A    between atoms: C_27  and  O_32 
REMARK    7  A    between atoms: C_37  and  O_38 
ROOT
HETATM    1  C   UNK N   1      27.123  17.298   4.735  0.00  0.00     0.130 C 
HETATM    2  C   UNK N   1      27.387  16.581   6.089  0.00  0.00     0.041 C 
HETATM    3  C   UNK N   1      24.970  16.823   3.145  0.00  0.00     0.131 C 
HETATM    4  C   UNK N   1      25.616  17.419   4.409  0.00  0.00     0.040 C 
HETATM    5  C   UNK N   1      23.628  14.938   2.190  0.00  0.00    -0.020 C 
HETATM    6  C   UNK N   1      24.032  15.640   3.457  0.00  0.00     0.033 C 
HETATM    7  C   UNK N   1      24.683  11.908   1.739  0.00  0.00     0.251 C 
HETATM    8  C   UNK N   1      23.612  12.184   0.732  0.00  0.00     0.006 C 
HETATM    9  C   UNK N   1      22.664  13.126   0.931  0.00  0.00     0.012 C 
HETATM   10  C   UNK N   1      22.688  13.984   2.131  0.00  0.00    -0.003 C 
HETATM   11  C   UNK N   1      22.821  16.092   4.255  0.00  0.00     0.017 C 
HETATM   12  C   UNK N   1      24.774  18.382   5.226  0.00  0.00     0.015 C 
HETATM   13  C   UNK N   1      23.688  11.537  -0.613  0.00  0.00     0.054 C 
HETATM   14  O   UNK N   1      24.550  12.248   2.906  0.00  0.00    -0.268 OA
HETATM   15  N   UNK N   1      25.843  11.355   1.320  0.00  0.00    -0.319 N 
HETATM   16  C   UNK N   1      28.852  16.504   6.646  0.00  0.00     0.144 C 
HETATM   17  C   UNK N   1      30.046  16.325   5.680  0.00  0.00     0.044 C 
HETATM   18  C   UNK N   1      27.136  11.610   1.874  0.00  0.00     0.099 C 
HETATM   19  C   UNK N   1      28.194  10.768   1.554  0.00  0.00     0.098 A 
HETATM   20  C   UNK N   1      27.459  12.861   2.448  0.00  0.00     0.108 C 
HETATM   21  C   UNK N   1      28.819  13.234   2.609  0.00  0.00     0.047 C 
HETATM   22  C   UNK N   1      29.869  12.282   2.411  0.00  0.00     0.026 C 
HETATM   23  C   UNK N   1      29.507  11.037   1.879  0.00  0.00     0.076 A 
HETATM   24  C   UNK N   1      29.155  14.600   2.804  0.00  0.00     0.088 C 
HETATM   25  C   UNK N   1      30.481  15.004   2.739  0.00  0.00     0.007 C 
HETATM   26  C   UNK N   1      31.458  14.052   2.713  0.00  0.00     0.096 C 
HETATM   27  C   UNK N   1      31.194  12.724   2.620  0.00  0.00     0.063 C 
HETATM   28  C   UNK N   1      26.821  15.174   6.019  0.00  0.00     0.015 C 
HETATM   29  C   UNK N   1      31.312  15.648   6.326  0.00  0.00     0.151 C 
HETATM   30  C   UNK N   1      32.326  15.037   5.352  0.00  0.00     0.029 C 
HETATM   31  C   UNK N   1      30.392  17.698   5.111  0.00  0.00     0.015 C 
HETATM   32  C   UNK N   1      32.890  13.806   5.492  0.00  0.00     0.137 C 
HETATM   33  O   UNK N   1      33.725  13.233   4.540  0.00  0.00    -0.319 OA
HETATM   34  O   UNK N   1      32.763  14.329   2.826  0.00  0.00    -0.305 OA
HETATM   35  C   UNK N   1      33.474  13.198   3.159  0.00  0.00     0.237 C 
HETATM   36  C   UNK N   1      32.483  12.098   2.786  0.00  0.00     0.225 C 
HETATM   37  C   UNK N   1      34.749  13.113   2.341  0.00  0.00     0.089 C 
HETATM   38  C   UNK N   1      30.859  16.437   2.696  0.00  0.00     0.054 C 
HETATM   39  N   UNK N   1      30.315  10.112   1.309  0.00  0.00    -0.339 N 
ATOM     40  HN  UNK N   1      31.328  10.021   1.392  1.00  0.00     0.167 HD
HETATM   41  C   UNK N   1      29.454   9.329   0.598  0.00  0.00     0.113 A 
HETATM   42  N   UNK N   1      28.171   9.704   0.756  0.00  0.00    -0.304 N 
HETATM   43  O   UNK N   1      32.694  10.897   2.848  0.00  0.00    -0.286 OA
HETATM   44  C   UNK N   1      29.801   8.365  -0.343  0.00  0.00     0.056 A 
HETATM   45  C   UNK N   1      28.760   7.797  -1.108  0.00  0.00    -0.057 A 
HETATM   46  C   UNK N   1      27.423   8.183  -0.894  0.00  0.00     0.024 A 
HETATM   47  C   UNK N   1      27.137   9.157   0.062  0.00  0.00     0.099 A 
HETATM   48  C   UNK N   1      29.070   6.832  -2.192  0.00  0.00     0.048 C 
HETATM   49  H   UNK N   1      25.794  10.720   0.569  0.00  0.00     0.169 HD
ENDROOT
BRANCH  16  50
HETATM   50  O   UNK N   1      29.162  17.401   7.658  0.00  0.00    -0.315 OA
BRANCH  50  51
HETATM   51  C   UNK N   1      28.260  18.090   8.399  0.00  0.00     0.255 C 
HETATM   52  C   UNK N   1      27.813  19.432   7.938  0.00  0.00     0.126 C 
HETATM   53  O   UNK N   1      27.813  17.631   9.438  0.00  0.00    -0.266 OA
ENDBRANCH  50  51
ENDBRANCH  16  50
BRANCH   1  54
HETATM   54  O   UNK N   1      27.705  18.564   4.676  0.00  0.00    -0.395 OA
HETATM   55  H   UNK N   1      27.633  19.325   4.079  0.00  0.00     0.210 HD
ENDBRANCH   1  54
BRANCH  29  56
HETATM   56  O   UNK N   1      31.903  16.398   7.373  0.00  0.00    -0.386 OA
HETATM   57  C   UNK N   1      32.016  15.599   8.526  0.00  0.00     0.202 C 
ENDBRANCH  29  56
BRANCH   3  58
HETATM   58  O   UNK N   1      25.935  16.472   2.201  0.00  0.00    -0.394 OA
HETATM   59  H   UNK N   1      26.138  15.597   1.832  0.00  0.00     0.210 HD
ENDBRANCH   3  58
BRANCH  24  60
HETATM   60  O   UNK N   1      28.214  15.536   2.929  0.00  0.00    -0.359 OA
HETATM   61  H   UNK N   1      27.318  15.313   3.086  0.00  0.00     0.217 HD
ENDBRANCH  24  60
BRANCH  20  62
HETATM   62  O   UNK N   1      26.496  13.763   2.685  0.00  0.00    -0.357 OA
HETATM   63  H   UNK N   1      25.983  14.110   1.982  0.00  0.00     0.217 HD
ENDBRANCH  20  62
TORSDOF 7
ENDMDL
MODEL 5
REMARK VINA RESULT:      -7.8      2.638      4.418
REMARK  7 active torsions:
REMARK  status: ('A' for Active; 'I' for Inactive)
REMARK    1  A    between atoms: C_1  and  O_14 
REMARK    2  A    between atoms: C_4  and  O_3 
REMARK    3  A    between atoms: C_18  and  O_19 
REMARK    4  A    between atoms: O_19  and  C_34 
REMARK    5  A    between atoms: C_23  and  O_31 
REMARK    6  A    between atoms: C_27  and  O_32 
REMARK    7  A    between atoms: C_37  and  O_38 
ROOT
HETATM    1  C   UNK N   1      28.179  16.692   3.836  0.00  0.00     0.130 C 
HETATM    2  C   UNK N   1      28.200  16.479   5.376  0.00  0.00     0.041 C 
HETATM    3  C   UNK N   1      26.525  15.371   2.130  0.00  0.00     0.131 C 
HETATM    4  C   UNK N   1      26.786  16.430   3.217  0.00  0.00     0.040 C 
HETATM    5  C   UNK N   1      25.667  13.073   1.632  0.00  0.00    -0.020 C 
HETATM    6  C   UNK N   1      25.681  14.188   2.642  0.00  0.00     0.033 C 
HETATM    7  C   UNK N   1      27.137  10.296   2.423  0.00  0.00     0.251 C 
HETATM    8  C   UNK N   1      26.306  10.053   1.203  0.00  0.00     0.006 C 
HETATM    9  C   UNK N   1      25.236  10.821   0.898  0.00  0.00     0.012 C 
HETATM   10  C   UNK N   1      24.882  11.991   1.723  0.00  0.00    -0.003 C 
HETATM   11  C   UNK N   1      24.274  14.629   3.005  0.00  0.00     0.017 C 
HETATM   12  C   UNK N   1      25.672  17.423   3.495  0.00  0.00     0.015 C 
HETATM   13  C   UNK N   1      26.767   9.055   0.191  0.00  0.00     0.054 C 
HETATM   14  O   UNK N   1      26.697  10.943   3.363  0.00  0.00    -0.268 OA
HETATM   15  N   UNK N   1      28.418   9.866   2.435  0.00  0.00    -0.319 N 
HETATM   16  C   UNK N   1      29.492  16.845   6.186  0.00  0.00     0.144 C 
HETATM   17  C   UNK N   1      30.891  16.604   5.573  0.00  0.00     0.044 C 
HETATM   18  C   UNK N   1      29.508  10.508   3.099  0.00  0.00     0.099 C 
HETATM   19  C   UNK N   1      30.700   9.819   3.280  0.00  0.00     0.098 A 
HETATM   20  C   UNK N   1      29.543  11.911   3.270  0.00  0.00     0.108 C 
HETATM   21  C   UNK N   1      30.775  12.559   3.545  0.00  0.00     0.047 C 
HETATM   22  C   UNK N   1      31.945  11.801   3.874  0.00  0.00     0.026 C 
HETATM   23  C   UNK N   1      31.861  10.409   3.733  0.00  0.00     0.076 A 
HETATM   24  C   UNK N   1      30.900  13.957   3.329  0.00  0.00     0.088 C 
HETATM   25  C   UNK N   1      32.149  14.559   3.378  0.00  0.00     0.007 C 
HETATM   26  C   UNK N   1      33.206  13.840   3.852  0.00  0.00     0.096 C 
HETATM   27  C   UNK N   1      33.125  12.521   4.163  0.00  0.00     0.063 C 
HETATM   28  C   UNK N   1      27.829  15.038   5.678  0.00  0.00     0.015 C 
HETATM   29  C   UNK N   1      32.040  16.398   6.630  0.00  0.00     0.151 C 
HETATM   30  C   UNK N   1      33.317  15.719   6.121  0.00  0.00     0.029 C 
HETATM   31  C   UNK N   1      31.202  17.779   4.651  0.00  0.00     0.015 C 
HETATM   32  C   UNK N   1      33.969  14.712   6.767  0.00  0.00     0.137 C 
HETATM   33  O   UNK N   1      35.062  14.042   6.232  0.00  0.00    -0.319 OA
HETATM   34  O   UNK N   1      34.409  14.372   4.105  0.00  0.00    -0.305 OA
HETATM   35  C   UNK N   1      35.146  13.546   4.921  0.00  0.00     0.237 C 
HETATM   36  C   UNK N   1      34.402  12.222   4.763  0.00  0.00     0.225 C 
HETATM   37  C   UNK N   1      36.579  13.453   4.429  0.00  0.00     0.089 C 
HETATM   38  C   UNK N   1      32.361  15.956   2.928  0.00  0.00     0.054 C 
HETATM   39  N   UNK N   1      32.880   9.520   3.664  0.00  0.00    -0.339 N 
ATOM     40  HN  UNK N   1      33.849   9.646   3.957  1.00  0.00     0.167 HD
HETATM   41  C   UNK N   1      32.303   8.415   3.111  0.00  0.00     0.113 A 
HETATM   42  N   UNK N   1      30.986   8.578   2.895  0.00  0.00    -0.304 N 
HETATM   43  O   UNK N   1      34.728  11.156   5.262  0.00  0.00    -0.286 OA
HETATM   44  C   UNK N   1      32.969   7.292   2.628  0.00  0.00     0.056 A 
HETATM   45  C   UNK N   1      32.206   6.339   1.919  0.00  0.00    -0.057 A 
HETATM   46  C   UNK N   1      30.822   6.519   1.742  0.00  0.00     0.024 A 
HETATM   47  C   UNK N   1      30.211   7.667   2.247  0.00  0.00     0.099 A 
HETATM   48  C   UNK N   1      32.870   5.166   1.298  0.00  0.00     0.048 C 
HETATM   49  H   UNK N   1      28.617   9.036   1.945  0.00  0.00     0.169 HD
ENDROOT
BRANCH  16  50
HETATM   50  O   UNK N   1      29.453  18.046   6.878  0.00  0.00    -0.315 OA
BRANCH  50  51
HETATM   51  C   UNK N   1      28.476  18.424   7.740  0.00  0.00     0.255 C 
HETATM   52  C   UNK N   1      28.202  17.588   8.939  0.00  0.00     0.126 C 
HETATM   53  O   UNK N   1      27.819  19.433   7.545  0.00  0.00    -0.266 OA
ENDBRANCH  50  51
ENDBRANCH  16  50
BRANCH   1  54
HETATM   54  O   UNK N   1      28.611  17.965   3.465  0.00  0.00    -0.395 OA
HETATM   55  H   UNK N   1      29.343  18.544   3.725  0.00  0.00     0.210 HD
ENDBRANCH   1  54
BRANCH  29  56
HETATM   56  O   UNK N   1      32.280  17.524   7.455  0.00  0.00    -0.386 OA
HETATM   57  C   UNK N   1      32.178  17.154   8.809  0.00  0.00     0.202 C 
ENDBRANCH  29  56
BRANCH   3  58
HETATM   58  O   UNK N   1      27.718  14.935   1.552  0.00  0.00    -0.394 OA
HETATM   59  H   UNK N   1      28.041  15.066   0.647  0.00  0.00     0.210 HD
ENDBRANCH   3  58
BRANCH  24  60
HETATM   60  O   UNK N   1      29.854  14.698   2.958  0.00  0.00    -0.359 OA
HETATM   61  H   UNK N   1      29.550  14.708   2.072  0.00  0.00     0.217 HD
ENDBRANCH  24  60
BRANCH  20  62
HETATM   62  O   UNK N   1      28.455  12.651   3.010  0.00  0.00    -0.357 OA
HETATM   63  H   UNK N   1      27.615  12.394   3.338  0.00  0.00     0.217 HD
ENDBRANCH  20  62
TORSDOF 7
ENDMDL
MODEL 6
REMARK VINA RESULT:      -7.8      5.713      9.029
REMARK  7 active torsions:
REMARK  status: ('A' for Active; 'I' for Inactive)
REMARK    1  A    between atoms: C_1  and  O_14 
REMARK    2  A    between atoms: C_4  and  O_3 
REMARK    3  A    between atoms: C_18  and  O_19 
REMARK    4  A    between atoms: O_19  and  C_34 
REMARK    5  A    between atoms: C_23  and  O_31 
REMARK    6  A    between atoms: C_27  and  O_32 
REMARK    7  A    between atoms: C_37  and  O_38 
ROOT
HETATM    1  C   UNK N   1      34.405  13.962   4.970  0.00  0.00     0.130 C 
HETATM    2  C   UNK N   1      33.689  14.876   6.004  0.00  0.00     0.041 C 
HETATM    3  C   UNK N   1      33.116  12.401   3.155  0.00  0.00     0.131 C 
HETATM    4  C   UNK N   1      33.584  13.774   3.673  0.00  0.00     0.040 C 
HETATM    5  C   UNK N   1      31.209  10.790   2.973  0.00  0.00    -0.020 C 
HETATM    6  C   UNK N   1      31.588  12.220   3.247  0.00  0.00     0.033 C 
HETATM    7  C   UNK N   1      29.957   9.063   5.411  0.00  0.00     0.251 C 
HETATM    8  C   UNK N   1      29.732   8.307   4.140  0.00  0.00     0.006 C 
HETATM    9  C   UNK N   1      29.692   8.921   2.937  0.00  0.00     0.012 C 
HETATM   10  C   UNK N   1      29.947  10.369   2.815  0.00  0.00    -0.003 C 
HETATM   11  C   UNK N   1      30.861  13.178   2.320  0.00  0.00     0.017 C 
HETATM   12  C   UNK N   1      33.448  14.952   2.725  0.00  0.00     0.015 C 
HETATM   13  C   UNK N   1      29.731   6.813   4.167  0.00  0.00     0.054 C 
HETATM   14  O   UNK N   1      29.760  10.268   5.468  0.00  0.00    -0.268 OA
HETATM   15  N   UNK N   1      30.469   8.407   6.476  0.00  0.00    -0.319 N 
HETATM   16  C   UNK N   1      34.444  15.294   7.314  0.00  0.00     0.144 C 
HETATM   17  C   UNK N   1      35.397  14.299   8.017  0.00  0.00     0.044 C 
HETATM   18  C   UNK N   1      31.340   8.968   7.461  0.00  0.00     0.099 C 
HETATM   19  C   UNK N   1      31.556   8.284   8.651  0.00  0.00     0.098 A 
HETATM   20  C   UNK N   1      32.246  10.004   7.140  0.00  0.00     0.108 C 
HETATM   21  C   UNK N   1      33.358  10.258   7.985  0.00  0.00     0.047 C 
HETATM   22  C   UNK N   1      33.458   9.637   9.271  0.00  0.00     0.026 C 
HETATM   23  C   UNK N   1      32.517   8.643   9.573  0.00  0.00     0.076 A 
HETATM   24  C   UNK N   1      34.464  10.998   7.490  0.00  0.00     0.088 C 
HETATM   25  C   UNK N   1      35.641  11.062   8.223  0.00  0.00     0.007 C 
HETATM   26  C   UNK N   1      35.642  10.600   9.506  0.00  0.00     0.096 C 
HETATM   27  C   UNK N   1      34.580   9.965  10.064  0.00  0.00     0.063 C 
HETATM   28  C   UNK N   1      32.366  14.239   6.390  0.00  0.00     0.015 C 
HETATM   29  C   UNK N   1      35.582  14.551   9.559  0.00  0.00     0.151 C 
HETATM   30  C   UNK N   1      36.121  13.373  10.380  0.00  0.00     0.029 C 
HETATM   31  C   UNK N   1      36.739  14.351   7.291  0.00  0.00     0.015 C 
HETATM   32  C   UNK N   1      35.606  12.959  11.571  0.00  0.00     0.137 C 
HETATM   33  O   UNK N   1      36.046  11.824  12.242  0.00  0.00    -0.319 OA
HETATM   34  O   UNK N   1      36.665  10.771  10.353  0.00  0.00    -0.305 OA
HETATM   35  C   UNK N   1      36.261  10.568  11.652  0.00  0.00     0.237 C 
HETATM   36  C   UNK N   1      34.956   9.803  11.448  0.00  0.00     0.225 C 
HETATM   37  C   UNK N   1      37.289   9.745  12.406  0.00  0.00     0.089 C 
HETATM   38  C   UNK N   1      36.890  11.614   7.646  0.00  0.00     0.054 C 
HETATM   39  N   UNK N   1      32.584   7.706  10.548  0.00  0.00    -0.339 N 
ATOM     40  HN  UNK N   1      33.170   7.706  11.384  1.00  0.00     0.167 HD
HETATM   41  C   UNK N   1      31.683   6.764  10.149  0.00  0.00     0.113 A 
HETATM   42  N   UNK N   1      31.044   7.113   9.018  0.00  0.00    -0.304 N 
HETATM   43  O   UNK N   1      34.251   9.344  12.333  0.00  0.00    -0.286 OA
HETATM   44  C   UNK N   1      31.526   5.492  10.690  0.00  0.00     0.056 A 
HETATM   45  C   UNK N   1      30.669   4.598  10.013  0.00  0.00    -0.057 A 
HETATM   46  C   UNK N   1      29.985   5.004   8.852  0.00  0.00     0.024 A 
HETATM   47  C   UNK N   1      30.184   6.292   8.356  0.00  0.00     0.099 A 
HETATM   48  C   UNK N   1      30.530   3.197  10.483  0.00  0.00     0.048 C 
HETATM   49  H   UNK N   1      30.220   7.461   6.584  0.00  0.00     0.169 HD
ENDROOT
BRANCH  16  50
HETATM   50  O   UNK N   1      34.970  16.577   7.326  0.00  0.00    -0.315 OA
BRANCH  50  51
HETATM   51  C   UNK N   1      34.323  17.686   7.762  0.00  0.00     0.255 C 
HETATM   52  C   UNK N   1      32.904  17.577   8.195  0.00  0.00     0.126 C 
HETATM   53  O   UNK N   1      34.883  18.770   7.802  0.00  0.00    -0.266 OA
ENDBRANCH  50  51
ENDBRANCH  16  50
BRANCH   1  54
HETATM   54  O   UNK N   1      35.680  14.421   4.639  0.00  0.00    -0.395 OA
HETATM   55  H   UNK N   1      36.410  14.829   5.129  0.00  0.00     0.210 HD
ENDBRANCH   1  54
BRANCH  29  56
HETATM   56  O   UNK N   1      36.182  15.794   9.879  0.00  0.00    -0.386 OA
HETATM   57  C   UNK N   1      35.461  16.421  10.911  0.00  0.00     0.202 C 
ENDBRANCH  29  56
BRANCH   3  58
HETATM   58  O   UNK N   1      33.792  11.362   3.795  0.00  0.00    -0.394 OA
HETATM   59  H   UNK N   1      34.442  11.410   4.514  0.00  0.00     0.210 HD
ENDBRANCH   3  58
BRANCH  24  60
HETATM   60  O   UNK N   1      34.446  11.542   6.272  0.00  0.00    -0.359 OA
HETATM   61  H   UNK N   1      34.771  12.407   6.116  0.00  0.00     0.217 HD
ENDBRANCH  24  60
BRANCH  20  62
HETATM   62  O   UNK N   1      32.158  10.636   5.961  0.00  0.00    -0.357 OA
HETATM   63  H   UNK N   1      32.678  10.359   5.231  0.00  0.00     0.217 HD
ENDBRANCH  20  62
TORSDOF 7
ENDMDL
MODEL 7
REMARK VINA RESULT:      -7.7      2.719      4.061
REMARK  7 active torsions:
REMARK  status: ('A' for Active; 'I' for Inactive)
REMARK    1  A    between atoms: C_1  and  O_14 
REMARK    2  A    between atoms: C_4  and  O_3 
REMARK    3  A    between atoms: C_18  and  O_19 
REMARK    4  A    between atoms: O_19  and  C_34 
REMARK    5  A    between atoms: C_23  and  O_31 
REMARK    6  A    between atoms: C_27  and  O_32 
REMARK    7  A    between atoms: C_37  and  O_38 
ROOT
HETATM    1  C   UNK N   1      28.663  16.778   3.813  0.00  0.00     0.130 C 
HETATM    2  C   UNK N   1      29.336  16.396   5.161  0.00  0.00     0.041 C 
HETATM    3  C   UNK N   1      26.248  18.008   3.600  0.00  0.00     0.131 C 
HETATM    4  C   UNK N   1      27.752  18.022   3.933  0.00  0.00     0.040 C 
HETATM    5  C   UNK N   1      23.920  17.906   4.513  0.00  0.00    -0.020 C 
HETATM    6  C   UNK N   1      25.361  18.177   4.849  0.00  0.00     0.033 C 
HETATM    7  C   UNK N   1      22.523  15.300   5.835  0.00  0.00     0.251 C 
HETATM    8  C   UNK N   1      21.448  16.157   5.246  0.00  0.00     0.006 C 
HETATM    9  C   UNK N   1      21.612  17.485   5.054  0.00  0.00     0.012 C 
HETATM   10  C   UNK N   1      22.900  18.140   5.350  0.00  0.00    -0.003 C 
HETATM   11  C   UNK N   1      25.540  19.550   5.472  0.00  0.00     0.017 C 
HETATM   12  C   UNK N   1      28.401  19.378   4.137  0.00  0.00     0.015 C 
HETATM   13  C   UNK N   1      20.223  15.512   4.683  0.00  0.00     0.054 C 
HETATM   14  O   UNK N   1      23.433  15.792   6.485  0.00  0.00    -0.268 OA
HETATM   15  N   UNK N   1      22.523  13.976   5.561  0.00  0.00    -0.319 N 
HETATM   16  C   UNK N   1      30.407  15.251   5.190  0.00  0.00     0.144 C 
HETATM   17  C   UNK N   1      30.250  14.012   4.276  0.00  0.00     0.044 C 
HETATM   18  C   UNK N   1      23.683  13.153   5.423  0.00  0.00     0.099 C 
HETATM   19  C   UNK N   1      23.545  11.771   5.434  0.00  0.00     0.098 A 
HETATM   20  C   UNK N   1      24.903  13.674   4.936  0.00  0.00     0.108 C 
HETATM   21  C   UNK N   1      25.893  12.796   4.424  0.00  0.00     0.047 C 
HETATM   22  C   UNK N   1      25.775  11.379   4.595  0.00  0.00     0.026 C 
HETATM   23  C   UNK N   1      24.567  10.900   5.119  0.00  0.00     0.076 A 
HETATM   24  C   UNK N   1      26.923  13.305   3.590  0.00  0.00     0.088 C 
HETATM   25  C   UNK N   1      27.759  12.433   2.907  0.00  0.00     0.007 C 
HETATM   26  C   UNK N   1      27.721  11.106   3.220  0.00  0.00     0.096 C 
HETATM   27  C   UNK N   1      26.817  10.574   4.082  0.00  0.00     0.063 C 
HETATM   28  C   UNK N   1      28.254  16.072   6.176  0.00  0.00     0.015 C 
HETATM   29  C   UNK N   1      30.962  12.714   4.810  0.00  0.00     0.151 C 
HETATM   30  C   UNK N   1      30.480  11.384   4.219  0.00  0.00     0.029 C 
HETATM   31  C   UNK N   1      30.769  14.389   2.892  0.00  0.00     0.015 C 
HETATM   32  C   UNK N   1      30.200  10.268   4.948  0.00  0.00     0.137 C 
HETATM   33  O   UNK N   1      29.663   9.110   4.400  0.00  0.00    -0.319 OA
HETATM   34  O   UNK N   1      28.599  10.210   2.751  0.00  0.00    -0.305 OA
HETATM   35  C   UNK N   1      28.578   9.063   3.511  0.00  0.00     0.237 C 
HETATM   36  C   UNK N   1      27.241   9.204   4.234  0.00  0.00     0.225 C 
HETATM   37  C   UNK N   1      28.613   7.835   2.620  0.00  0.00     0.089 C 
HETATM   38  C   UNK N   1      28.683  12.906   1.849  0.00  0.00     0.054 C 
HETATM   39  N   UNK N   1      24.088   9.633   5.075  0.00  0.00    -0.339 N 
ATOM     40  HN  UNK N   1      24.603   8.769   4.904  1.00  0.00     0.167 HD
HETATM   41  C   UNK N   1      22.755   9.787   5.317  0.00  0.00     0.113 A 
HETATM   42  N   UNK N   1      22.421  11.068   5.555  0.00  0.00    -0.304 N 
HETATM   43  O   UNK N   1      26.747   8.381   4.989  0.00  0.00    -0.286 OA
HETATM   44  C   UNK N   1      21.773   8.813   5.167  0.00  0.00     0.056 A 
HETATM   45  C   UNK N   1      20.427   9.223   5.284  0.00  0.00    -0.057 A 
HETATM   46  C   UNK N   1      20.110  10.564   5.569  0.00  0.00     0.024 A 
HETATM   47  C   UNK N   1      21.139  11.496   5.707  0.00  0.00     0.099 A 
HETATM   48  C   UNK N   1      19.328   8.255   5.042  0.00  0.00     0.048 C 
HETATM   49  H   UNK N   1      21.647  13.540   5.448  0.00  0.00     0.169 HD
ENDROOT
BRANCH  16  50
HETATM   50  O   UNK N   1      31.731  15.661   5.246  0.00  0.00    -0.315 OA
BRANCH  50  51
HETATM   51  C   UNK N   1      32.149  16.940   5.419  0.00  0.00     0.255 C 
HETATM   52  C   UNK N   1      32.608  17.721   4.239  0.00  0.00     0.126 C 
HETATM   53  O   UNK N   1      32.158  17.457   6.525  0.00  0.00    -0.266 OA
ENDBRANCH  50  51
ENDBRANCH  16  50
BRANCH   1  54
HETATM   54  O   UNK N   1      29.590  16.989   2.792  0.00  0.00    -0.395 OA
HETATM   55  H   UNK N   1      30.481  16.661   2.596  0.00  0.00     0.210 HD
ENDBRANCH   1  54
BRANCH  29  56
HETATM   56  O   UNK N   1      32.372  12.820   4.906  0.00  0.00    -0.386 OA
HETATM   57  C   UNK N   1      32.787  12.495   6.210  0.00  0.00     0.202 C 
ENDBRANCH  29  56
BRANCH   3  58
HETATM   58  O   UNK N   1      25.901  16.866   2.878  0.00  0.00    -0.394 OA
HETATM   59  H   UNK N   1      25.085  16.343   2.922  0.00  0.00     0.210 HD
ENDBRANCH   3  58
BRANCH  24  60
HETATM   60  O   UNK N   1      27.037  14.612   3.347  0.00  0.00    -0.359 OA
HETATM   61  H   UNK N   1      26.430  15.063   2.795  0.00  0.00     0.217 HD
ENDBRANCH  24  60
BRANCH  20  62
HETATM   62  O   UNK N   1      25.065  14.998   4.801  0.00  0.00    -0.357 OA
HETATM   63  H   UNK N   1      25.309  15.367   3.975  0.00  0.00     0.217 HD
ENDBRANCH  20  62
TORSDOF 7
ENDMDL
MODEL 8
REMARK VINA RESULT:      -7.7      2.560      5.591
REMARK  7 active torsions:
REMARK  status: ('A' for Active; 'I' for Inactive)
REMARK    1  A    between atoms: C_1  and  O_14 
REMARK    2  A    between atoms: C_4  and  O_3 
REMARK    3  A    between atoms: C_18  and  O_19 
REMARK    4  A    between atoms: O_19  and  C_34 
REMARK    5  A    between atoms: C_23  and  O_31 
REMARK    6  A    between atoms: C_27  and  O_32 
REMARK    7  A    between atoms: C_37  and  O_38 
ROOT
HETATM    1  C   UNK N   1      33.972  15.413   6.131  0.00  0.00     0.130 C 
HETATM    2  C   UNK N   1      33.918  14.143   7.026  0.00  0.00     0.041 C 
HETATM    3  C   UNK N   1      32.229  17.492   6.317  0.00  0.00     0.131 C 
HETATM    4  C   UNK N   1      33.418  16.668   6.846  0.00  0.00     0.040 C 
HETATM    5  C   UNK N   1      29.781  17.972   6.522  0.00  0.00    -0.020 C 
HETATM    6  C   UNK N   1      30.976  17.365   7.205  0.00  0.00     0.033 C 
HETATM    7  C   UNK N   1      27.385  15.988   5.616  0.00  0.00     0.251 C 
HETATM    8  C   UNK N   1      26.886  17.395   5.523  0.00  0.00     0.006 C 
HETATM    9  C   UNK N   1      27.428  18.399   6.249  0.00  0.00     0.012 C 
HETATM   10  C   UNK N   1      28.596  18.163   7.118  0.00  0.00    -0.003 C 
HETATM   11  C   UNK N   1      31.206  17.976   8.576  0.00  0.00     0.017 C 
HETATM   12  C   UNK N   1      34.231  17.277   7.975  0.00  0.00     0.015 C 
HETATM   13  C   UNK N   1      25.886  17.749   4.471  0.00  0.00     0.054 C 
HETATM   14  O   UNK N   1      28.038  15.616   6.582  0.00  0.00    -0.268 OA
HETATM   15  N   UNK N   1      27.181  15.155   4.572  0.00  0.00    -0.319 N 
HETATM   16  C   UNK N   1      34.576  12.813   6.515  0.00  0.00     0.144 C 
HETATM   17  C   UNK N   1      34.517  12.441   5.015  0.00  0.00     0.044 C 
HETATM   18  C   UNK N   1      28.062  14.109   4.155  0.00  0.00     0.099 C 
HETATM   19  C   UNK N   1      27.605  13.147   3.264  0.00  0.00     0.098 A 
HETATM   20  C   UNK N   1      29.460  14.206   4.338  0.00  0.00     0.108 C 
HETATM   21  C   UNK N   1      30.331  13.387   3.574  0.00  0.00     0.047 C 
HETATM   22  C   UNK N   1      29.818  12.308   2.784  0.00  0.00     0.026 C 
HETATM   23  C   UNK N   1      28.425  12.218   2.659  0.00  0.00     0.076 A 
HETATM   24  C   UNK N   1      31.702  13.737   3.453  0.00  0.00     0.088 C 
HETATM   25  C   UNK N   1      32.509  13.078   2.536  0.00  0.00     0.007 C 
HETATM   26  C   UNK N   1      32.030  11.957   1.926  0.00  0.00     0.096 C 
HETATM   27  C   UNK N   1      30.753  11.521   2.076  0.00  0.00     0.063 C 
HETATM   28  C   UNK N   1      32.472  13.859   7.391  0.00  0.00     0.015 C 
HETATM   29  C   UNK N   1      34.613  10.897   4.722  0.00  0.00     0.151 C 
HETATM   30  C   UNK N   1      34.114  10.434   3.349  0.00  0.00     0.029 C 
HETATM   31  C   UNK N   1      35.631  13.202   4.304  0.00  0.00     0.015 C 
HETATM   32  C   UNK N   1      33.301   9.361   3.142  0.00  0.00     0.137 C 
HETATM   33  O   UNK N   1      32.776   9.026   1.899  0.00  0.00    -0.319 OA
HETATM   34  O   UNK N   1      32.780  11.152   1.163  0.00  0.00    -0.305 OA
HETATM   35  C   UNK N   1      32.175   9.927   1.005  0.00  0.00     0.237 C 
HETATM   36  C   UNK N   1      30.736  10.247   1.399  0.00  0.00     0.225 C 
HETATM   37  C   UNK N   1      32.279   9.465  -0.437  0.00  0.00     0.089 C 
HETATM   38  C   UNK N   1      33.870  13.564   2.205  0.00  0.00     0.054 C 
HETATM   39  N   UNK N   1      27.719  11.518   1.739  0.00  0.00    -0.339 N 
ATOM     40  HN  UNK N   1      28.036  10.744   1.155  1.00  0.00     0.167 HD
HETATM   41  C   UNK N   1      26.484  12.094   1.779  0.00  0.00     0.113 A 
HETATM   42  N   UNK N   1      26.399  13.062   2.709  0.00  0.00    -0.304 N 
HETATM   43  O   UNK N   1      29.794   9.470   1.358  0.00  0.00    -0.286 OA
HETATM   44  C   UNK N   1      25.448  11.886   0.873  0.00  0.00     0.056 A 
HETATM   45  C   UNK N   1      24.315  12.720   0.979  0.00  0.00    -0.057 A 
HETATM   46  C   UNK N   1      24.239  13.700   1.986  0.00  0.00     0.024 A 
HETATM   47  C   UNK N   1      25.310  13.863   2.864  0.00  0.00     0.099 A 
HETATM   48  C   UNK N   1      23.215  12.615  -0.013  0.00  0.00     0.048 C 
HETATM   49  H   UNK N   1      26.353  15.277   4.054  0.00  0.00     0.169 HD
ENDROOT
BRANCH  16  50
HETATM   50  O   UNK N   1      35.815  12.505   7.055  0.00  0.00    -0.315 OA
BRANCH  50  51
HETATM   51  C   UNK N   1      36.554  13.324   7.844  0.00  0.00     0.255 C 
HETATM   52  C   UNK N   1      36.460  13.188   9.322  0.00  0.00     0.126 C 
HETATM   53  O   UNK N   1      37.289  14.170   7.362  0.00  0.00    -0.266 OA
ENDBRANCH  50  51
ENDBRANCH  16  50
BRANCH   1  54
HETATM   54  O   UNK N   1      35.257  15.686   5.663  0.00  0.00    -0.395 OA
HETATM   55  H   UNK N   1      36.133  15.291   5.795  0.00  0.00     0.210 HD
ENDBRANCH   1  54
BRANCH  29  56
HETATM   56  O   UNK N   1      35.840  10.305   5.115  0.00  0.00    -0.386 OA
HETATM   57  C   UNK N   1      35.591   9.212   5.964  0.00  0.00     0.202 C 
ENDBRANCH  29  56
BRANCH   3  58
HETATM   58  O   UNK N   1      31.947  17.175   4.988  0.00  0.00    -0.394 OA
HETATM   59  H   UNK N   1      31.401  16.454   4.636  0.00  0.00     0.210 HD
ENDBRANCH   3  58
BRANCH  24  60
HETATM   60  O   UNK N   1      32.215  14.773   4.118  0.00  0.00    -0.359 OA
HETATM   61  H   UNK N   1      32.334  15.608   3.709  0.00  0.00     0.217 HD
ENDBRANCH  24  60
BRANCH  20  62
HETATM   62  O   UNK N   1      29.975  15.179   5.104  0.00  0.00    -0.357 OA
HETATM   63  H   UNK N   1      30.759  15.623   4.847  0.00  0.00     0.217 HD
ENDBRANCH  20  62
TORSDOF 7
ENDMDL
MODEL 9
REMARK VINA RESULT:      -7.7      9.021     15.262
REMARK  7 active torsions:
REMARK  status: ('A' for Active; 'I' for Inactive)
REMARK    1  A    between atoms: C_1  and  O_14 
REMARK    2  A    between atoms: C_4  and  O_3 
REMARK    3  A    between atoms: C_18  and  O_19 
REMARK    4  A    between atoms: O_19  and  C_34 
REMARK    5  A    between atoms: C_23  and  O_31 
REMARK    6  A    between atoms: C_27  and  O_32 
REMARK    7  A    between atoms: C_37  and  O_38 
ROOT
HETATM    1  C   UNK N   1      39.548   9.774   7.237  0.00  0.00     0.130 C 
HETATM    2  C   UNK N   1      38.141   9.435   6.670  0.00  0.00     0.041 C 
HETATM    3  C   UNK N   1      40.826   8.311   9.139  0.00  0.00     0.131 C 
HETATM    4  C   UNK N   1      40.323   8.518   7.698  0.00  0.00     0.040 C 
HETATM    5  C   UNK N   1      40.418   7.192  11.340  0.00  0.00    -0.020 C 
HETATM    6  C   UNK N   1      40.073   7.187   9.877  0.00  0.00     0.033 C 
HETATM    7  C   UNK N   1      38.078   7.960  13.444  0.00  0.00     0.251 C 
HETATM    8  C   UNK N   1      39.220   7.374  14.211  0.00  0.00     0.006 C 
HETATM    9  C   UNK N   1      40.118   6.541  13.639  0.00  0.00     0.012 C 
HETATM   10  C   UNK N   1      40.052   6.230  12.199  0.00  0.00    -0.003 C 
HETATM   11  C   UNK N   1      40.344   5.833   9.244  0.00  0.00     0.017 C 
HETATM   12  C   UNK N   1      40.843   7.559   6.642  0.00  0.00     0.015 C 
HETATM   13  C   UNK N   1      39.494   7.856  15.599  0.00  0.00     0.054 C 
HETATM   14  O   UNK N   1      37.697   7.452  12.399  0.00  0.00    -0.268 OA
HETATM   15  N   UNK N   1      37.527   9.116  13.878  0.00  0.00    -0.319 N 
HETATM   16  C   UNK N   1      37.278  10.572   6.020  0.00  0.00     0.144 C 
HETATM   17  C   UNK N   1      37.313  12.006   6.600  0.00  0.00     0.044 C 
HETATM   18  C   UNK N   1      36.970  10.137  13.048  0.00  0.00     0.099 C 
HETATM   19  C   UNK N   1      36.181  11.127  13.620  0.00  0.00     0.098 A 
HETATM   20  C   UNK N   1      37.462  10.378  11.745  0.00  0.00     0.108 C 
HETATM   21  C   UNK N   1      37.199  11.619  11.108  0.00  0.00     0.047 C 
HETATM   22  C   UNK N   1      36.259  12.544  11.666  0.00  0.00     0.026 C 
HETATM   23  C   UNK N   1      35.760  12.252  12.942  0.00  0.00     0.076 A 
HETATM   24  C   UNK N   1      37.992  12.025  10.003  0.00  0.00     0.088 C 
HETATM   25  C   UNK N   1      37.894  13.322   9.517  0.00  0.00     0.007 C 
HETATM   26  C   UNK N   1      36.879  14.116   9.964  0.00  0.00     0.096 C 
HETATM   27  C   UNK N   1      36.030  13.744  10.956  0.00  0.00     0.063 C 
HETATM   28  C   UNK N   1      37.320   8.766   7.758  0.00  0.00     0.015 C 
HETATM   29  C   UNK N   1      36.017  12.854   6.319  0.00  0.00     0.151 C 
HETATM   30  C   UNK N   1      35.794  14.072   7.224  0.00  0.00     0.029 C 
HETATM   31  C   UNK N   1      38.552  12.701   6.043  0.00  0.00     0.015 C 
HETATM   32  C   UNK N   1      34.610  14.390   7.817  0.00  0.00     0.137 C 
HETATM   33  O   UNK N   1      34.462  15.438   8.717  0.00  0.00    -0.319 OA
HETATM   34  O   UNK N   1      36.589  15.312   9.437  0.00  0.00    -0.305 OA
HETATM   35  C   UNK N   1      35.321  15.708   9.794  0.00  0.00     0.237 C 
HETATM   36  C   UNK N   1      35.044  14.796  10.987  0.00  0.00     0.225 C 
HETATM   37  C   UNK N   1      35.313  17.174  10.187  0.00  0.00     0.089 C 
HETATM   38  C   UNK N   1      38.862  13.861   8.532  0.00  0.00     0.054 C 
HETATM   39  N   UNK N   1      35.136  13.094  13.801  0.00  0.00    -0.339 N 
ATOM     40  HN  UNK N   1      34.687  13.987  13.596  1.00  0.00     0.167 HD
HETATM   41  C   UNK N   1      35.250  12.463  15.005  0.00  0.00     0.113 A 
HETATM   42  N   UNK N   1      35.859  11.268  14.903  0.00  0.00    -0.304 N 
HETATM   43  O   UNK N   1      34.044  14.821  11.687  0.00  0.00    -0.286 OA
HETATM   44  C   UNK N   1      34.964  13.010  16.252  0.00  0.00     0.056 A 
HETATM   45  C   UNK N   1      35.328  12.260  17.391  0.00  0.00    -0.057 A 
HETATM   46  C   UNK N   1      35.931  10.996  17.251  0.00  0.00     0.024 A 
HETATM   47  C   UNK N   1      36.195  10.500  15.974  0.00  0.00     0.099 A 
HETATM   48  C   UNK N   1      35.137  12.825  18.750  0.00  0.00     0.048 C 
HETATM   49  H   UNK N   1      37.507   9.267  14.850  0.00  0.00     0.169 HD
ENDROOT
BRANCH  16  50
HETATM   50  O   UNK N   1      37.256  10.598   4.633  0.00  0.00    -0.315 OA
BRANCH  50  51
HETATM   51  C   UNK N   1      37.995   9.801   3.822  0.00  0.00     0.255 C 
HETATM   52  C   UNK N   1      37.377   8.579   3.243  0.00  0.00     0.126 C 
HETATM   53  O   UNK N   1      39.157  10.069   3.563  0.00  0.00    -0.266 OA
ENDBRANCH  50  51
ENDBRANCH  16  50
BRANCH   1  54
HETATM   54  O   UNK N   1      40.334  10.488   6.332  0.00  0.00    -0.395 OA
HETATM   55  H   UNK N   1      40.452  10.477   5.370  0.00  0.00     0.210 HD
ENDBRANCH   1  54
BRANCH  29  56
HETATM   56  O   UNK N   1      35.773  13.108   4.947  0.00  0.00    -0.386 OA
HETATM   57  C   UNK N   1      34.469  12.699   4.611  0.00  0.00     0.202 C 
ENDBRANCH  29  56
BRANCH   3  58
HETATM   58  O   UNK N   1      40.795   9.504   9.861  0.00  0.00    -0.394 OA
HETATM   59  H   UNK N   1      40.313   9.710  10.678  0.00  0.00     0.210 HD
ENDBRANCH   3  58
BRANCH  24  60
HETATM   60  O   UNK N   1      38.926  11.225   9.487  0.00  0.00    -0.359 OA
HETATM   61  H   UNK N   1      38.843  10.293   9.514  0.00  0.00     0.217 HD
ENDBRANCH  24  60
BRANCH  20  62
HETATM   62  O   UNK N   1      38.313   9.513  11.174  0.00  0.00    -0.357 OA
HETATM   63  H   UNK N   1      38.040   8.984  10.450  0.00  0.00     0.217 HD
ENDBRANCH  20  62
TORSDOF 7
ENDMDL
