MODEL 1
REMARK VINA RESULT:      -6.3      0.000      0.000
REMARK  5 active torsions:
REMARK  status: ('A' for Active; 'I' for Inactive)
REMARK    1  A    between atoms: C_1  and  N_9 
REMARK    2  A    between atoms: C_4  and  C_7 
REMARK    3  A    between atoms: C_5  and  O_6 
REMARK    4  A    between atoms: C_7  and  O_8 
REMARK    5  A    between atoms: C_14  and  O_21 
ROOT
HETATM    1  N   UNK N   1      31.499  16.704   7.136  0.00  0.00    -0.300 N 
HETATM    2  N   UNK N   1      30.324  17.638   9.077  0.00  0.00    -0.337 N 
ATOM      3  HN  UNK N   1      31.179  17.537   9.622  1.00  0.00     0.168 HD
HETATM    4  C   UNK N   1      30.363  17.088   7.761  0.00  0.00     0.137 A 
HETATM    5  C   UNK N   1      29.311  16.890   6.897  0.00  0.00     0.085 A 
HETATM    6  C   UNK N   1      27.878  17.188   7.154  0.00  0.00     0.189 C 
HETATM    7  C   UNK N   1      29.348  18.252   9.672  0.00  0.00     0.177 C 
HETATM    8  C   UNK N   1      27.787  18.596   7.674  0.00  0.00     0.158 C 
HETATM    9  N   UNK N   1      28.096  18.604   9.082  0.00  0.00    -0.383 N 
HETATM   10  N   UNK N   1      29.786  16.398   5.736  0.00  0.00    -0.350 N 
ATOM     11  HN  UNK N   1      29.249  16.153   4.903  1.00  0.00     0.166 HD
HETATM   12  C   UNK N   1      31.123  16.297   5.905  0.00  0.00     0.187 A 
HETATM   13  H   UNK N   1      27.375  18.879   9.694  0.00  0.00     0.160 HD
ENDROOT
BRANCH   1  14
HETATM   14  C   UNK N   1      32.899  16.749   7.579  0.00  0.00     0.233 C 
HETATM   15  C   UNK N   1      33.600  18.062   7.323  0.00  0.00     0.088 C 
HETATM   16  C   UNK N   1      34.775  17.879   8.219  0.00  0.00     0.153 C 
HETATM   17  C   UNK N   1      34.172  17.143   9.393  0.00  0.00     0.176 C 
HETATM   18  O   UNK N   1      33.007  16.475   8.956  0.00  0.00    -0.356 OA
BRANCH  16  19
HETATM   19  O   UNK N   1      35.300  19.107   8.622  0.00  0.00    -0.393 OA
HETATM   20  H   UNK N   1      35.365  19.503   9.505  0.00  0.00     0.210 HD
ENDBRANCH  16  19
BRANCH  17  21
HETATM   21  C   UNK N   1      35.195  16.153   9.931  0.00  0.00     0.198 C 
BRANCH  21  22
HETATM   22  O   UNK N   1      36.243  16.833  10.549  0.00  0.00    -0.398 OA
HETATM   23  H   UNK N   1      36.400  16.888  11.505  0.00  0.00     0.209 HD
ENDBRANCH  21  22
ENDBRANCH  17  21
ENDBRANCH   1  14
BRANCH   6  24
HETATM   24  O   UNK N   1      27.140  17.071   5.975  0.00  0.00    -0.388 OA
HETATM   25  H   UNK N   1      27.333  16.360   5.343  0.00  0.00     0.210 HD
ENDBRANCH   6  24
TORSDOF 5
ENDMDL
MODEL 2
REMARK VINA RESULT:      -6.1      1.030      1.142
REMARK  5 active torsions:
REMARK  status: ('A' for Active; 'I' for Inactive)
REMARK    1  A    between atoms: C_1  and  N_9 
REMARK    2  A    between atoms: C_4  and  C_7 
REMARK    3  A    between atoms: C_5  and  O_6 
REMARK    4  A    between atoms: C_7  and  O_8 
REMARK    5  A    between atoms: C_14  and  O_21 
ROOT
HETATM    1  N   UNK N   1      31.299  17.116   6.783  0.00  0.00    -0.300 N 
HETATM    2  N   UNK N   1      29.873  17.619   8.714  0.00  0.00    -0.337 N 
ATOM      3  HN  UNK N   1      30.589  17.227   9.324  1.00  0.00     0.168 HD
HETATM    4  C   UNK N   1      30.110  17.479   7.315  0.00  0.00     0.137 A 
HETATM    5  C   UNK N   1      29.233  17.714   6.281  0.00  0.00     0.085 A 
HETATM    6  C   UNK N   1      27.818  18.152   6.396  0.00  0.00     0.189 C 
HETATM    7  C   UNK N   1      28.870  18.182   9.315  0.00  0.00     0.177 C 
HETATM    8  C   UNK N   1      27.776  19.342   7.314  0.00  0.00     0.158 C 
HETATM    9  N   UNK N   1      27.802  18.888   8.682  0.00  0.00    -0.383 N 
HETATM   10  N   UNK N   1      29.871  17.513   5.112  0.00  0.00    -0.350 N 
ATOM     11  HN  UNK N   1      29.485  17.611   4.172  1.00  0.00     0.166 HD
HETATM   12  C   UNK N   1      31.130  17.152   5.444  0.00  0.00     0.187 A 
HETATM   13  H   UNK N   1      27.009  19.085   9.231  0.00  0.00     0.160 HD
ENDROOT
BRANCH   1  14
HETATM   14  C   UNK N   1      32.582  16.803   7.427  0.00  0.00     0.233 C 
HETATM   15  C   UNK N   1      33.596  17.922   7.391  0.00  0.00     0.088 C 
HETATM   16  C   UNK N   1      34.537  17.419   8.429  0.00  0.00     0.153 C 
HETATM   17  C   UNK N   1      33.600  16.788   9.433  0.00  0.00     0.176 C 
HETATM   18  O   UNK N   1      32.401  16.440   8.775  0.00  0.00    -0.356 OA
BRANCH  16  19
HETATM   19  O   UNK N   1      35.256  18.463   9.010  0.00  0.00    -0.393 OA
HETATM   20  H   UNK N   1      35.629  18.549   9.901  0.00  0.00     0.210 HD
ENDBRANCH  16  19
BRANCH  17  21
HETATM   21  C   UNK N   1      34.270  15.557  10.026  0.00  0.00     0.198 C 
BRANCH  21  22
HETATM   22  O   UNK N   1      33.465  15.001  11.019  0.00  0.00    -0.398 OA
HETATM   23  H   UNK N   1      33.047  15.485  11.749  0.00  0.00     0.209 HD
ENDBRANCH  21  22
ENDBRANCH  17  21
ENDBRANCH   1  14
BRANCH   6  24
HETATM   24  O   UNK N   1      27.317  18.505   5.142  0.00  0.00    -0.388 OA
HETATM   25  H   UNK N   1      27.892  18.490   4.360  0.00  0.00     0.210 HD
ENDBRANCH   6  24
TORSDOF 5
ENDMDL
MODEL 3
REMARK VINA RESULT:      -5.9     13.532     15.141
REMARK  5 active torsions:
REMARK  status: ('A' for Active; 'I' for Inactive)
REMARK    1  A    between atoms: C_1  and  N_9 
REMARK    2  A    between atoms: C_4  and  C_7 
REMARK    3  A    between atoms: C_5  and  O_6 
REMARK    4  A    between atoms: C_7  and  O_8 
REMARK    5  A    between atoms: C_14  and  O_21 
ROOT
HETATM    1  N   UNK N   1      28.155  23.307  -5.547  0.00  0.00    -0.300 N 
HETATM    2  N   UNK N   1      28.724  21.741  -7.347  0.00  0.00    -0.337 N 
ATOM      3  HN  UNK N   1      29.684  21.724  -7.006  1.00  0.00     0.168 HD
HETATM    4  C   UNK N   1      27.857  22.673  -6.704  0.00  0.00     0.137 A 
HETATM    5  C   UNK N   1      26.595  23.060  -7.091  0.00  0.00     0.085 A 
HETATM    6  C   UNK N   1      25.853  22.602  -8.294  0.00  0.00     0.189 C 
HETATM    7  C   UNK N   1      28.453  20.909  -8.306  0.00  0.00     0.177 C 
HETATM    8  C   UNK N   1      25.902  21.100  -8.322  0.00  0.00     0.158 C 
HETATM    9  N   UNK N   1      27.164  20.676  -8.874  0.00  0.00    -0.383 N 
HETATM   10  N   UNK N   1      26.101  23.919  -6.178  0.00  0.00    -0.350 N 
ATOM     11  HN  UNK N   1      25.188  24.375  -6.189  1.00  0.00     0.166 HD
HETATM   12  C   UNK N   1      27.069  24.051  -5.244  0.00  0.00     0.187 A 
HETATM   13  H   UNK N   1      27.133  20.177  -9.722  0.00  0.00     0.160 HD
ENDROOT
BRANCH   1  14
HETATM   14  C   UNK N   1      29.340  23.220  -4.683  0.00  0.00     0.233 C 
HETATM   15  C   UNK N   1      29.147  23.769  -3.289  0.00  0.00     0.088 C 
HETATM   16  C   UNK N   1      30.339  23.167  -2.633  0.00  0.00     0.153 C 
HETATM   17  C   UNK N   1      30.426  21.815  -3.302  0.00  0.00     0.176 C 
HETATM   18  O   UNK N   1      29.781  21.889  -4.555  0.00  0.00    -0.356 OA
BRANCH  16  19
HETATM   19  O   UNK N   1      30.146  23.028  -1.259  0.00  0.00    -0.393 OA
HETATM   20  H   UNK N   1      29.889  22.253  -0.735  0.00  0.00     0.210 HD
ENDBRANCH  16  19
BRANCH  17  21
HETATM   21  C   UNK N   1      31.891  21.440  -3.467  0.00  0.00     0.198 C 
BRANCH  21  22
HETATM   22  O   UNK N   1      32.503  21.323  -2.220  0.00  0.00    -0.398 OA
HETATM   23  H   UNK N   1      32.151  20.838  -1.457  0.00  0.00     0.209 HD
ENDBRANCH  21  22
ENDBRANCH  17  21
ENDBRANCH   1  14
BRANCH   6  24
HETATM   24  O   UNK N   1      24.525  23.031  -8.236  0.00  0.00    -0.388 OA
HETATM   25  H   UNK N   1      23.877  22.710  -8.883  0.00  0.00     0.210 HD
ENDBRANCH   6  24
TORSDOF 5
ENDMDL
MODEL 4
REMARK VINA RESULT:      -5.7      3.876      6.218
REMARK  5 active torsions:
REMARK  status: ('A' for Active; 'I' for Inactive)
REMARK    1  A    between atoms: C_1  and  N_9 
REMARK    2  A    between atoms: C_4  and  C_7 
REMARK    3  A    between atoms: C_5  and  O_6 
REMARK    4  A    between atoms: C_7  and  O_8 
REMARK    5  A    between atoms: C_14  and  O_21 
ROOT
HETATM    1  N   UNK N   1      35.078  15.085  10.923  0.00  0.00    -0.300 N 
HETATM    2  N   UNK N   1      33.463  14.312   9.245  0.00  0.00    -0.337 N 
ATOM      3  HN  UNK N   1      33.632  13.354   9.548  1.00  0.00     0.168 HD
HETATM    4  C   UNK N   1      34.300  15.303   9.838  0.00  0.00     0.137 A 
HETATM    5  C   UNK N   1      34.442  16.621   9.469  0.00  0.00     0.085 A 
HETATM    6  C   UNK N   1      33.762  17.307   8.340  0.00  0.00     0.189 C 
HETATM    7  C   UNK N   1      32.514  14.467   8.374  0.00  0.00     0.177 C 
HETATM    8  C   UNK N   1      32.291  17.014   8.442  0.00  0.00     0.158 C 
HETATM    9  N   UNK N   1      32.025  15.714   7.880  0.00  0.00    -0.383 N 
HETATM   10  N   UNK N   1      35.291  17.226  10.322  0.00  0.00    -0.350 N 
ATOM     11  HN  UNK N   1      35.592  18.201  10.308  1.00  0.00     0.166 HD
HETATM   12  C   UNK N   1      35.663  16.269  11.202  0.00  0.00     0.187 A 
HETATM   13  H   UNK N   1      31.452  15.684   7.080  0.00  0.00     0.160 HD
ENDROOT
BRANCH   1  14
HETATM   14  C   UNK N   1      35.262  13.880  11.743  0.00  0.00     0.233 C 
HETATM   15  C   UNK N   1      36.651  13.287  11.691  0.00  0.00     0.088 C 
HETATM   16  C   UNK N   1      36.571  12.400  12.884  0.00  0.00     0.153 C 
HETATM   17  C   UNK N   1      35.740  13.222  13.842  0.00  0.00     0.176 C 
HETATM   18  O   UNK N   1      34.962  14.133  13.096  0.00  0.00    -0.356 OA
BRANCH  16  19
HETATM   19  O   UNK N   1      37.837  12.151  13.416  0.00  0.00    -0.393 OA
HETATM   20  H   UNK N   1      38.426  11.389  13.304  0.00  0.00     0.210 HD
ENDBRANCH  16  19
BRANCH  17  21
HETATM   21  C   UNK N   1      34.853  12.287  14.651  0.00  0.00     0.198 C 
BRANCH  21  22
HETATM   22  O   UNK N   1      34.132  13.009  15.601  0.00  0.00    -0.398 OA
HETATM   23  H   UNK N   1      34.297  13.929  15.862  0.00  0.00     0.209 HD
ENDBRANCH  21  22
ENDBRANCH  17  21
ENDBRANCH   1  14
BRANCH   6  24
HETATM   24  O   UNK N   1      33.975  18.685   8.413  0.00  0.00    -0.388 OA
HETATM   25  H   UNK N   1      33.862  19.243   7.626  0.00  0.00     0.210 HD
ENDBRANCH   6  24
TORSDOF 5
ENDMDL
MODEL 5
REMARK VINA RESULT:      -5.6      6.544     11.053
REMARK  5 active torsions:
REMARK  status: ('A' for Active; 'I' for Inactive)
REMARK    1  A    between atoms: C_1  and  N_9 
REMARK    2  A    between atoms: C_4  and  C_7 
REMARK    3  A    between atoms: C_5  and  O_6 
REMARK    4  A    between atoms: C_7  and  O_8 
REMARK    5  A    between atoms: C_14  and  O_21 
ROOT
HETATM    1  N   UNK N   1      23.682  19.470   3.896  0.00  0.00    -0.300 N 
HETATM    2  N   UNK N   1      23.710  17.486   5.338  0.00  0.00    -0.337 N 
ATOM      3  HN  UNK N   1      22.692  17.518   5.374  1.00  0.00     0.168 HD
HETATM    4  C   UNK N   1      24.339  18.580   4.675  0.00  0.00     0.137 A 
HETATM    5  C   UNK N   1      25.676  18.905   4.661  0.00  0.00     0.085 A 
HETATM    6  C   UNK N   1      26.773  18.191   5.363  0.00  0.00     0.189 C 
HETATM    7  C   UNK N   1      24.259  16.453   5.900  0.00  0.00     0.177 C 
HETATM    8  C   UNK N   1      26.652  16.728   5.038  0.00  0.00     0.158 C 
HETATM    9  N   UNK N   1      25.651  16.133   5.887  0.00  0.00    -0.383 N 
HETATM   10  N   UNK N   1      25.856  19.982   3.871  0.00  0.00    -0.350 N 
ATOM     11  HN  UNK N   1      26.737  20.454   3.662  1.00  0.00     0.166 HD
HETATM   12  C   UNK N   1      24.626  20.305   3.413  0.00  0.00     0.187 A 
HETATM   13  H   UNK N   1      25.955  15.441   6.518  0.00  0.00     0.160 HD
ENDROOT
BRANCH   1  14
HETATM   14  C   UNK N   1      22.263  19.556   3.526  0.00  0.00     0.233 C 
HETATM   15  C   UNK N   1      21.960  20.526   2.408  0.00  0.00     0.088 C 
HETATM   16  C   UNK N   1      20.590  20.060   2.059  0.00  0.00     0.153 C 
HETATM   17  C   UNK N   1      20.703  18.564   2.244  0.00  0.00     0.176 C 
HETATM   18  O   UNK N   1      21.758  18.299   3.143  0.00  0.00    -0.356 OA
BRANCH  16  19
HETATM   19  O   UNK N   1      20.270  20.372   0.737  0.00  0.00    -0.393 OA
HETATM   20  H   UNK N   1      19.419  20.603   0.335  0.00  0.00     0.210 HD
ENDBRANCH  16  19
BRANCH  17  21
HETATM   21  C   UNK N   1      19.383  18.034   2.786  0.00  0.00     0.198 C 
BRANCH  21  22
HETATM   22  O   UNK N   1      18.336  18.876   2.413  0.00  0.00    -0.398 OA
HETATM   23  H   UNK N   1      17.535  18.609   1.935  0.00  0.00     0.209 HD
ENDBRANCH  21  22
ENDBRANCH  17  21
ENDBRANCH   1  14
BRANCH   6  24
HETATM   24  O   UNK N   1      28.013  18.669   4.936  0.00  0.00    -0.388 OA
HETATM   25  H   UNK N   1      28.813  18.132   5.052  0.00  0.00     0.210 HD
ENDBRANCH   6  24
TORSDOF 5
ENDMDL
MODEL 6
REMARK VINA RESULT:      -5.6      1.870      6.709
REMARK  5 active torsions:
REMARK  status: ('A' for Active; 'I' for Inactive)
REMARK    1  A    between atoms: C_1  and  N_9 
REMARK    2  A    between atoms: C_4  and  C_7 
REMARK    3  A    between atoms: C_5  and  O_6 
REMARK    4  A    between atoms: C_7  and  O_8 
REMARK    5  A    between atoms: C_14  and  O_21 
ROOT
HETATM    1  N   UNK N   1      29.208  18.074   7.792  0.00  0.00    -0.300 N 
HETATM    2  N   UNK N   1      30.545  17.296   5.888  0.00  0.00    -0.337 N 
ATOM      3  HN  UNK N   1      29.700  17.293   5.318  1.00  0.00     0.168 HD
HETATM    4  C   UNK N   1      30.352  17.573   7.274  0.00  0.00     0.137 A 
HETATM    5  C   UNK N   1      31.261  17.434   8.298  0.00  0.00     0.085 A 
HETATM    6  C   UNK N   1      32.656  16.935   8.188  0.00  0.00     0.189 C 
HETATM    7  C   UNK N   1      31.651  17.050   5.255  0.00  0.00     0.177 C 
HETATM    8  C   UNK N   1      33.329  17.690   7.076  0.00  0.00     0.158 C 
HETATM    9  N   UNK N   1      32.964  17.101   5.813  0.00  0.00    -0.383 N 
HETATM   10  N   UNK N   1      30.694  17.855   9.445  0.00  0.00    -0.350 N 
ATOM     11  HN  UNK N   1      31.120  17.877  10.373  1.00  0.00     0.166 HD
HETATM   12  C   UNK N   1      29.444  18.244   9.110  0.00  0.00     0.187 A 
HETATM   13  H   UNK N   1      33.690  16.697   5.284  0.00  0.00     0.160 HD
ENDROOT
BRANCH   1  14
HETATM   14  C   UNK N   1      27.948  18.458   7.141  0.00  0.00     0.233 C 
HETATM   15  C   UNK N   1      27.865  19.910   6.734  0.00  0.00     0.088 C 
HETATM   16  C   UNK N   1      26.708  19.827   5.802  0.00  0.00     0.153 C 
HETATM   17  C   UNK N   1      26.927  18.488   5.136  0.00  0.00     0.176 C 
HETATM   18  O   UNK N   1      27.712  17.683   5.990  0.00  0.00    -0.356 OA
BRANCH  16  19
HETATM   19  O   UNK N   1      26.737  20.857   4.863  0.00  0.00    -0.393 OA
HETATM   20  H   UNK N   1      26.788  21.818   4.985  0.00  0.00     0.210 HD
ENDBRANCH  16  19
BRANCH  17  21
HETATM   21  C   UNK N   1      25.575  17.841   4.873  0.00  0.00     0.198 C 
BRANCH  21  22
HETATM   22  O   UNK N   1      24.549  18.663   5.338  0.00  0.00    -0.398 OA
HETATM   23  H   UNK N   1      23.688  18.795   4.910  0.00  0.00     0.209 HD
ENDBRANCH  21  22
ENDBRANCH  17  21
ENDBRANCH   1  14
BRANCH   6  24
HETATM   24  O   UNK N   1      33.341  17.148   9.386  0.00  0.00    -0.388 OA
HETATM   25  H   UNK N   1      34.299  17.306   9.383  0.00  0.00     0.210 HD
ENDBRANCH   6  24
TORSDOF 5
ENDMDL
MODEL 7
REMARK VINA RESULT:      -5.6      3.019      6.450
REMARK  5 active torsions:
REMARK  status: ('A' for Active; 'I' for Inactive)
REMARK    1  A    between atoms: C_1  and  N_9 
REMARK    2  A    between atoms: C_4  and  C_7 
REMARK    3  A    between atoms: C_5  and  O_6 
REMARK    4  A    between atoms: C_7  and  O_8 
REMARK    5  A    between atoms: C_14  and  O_21 
ROOT
HETATM    1  N   UNK N   1      33.554  17.243   7.576  0.00  0.00    -0.300 N 
HETATM    2  N   UNK N   1      33.625  14.801   7.802  0.00  0.00    -0.337 N 
ATOM      3  HN  UNK N   1      32.835  14.736   7.162  1.00  0.00     0.168 HD
HETATM    4  C   UNK N   1      33.996  16.122   8.190  0.00  0.00     0.137 A 
HETATM    5  C   UNK N   1      34.867  16.497   9.188  0.00  0.00     0.085 A 
HETATM    6  C   UNK N   1      35.605  15.596  10.110  0.00  0.00     0.189 C 
HETATM    7  C   UNK N   1      34.160  13.672   8.150  0.00  0.00     0.177 C 
HETATM    8  C   UNK N   1      36.285  14.543   9.278  0.00  0.00     0.158 C 
HETATM    9  N   UNK N   1      35.334  13.512   8.948  0.00  0.00    -0.383 N 
HETATM   10  N   UNK N   1      34.977  17.840   9.191  0.00  0.00    -0.350 N 
ATOM     11  HN  UNK N   1      35.551  18.411   9.812  1.00  0.00     0.166 HD
HETATM   12  C   UNK N   1      34.170  18.271   8.196  0.00  0.00     0.187 A 
HETATM   13  H   UNK N   1      35.512  12.612   9.305  0.00  0.00     0.160 HD
ENDROOT
BRANCH   1  14
HETATM   14  C   UNK N   1      32.656  17.415   6.426  0.00  0.00     0.233 C 
HETATM   15  C   UNK N   1      33.355  17.530   5.092  0.00  0.00     0.088 C 
HETATM   16  C   UNK N   1      32.192  17.287   4.196  0.00  0.00     0.153 C 
HETATM   17  C   UNK N   1      31.407  16.247   4.963  0.00  0.00     0.176 C 
HETATM   18  O   UNK N   1      31.739  16.351   6.331  0.00  0.00    -0.356 OA
BRANCH  16  19
HETATM   19  O   UNK N   1      32.600  16.786   2.959  0.00  0.00    -0.393 OA
HETATM   20  H   UNK N   1      32.908  15.901   2.711  0.00  0.00     0.210 HD
ENDBRANCH  16  19
BRANCH  17  21
HETATM   21  C   UNK N   1      29.921  16.492   4.745  0.00  0.00     0.198 C 
BRANCH  21  22
HETATM   22  O   UNK N   1      29.732  17.461   3.760  0.00  0.00    -0.398 OA
HETATM   23  H   UNK N   1      29.028  18.128   3.747  0.00  0.00     0.209 HD
ENDBRANCH  21  22
ENDBRANCH  17  21
ENDBRANCH   1  14
BRANCH   6  24
HETATM   24  O   UNK N   1      36.559  16.317  10.831  0.00  0.00    -0.388 OA
HETATM   25  H   UNK N   1      37.255  16.811  10.368  0.00  0.00     0.210 HD
ENDBRANCH   6  24
TORSDOF 5
ENDMDL
MODEL 8
REMARK VINA RESULT:      -5.4      8.826     11.225
REMARK  5 active torsions:
REMARK  status: ('A' for Active; 'I' for Inactive)
REMARK    1  A    between atoms: C_1  and  N_9 
REMARK    2  A    between atoms: C_4  and  C_7 
REMARK    3  A    between atoms: C_5  and  O_6 
REMARK    4  A    between atoms: C_7  and  O_8 
REMARK    5  A    between atoms: C_14  and  O_21 
ROOT
HETATM    1  N   UNK N   1      35.144  11.735  16.164  0.00  0.00    -0.300 N 
HETATM    2  N   UNK N   1      36.191  13.772  15.286  0.00  0.00    -0.337 N 
ATOM      3  HN  UNK N   1      36.383  14.066  16.242  1.00  0.00     0.168 HD
HETATM    4  C   UNK N   1      35.404  12.591  15.149  0.00  0.00     0.137 A 
HETATM    5  C   UNK N   1      34.821  12.090  14.008  0.00  0.00     0.085 A 
HETATM    6  C   UNK N   1      34.862  12.692  12.650  0.00  0.00     0.189 C 
HETATM    7  C   UNK N   1      36.698  14.522  14.355  0.00  0.00     0.177 C 
HETATM    8  C   UNK N   1      36.296  13.010  12.331  0.00  0.00     0.158 C 
HETATM    9  N   UNK N   1      36.655  14.260  12.952  0.00  0.00    -0.383 N 
HETATM   10  N   UNK N   1      34.211  10.926  14.303  0.00  0.00    -0.350 N 
ATOM     11  HN  UNK N   1      33.695  10.319  13.664  1.00  0.00     0.166 HD
HETATM   12  C   UNK N   1      34.426  10.729  15.623  0.00  0.00     0.187 A 
HETATM   13  H   UNK N   1      36.894  15.003  12.352  0.00  0.00     0.160 HD
ENDROOT
BRANCH   1  14
HETATM   14  C   UNK N   1      35.567  11.759  17.571  0.00  0.00     0.233 C 
HETATM   15  C   UNK N   1      35.150  12.994  18.334  0.00  0.00     0.088 C 
HETATM   16  C   UNK N   1      35.375  12.500  19.720  0.00  0.00     0.153 C 
HETATM   17  C   UNK N   1      34.955  11.052  19.617  0.00  0.00     0.176 C 
HETATM   18  O   UNK N   1      35.073  10.642  18.271  0.00  0.00    -0.356 OA
BRANCH  16  19
HETATM   19  O   UNK N   1      34.576  13.182  20.638  0.00  0.00    -0.393 OA
HETATM   20  H   UNK N   1      33.882  12.856  21.231  0.00  0.00     0.210 HD
ENDBRANCH  16  19
BRANCH  17  21
HETATM   21  C   UNK N   1      35.850  10.214  20.519  0.00  0.00     0.198 C 
BRANCH  21  22
HETATM   22  O   UNK N   1      36.582  11.039  21.372  0.00  0.00    -0.398 OA
HETATM   23  H   UNK N   1      37.144  10.743  22.105  0.00  0.00     0.209 HD
ENDBRANCH  21  22
ENDBRANCH  17  21
ENDBRANCH   1  14
BRANCH   6  24
HETATM   24  O   UNK N   1      34.357  11.794  11.708  0.00  0.00    -0.388 OA
HETATM   25  H   UNK N   1      33.507  11.349  11.859  0.00  0.00     0.210 HD
ENDBRANCH   6  24
TORSDOF 5
ENDMDL
MODEL 9
REMARK VINA RESULT:      -5.4      1.846      2.210
REMARK  5 active torsions:
REMARK  status: ('A' for Active; 'I' for Inactive)
REMARK    1  A    between atoms: C_1  and  N_9 
REMARK    2  A    between atoms: C_4  and  C_7 
REMARK    3  A    between atoms: C_5  and  O_6 
REMARK    4  A    between atoms: C_7  and  O_8 
REMARK    5  A    between atoms: C_14  and  O_21 
ROOT
HETATM    1  N   UNK N   1      30.389  17.179   5.942  0.00  0.00    -0.300 N 
HETATM    2  N   UNK N   1      29.084  17.665   7.962  0.00  0.00    -0.337 N 
ATOM      3  HN  UNK N   1      29.673  17.013   8.478  1.00  0.00     0.168 HD
HETATM    4  C   UNK N   1      29.310  17.717   6.554  0.00  0.00     0.137 A 
HETATM    5  C   UNK N   1      28.536  18.331   5.596  0.00  0.00     0.085 A 
HETATM    6  C   UNK N   1      27.265  19.066   5.816  0.00  0.00     0.189 C 
HETATM    7  C   UNK N   1      28.232  18.337   8.672  0.00  0.00     0.177 C 
HETATM    8  C   UNK N   1      27.489  20.054   6.927  0.00  0.00     0.158 C 
HETATM    9  N   UNK N   1      27.377  19.377   8.194  0.00  0.00    -0.383 N 
HETATM   10  N   UNK N   1      29.132  18.188   4.396  0.00  0.00    -0.350 N 
ATOM     11  HN  UNK N   1      28.801  18.538   3.496  1.00  0.00     0.166 HD
HETATM   12  C   UNK N   1      30.262  17.486   4.633  0.00  0.00     0.187 A 
HETATM   13  H   UNK N   1      26.643  19.659   8.786  0.00  0.00     0.160 HD
ENDROOT
BRANCH   1  14
HETATM   14  C   UNK N   1      31.546  16.462   6.494  0.00  0.00     0.233 C 
HETATM   15  C   UNK N   1      32.750  16.409   5.582  0.00  0.00     0.088 C 
HETATM   16  C   UNK N   1      33.779  16.001   6.577  0.00  0.00     0.153 C 
HETATM   17  C   UNK N   1      33.345  16.751   7.815  0.00  0.00     0.176 C 
HETATM   18  O   UNK N   1      31.965  17.030   7.713  0.00  0.00    -0.356 OA
BRANCH  16  19
HETATM   19  O   UNK N   1      35.055  16.401   6.179  0.00  0.00    -0.393 OA
HETATM   20  H   UNK N   1      35.860  16.545   6.700  0.00  0.00     0.210 HD
ENDBRANCH  16  19
BRANCH  17  21
HETATM   21  C   UNK N   1      33.635  15.894   9.038  0.00  0.00     0.198 C 
BRANCH  21  22
HETATM   22  O   UNK N   1      34.627  14.958   8.746  0.00  0.00    -0.398 OA
HETATM   23  H   UNK N   1      35.583  15.104   8.813  0.00  0.00     0.209 HD
ENDBRANCH  21  22
ENDBRANCH  17  21
ENDBRANCH   1  14
BRANCH   6  24
HETATM   24  O   UNK N   1      26.889  19.741   4.652  0.00  0.00    -0.388 OA
HETATM   25  H   UNK N   1      27.338  20.561   4.393  0.00  0.00     0.210 HD
ENDBRANCH   6  24
TORSDOF 5
ENDMDL
