MODEL 1
REMARK VINA RESULT:      -6.3      0.000      0.000
REMARK  2 active torsions:
REMARK  status: ('A' for Active; 'I' for Inactive)
REMARK    1  A    between atoms: C_1  and  C_2 
REMARK    2  A    between atoms: C_2  and  C_5 
REMARK       I    between atoms: C_5  and  N_10 
REMARK       I    between atoms: N_10  and  C_13 
REMARK       I    between atoms: C_13  and  N_14 
ROOT
HETATM    1  C   UNK N   1      20.183  14.754   9.101  0.00  0.00     0.240 C 
HETATM    2  N   UNK N   1      20.362  16.068   8.798  0.00  0.00    -0.160 N 
HETATM    3  O   UNK N   1      19.135  14.386   9.590  0.00  0.00    -0.272 OA
HETATM    4  C   UNK N   1      19.390  17.095   9.011  0.00  0.00     0.672 C 
HETATM    5  N   UNK N   1      19.693  18.425   8.655  0.00  0.00    -0.235 N 
HETATM    6  N   UNK N   1      18.241  16.830   9.523  0.00  0.00    -0.235 N 
ATOM      7  HN  UNK N   1      18.008  15.873   9.786  1.00  0.00     0.174 HD
HETATM    8  H   UNK N   1      21.224  16.332   8.402  0.00  0.00     0.187 HD
HETATM    9  H   UNK N   1      20.569  18.642   8.262  0.00  0.00     0.174 HD
HETATM   10  H   UNK N   1      19.029  19.138   8.799  0.00  0.00     0.174 HD
HETATM   11  H   UNK N   1      17.586  17.552   9.662  0.00  0.00     0.174 HD
ENDROOT
BRANCH   1  12
HETATM   12  C   UNK N   1      21.305  13.785   8.817  0.00  0.00     0.145 C 
BRANCH  12  13
HETATM   13  C   UNK N   1      22.312  13.115   9.764  0.00  0.00    -0.006 A 
HETATM   14  C   UNK N   1      22.038  12.416  10.991  0.00  0.00     0.042 A 
HETATM   15  C   UNK N   1      23.093  11.867  11.725  0.00  0.00     0.024 A 
HETATM   16 Cl   UNK N   1      20.472  12.149  11.724  0.00  0.00    -0.084 Cl
HETATM   17  C   UNK N   1      24.408  11.979  11.299  0.00  0.00     0.003 A 
HETATM   18  C   UNK N   1      24.693  12.648  10.120  0.00  0.00     0.024 A 
HETATM   19  C   UNK N   1      23.670  13.211   9.357  0.00  0.00     0.042 A 
HETATM   20 Cl   UNK N   1      24.137  14.041   7.875  0.00  0.00    -0.084 Cl
ENDBRANCH  12  13
ENDBRANCH   1  12
TORSDOF 2
ENDMDL
MODEL 2
REMARK VINA RESULT:      -6.1      1.160      2.804
REMARK  2 active torsions:
REMARK  status: ('A' for Active; 'I' for Inactive)
REMARK    1  A    between atoms: C_1  and  C_2 
REMARK    2  A    between atoms: C_2  and  C_5 
REMARK       I    between atoms: C_5  and  N_10 
REMARK       I    between atoms: N_10  and  C_13 
REMARK       I    between atoms: C_13  and  N_14 
ROOT
HETATM    1  C   UNK N   1      20.142  15.614   9.047  0.00  0.00     0.240 C 
HETATM    2  N   UNK N   1      18.843  15.995   9.178  0.00  0.00    -0.160 N 
HETATM    3  O   UNK N   1      21.005  16.455   8.904  0.00  0.00    -0.272 OA
HETATM    4  C   UNK N   1      18.384  17.350   9.163  0.00  0.00     0.672 C 
HETATM    5  N   UNK N   1      17.008  17.620   9.309  0.00  0.00    -0.235 N 
HETATM    6  N   UNK N   1      19.203  18.330   9.018  0.00  0.00    -0.235 N 
ATOM      7  HN  UNK N   1      20.201  18.149   8.911  1.00  0.00     0.174 HD
HETATM    8  H   UNK N   1      18.169  15.287   9.293  0.00  0.00     0.187 HD
HETATM    9  H   UNK N   1      16.370  16.878   9.420  0.00  0.00     0.174 HD
HETATM   10  H   UNK N   1      16.684  18.550   9.299  0.00  0.00     0.174 HD
HETATM   11  H   UNK N   1      18.866  19.256   9.010  0.00  0.00     0.174 HD
ENDROOT
BRANCH   1  12
HETATM   12  C   UNK N   1      20.473  14.141   9.084  0.00  0.00     0.145 C 
BRANCH  12  13
HETATM   13  C   UNK N   1      21.798  13.421   9.375  0.00  0.00    -0.006 A 
HETATM   14  C   UNK N   1      23.036  13.525   8.650  0.00  0.00     0.042 A 
HETATM   15  C   UNK N   1      24.147  12.786   9.068  0.00  0.00     0.024 A 
HETATM   16 Cl   UNK N   1      23.351  14.509   7.238  0.00  0.00    -0.084 Cl
HETATM   17  C   UNK N   1      24.086  11.949  10.171  0.00  0.00     0.003 A 
HETATM   18  C   UNK N   1      22.903  11.834  10.883  0.00  0.00     0.024 A 
HETATM   19  C   UNK N   1      21.772  12.554  10.500  0.00  0.00     0.042 A 
HETATM   20 Cl   UNK N   1      20.317  12.339  11.471  0.00  0.00    -0.084 Cl
ENDBRANCH  12  13
ENDBRANCH   1  12
TORSDOF 2
ENDMDL
MODEL 3
REMARK VINA RESULT:      -6.0     13.839     15.163
REMARK  2 active torsions:
REMARK  status: ('A' for Active; 'I' for Inactive)
REMARK    1  A    between atoms: C_1  and  C_2 
REMARK    2  A    between atoms: C_2  and  C_5 
REMARK       I    between atoms: C_5  and  N_10 
REMARK       I    between atoms: N_10  and  C_13 
REMARK       I    between atoms: C_13  and  N_14 
ROOT
HETATM    1  C   UNK N   1      35.495  14.160  12.805  0.00  0.00     0.240 C 
HETATM    2  N   UNK N   1      35.775  15.359  12.227  0.00  0.00    -0.160 N 
HETATM    3  O   UNK N   1      34.590  13.479  12.371  0.00  0.00    -0.272 OA
HETATM    4  C   UNK N   1      35.070  15.912  11.111  0.00  0.00     0.672 C 
HETATM    5  N   UNK N   1      35.454  17.167  10.599  0.00  0.00    -0.235 N 
HETATM    6  N   UNK N   1      34.091  15.284  10.563  0.00  0.00    -0.235 N 
ATOM      7  HN  UNK N   1      33.803  14.375  10.924  1.00  0.00     0.174 HD
HETATM    8  H   UNK N   1      36.516  15.886  12.604  0.00  0.00     0.187 HD
HETATM    9  H   UNK N   1      36.203  17.658  11.009  0.00  0.00     0.174 HD
HETATM   10  H   UNK N   1      34.975  17.554   9.831  0.00  0.00     0.174 HD
HETATM   11  H   UNK N   1      33.619  15.682   9.796  0.00  0.00     0.174 HD
ENDROOT
BRANCH   1  12
HETATM   12  C   UNK N   1      36.329  13.709  13.980  0.00  0.00     0.145 C 
BRANCH  12  13
HETATM   13  C   UNK N   1      36.076  13.827  15.490  0.00  0.00    -0.006 A 
HETATM   14  C   UNK N   1      36.578  14.827  16.394  0.00  0.00     0.042 A 
HETATM   15  C   UNK N   1      36.236  14.770  17.748  0.00  0.00     0.024 A 
HETATM   16 Cl   UNK N   1      37.617  16.177  15.998  0.00  0.00    -0.084 Cl
HETATM   17  C   UNK N   1      35.419  13.768  18.247  0.00  0.00     0.003 A 
HETATM   18  C   UNK N   1      34.925  12.795  17.394  0.00  0.00     0.024 A 
HETATM   19  C   UNK N   1      35.241  12.815  16.036  0.00  0.00     0.042 A 
HETATM   20 Cl   UNK N   1      34.562  11.533  15.035  0.00  0.00    -0.084 Cl
ENDBRANCH  12  13
ENDBRANCH   1  12
TORSDOF 2
ENDMDL
MODEL 4
REMARK VINA RESULT:      -5.9     14.824     16.137
REMARK  2 active torsions:
REMARK  status: ('A' for Active; 'I' for Inactive)
REMARK    1  A    between atoms: C_1  and  C_2 
REMARK    2  A    between atoms: C_2  and  C_5 
REMARK       I    between atoms: C_5  and  N_10 
REMARK       I    between atoms: N_10  and  C_13 
REMARK       I    between atoms: C_13  and  N_14 
ROOT
HETATM    1  C   UNK N   1      35.232  12.486  17.533  0.00  0.00     0.240 C 
HETATM    2  N   UNK N   1      35.418  11.622  18.567  0.00  0.00    -0.160 N 
HETATM    3  O   UNK N   1      34.906  13.633  17.757  0.00  0.00    -0.272 OA
HETATM    4  C   UNK N   1      35.258  11.956  19.949  0.00  0.00     0.672 C 
HETATM    5  N   UNK N   1      35.479  10.971  20.932  0.00  0.00    -0.235 N 
HETATM    6  N   UNK N   1      34.915  13.139  20.314  0.00  0.00    -0.235 N 
ATOM      7  HN  UNK N   1      34.751  13.862  19.612  1.00  0.00     0.174 HD
HETATM    8  H   UNK N   1      35.682  10.700  18.348  0.00  0.00     0.187 HD
HETATM    9  H   UNK N   1      35.743  10.060  20.666  0.00  0.00     0.174 HD
HETATM   10  H   UNK N   1      35.371  11.192  21.885  0.00  0.00     0.174 HD
HETATM   11  H   UNK N   1      34.810  13.348  21.270  0.00  0.00     0.174 HD
ENDROOT
BRANCH   1  12
HETATM   12  C   UNK N   1      35.440  11.986  16.123  0.00  0.00     0.145 C 
BRANCH  12  13
HETATM   13  C   UNK N   1      35.541  12.751  14.796  0.00  0.00    -0.006 A 
HETATM   14  C   UNK N   1      36.278  13.957  14.526  0.00  0.00     0.042 A 
HETATM   15  C   UNK N   1      36.251  14.513  13.244  0.00  0.00     0.024 A 
HETATM   16 Cl   UNK N   1      37.256  14.867  15.655  0.00  0.00    -0.084 Cl
HETATM   17  C   UNK N   1      35.528  13.928  12.216  0.00  0.00     0.003 A 
HETATM   18  C   UNK N   1      34.811  12.767  12.455  0.00  0.00     0.024 A 
HETATM   19  C   UNK N   1      34.811  12.179  13.720  0.00  0.00     0.042 A 
HETATM   20 Cl   UNK N   1      33.868  10.704  13.919  0.00  0.00    -0.084 Cl
ENDBRANCH  12  13
ENDBRANCH   1  12
TORSDOF 2
ENDMDL
MODEL 5
REMARK VINA RESULT:      -5.9     15.122     16.006
REMARK  2 active torsions:
REMARK  status: ('A' for Active; 'I' for Inactive)
REMARK    1  A    between atoms: C_1  and  C_2 
REMARK    2  A    between atoms: C_2  and  C_5 
REMARK       I    between atoms: C_5  and  N_10 
REMARK       I    between atoms: N_10  and  C_13 
REMARK       I    between atoms: C_13  and  N_14 
ROOT
HETATM    1  C   UNK N   1      35.687  13.355  14.302  0.00  0.00     0.240 C 
HETATM    2  N   UNK N   1      36.772  13.467  13.489  0.00  0.00    -0.160 N 
HETATM    3  O   UNK N   1      34.610  13.055  13.831  0.00  0.00    -0.272 OA
HETATM    4  C   UNK N   1      36.758  13.253  12.074  0.00  0.00     0.672 C 
HETATM    5  N   UNK N   1      37.950  13.399  11.337  0.00  0.00    -0.235 N 
HETATM    6  N   UNK N   1      35.676  12.931  11.459  0.00  0.00    -0.235 N 
ATOM      7  HN  UNK N   1      34.806  12.822  11.980  1.00  0.00     0.174 HD
HETATM    8  H   UNK N   1      37.629  13.712  13.904  0.00  0.00     0.187 HD
HETATM    9  H   UNK N   1      38.785  13.646  11.796  0.00  0.00     0.174 HD
HETATM   10  H   UNK N   1      37.948  13.254  10.363  0.00  0.00     0.174 HD
HETATM   11  H   UNK N   1      35.688  12.788  10.485  0.00  0.00     0.174 HD
ENDROOT
BRANCH   1  12
HETATM   12  C   UNK N   1      35.859  13.611  15.780  0.00  0.00     0.145 C 
BRANCH  12  13
HETATM   13  C   UNK N   1      35.651  12.684  16.986  0.00  0.00    -0.006 A 
HETATM   14  C   UNK N   1      35.703  11.247  17.014  0.00  0.00     0.042 A 
HETATM   15  C   UNK N   1      35.486  10.569  18.216  0.00  0.00     0.024 A 
HETATM   16 Cl   UNK N   1      36.022  10.179  15.665  0.00  0.00    -0.084 Cl
HETATM   17  C   UNK N   1      35.218  11.250  19.394  0.00  0.00     0.003 A 
HETATM   18  C   UNK N   1      35.162  12.635  19.389  0.00  0.00     0.024 A 
HETATM   19  C   UNK N   1      35.374  13.350  18.210  0.00  0.00     0.042 A 
HETATM   20 Cl   UNK N   1      35.282  15.107  18.310  0.00  0.00    -0.084 Cl
ENDBRANCH  12  13
ENDBRANCH   1  12
TORSDOF 2
ENDMDL
MODEL 6
REMARK VINA RESULT:      -5.8     13.903     15.194
REMARK  2 active torsions:
REMARK  status: ('A' for Active; 'I' for Inactive)
REMARK    1  A    between atoms: C_1  and  C_2 
REMARK    2  A    between atoms: C_2  and  C_5 
REMARK       I    between atoms: C_5  and  N_10 
REMARK       I    between atoms: N_10  and  C_13 
REMARK       I    between atoms: C_13  and  N_14 
ROOT
HETATM    1  C   UNK N   1      35.530  13.928  13.151  0.00  0.00     0.240 C 
HETATM    2  N   UNK N   1      35.724  15.118  12.521  0.00  0.00    -0.160 N 
HETATM    3  O   UNK N   1      34.610  13.211  12.815  0.00  0.00    -0.272 OA
HETATM    4  C   UNK N   1      34.910  15.621  11.457  0.00  0.00     0.672 C 
HETATM    5  N   UNK N   1      35.212  16.872  10.883  0.00  0.00    -0.235 N 
HETATM    6  N   UNK N   1      33.906  14.954  11.013  0.00  0.00    -0.235 N 
ATOM      7  HN  UNK N   1      33.676  14.047  11.420  1.00  0.00     0.174 HD
HETATM    8  H   UNK N   1      36.479  15.673  12.819  0.00  0.00     0.187 HD
HETATM    9  H   UNK N   1      35.979  17.393  11.213  0.00  0.00     0.174 HD
HETATM   10  H   UNK N   1      34.658  17.225  10.150  0.00  0.00     0.174 HD
HETATM   11  H   UNK N   1      33.358  15.318  10.280  0.00  0.00     0.174 HD
ENDROOT
BRANCH   1  12
HETATM   12  C   UNK N   1      36.475  13.531  14.260  0.00  0.00     0.145 C 
BRANCH  12  13
HETATM   13  C   UNK N   1      36.432  12.344  15.233  0.00  0.00    -0.006 A 
HETATM   14  C   UNK N   1      35.800  12.284  16.524  0.00  0.00     0.042 A 
HETATM   15  C   UNK N   1      35.868  11.107  17.274  0.00  0.00     0.024 A 
HETATM   16 Cl   UNK N   1      34.910  13.562  17.321  0.00  0.00    -0.084 Cl
HETATM   17  C   UNK N   1      36.533   9.985  16.803  0.00  0.00     0.003 A 
HETATM   18  C   UNK N   1      37.148  10.022  15.562  0.00  0.00     0.024 A 
HETATM   19  C   UNK N   1      37.105  11.177  14.782  0.00  0.00     0.042 A 
HETATM   20 Cl   UNK N   1      37.918  11.122  13.220  0.00  0.00    -0.084 Cl
ENDBRANCH  12  13
ENDBRANCH   1  12
TORSDOF 2
ENDMDL
MODEL 7
REMARK VINA RESULT:      -5.8     11.132     12.763
REMARK  2 active torsions:
REMARK  status: ('A' for Active; 'I' for Inactive)
REMARK    1  A    between atoms: C_1  and  C_2 
REMARK    2  A    between atoms: C_2  and  C_5 
REMARK       I    between atoms: C_5  and  N_10 
REMARK       I    between atoms: N_10  and  C_13 
REMARK       I    between atoms: C_13  and  N_14 
ROOT
HETATM    1  C   UNK N   1      34.301  17.404   9.185  0.00  0.00     0.240 C 
HETATM    2  N   UNK N   1      33.921  16.214   9.725  0.00  0.00    -0.160 N 
HETATM    3  O   UNK N   1      35.326  17.935   9.558  0.00  0.00    -0.272 OA
HETATM    4  C   UNK N   1      34.650  15.505  10.730  0.00  0.00     0.672 C 
HETATM    5  N   UNK N   1      34.154  14.277  11.212  0.00  0.00    -0.235 N 
HETATM    6  N   UNK N   1      35.753  15.965  11.205  0.00  0.00    -0.235 N 
ATOM      7  HN  UNK N   1      36.123  16.853  10.866  1.00  0.00     0.174 HD
HETATM    8  H   UNK N   1      33.084  15.813   9.399  0.00  0.00     0.187 HD
HETATM    9  H   UNK N   1      33.312  13.913  10.857  0.00  0.00     0.174 HD
HETATM   10  H   UNK N   1      34.650  13.782  11.904  0.00  0.00     0.174 HD
HETATM   11  H   UNK N   1      36.239  15.461  11.897  0.00  0.00     0.174 HD
ENDROOT
BRANCH   1  12
HETATM   12  C   UNK N   1      33.424  18.034   8.129  0.00  0.00     0.145 C 
BRANCH  12  13
HETATM   13  C   UNK N   1      32.138  17.524   7.463  0.00  0.00    -0.006 A 
HETATM   14  C   UNK N   1      30.786  17.661   7.934  0.00  0.00     0.042 A 
HETATM   15  C   UNK N   1      29.734  17.127   7.185  0.00  0.00     0.024 A 
HETATM   16 Cl   UNK N   1      30.258  18.453   9.402  0.00  0.00    -0.084 Cl
HETATM   17  C   UNK N   1      29.960  16.462   5.990  0.00  0.00     0.003 A 
HETATM   18  C   UNK N   1      31.255  16.319   5.518  0.00  0.00     0.024 A 
HETATM   19  C   UNK N   1      32.333  16.837   6.235  0.00  0.00     0.042 A 
HETATM   20 Cl   UNK N   1      33.939  16.602   5.549  0.00  0.00    -0.084 Cl
ENDBRANCH  12  13
ENDBRANCH   1  12
TORSDOF 2
ENDMDL
MODEL 8
REMARK VINA RESULT:      -5.7     11.227     12.976
REMARK  2 active torsions:
REMARK  status: ('A' for Active; 'I' for Inactive)
REMARK    1  A    between atoms: C_1  and  C_2 
REMARK    2  A    between atoms: C_2  and  C_5 
REMARK       I    between atoms: C_5  and  N_10 
REMARK       I    between atoms: N_10  and  C_13 
REMARK       I    between atoms: C_13  and  N_14 
ROOT
HETATM    1  C   UNK N   1      34.259  17.387   9.113  0.00  0.00     0.240 C 
HETATM    2  N   UNK N   1      33.904  16.204   9.684  0.00  0.00    -0.160 N 
HETATM    3  O   UNK N   1      35.269  17.953   9.477  0.00  0.00    -0.272 OA
HETATM    4  C   UNK N   1      34.643  15.540  10.712  0.00  0.00     0.672 C 
HETATM    5  N   UNK N   1      34.173  14.314  11.225  0.00  0.00    -0.235 N 
HETATM    6  N   UNK N   1      35.731  16.039  11.181  0.00  0.00    -0.235 N 
ATOM      7  HN  UNK N   1      36.083  16.926  10.819  1.00  0.00     0.174 HD
HETATM    8  H   UNK N   1      33.079  15.774   9.365  0.00  0.00     0.187 HD
HETATM    9  H   UNK N   1      33.341  13.921  10.875  0.00  0.00     0.174 HD
HETATM   10  H   UNK N   1      34.676  13.851  11.934  0.00  0.00     0.174 HD
HETATM   11  H   UNK N   1      36.225  15.566  11.889  0.00  0.00     0.174 HD
ENDROOT
BRANCH   1  12
HETATM   12  C   UNK N   1      33.375  17.967   8.035  0.00  0.00     0.145 C 
BRANCH  12  13
HETATM   13  C   UNK N   1      32.303  17.303   7.157  0.00  0.00    -0.006 A 
HETATM   14  C   UNK N   1      32.498  16.532   5.958  0.00  0.00     0.042 A 
HETATM   15  C   UNK N   1      31.393  16.003   5.288  0.00  0.00     0.024 A 
HETATM   16 Cl   UNK N   1      34.022  16.150   5.188  0.00  0.00    -0.084 Cl
HETATM   17  C   UNK N   1      30.101  16.202   5.751  0.00  0.00     0.003 A 
HETATM   18  C   UNK N   1      29.891  16.942   6.904  0.00  0.00     0.024 A 
HETATM   19  C   UNK N   1      30.967  17.488   7.603  0.00  0.00     0.042 A 
HETATM   20 Cl   UNK N   1      30.594  18.412   9.056  0.00  0.00    -0.084 Cl
ENDBRANCH  12  13
ENDBRANCH   1  12
TORSDOF 2
ENDMDL
MODEL 9
REMARK VINA RESULT:      -5.6      7.997      8.896
REMARK  2 active torsions:
REMARK  status: ('A' for Active; 'I' for Inactive)
REMARK    1  A    between atoms: C_1  and  C_2 
REMARK    2  A    between atoms: C_2  and  C_5 
REMARK       I    between atoms: C_5  and  N_10 
REMARK       I    between atoms: N_10  and  C_13 
REMARK       I    between atoms: C_13  and  N_14 
ROOT
HETATM    1  C   UNK N   1      24.958  20.171   3.082  0.00  0.00     0.240 C 
HETATM    2  N   UNK N   1      23.982  19.482   3.732  0.00  0.00    -0.160 N 
HETATM    3  O   UNK N   1      24.661  20.945   2.195  0.00  0.00    -0.272 OA
HETATM    4  C   UNK N   1      22.583  19.590   3.455  0.00  0.00     0.672 C 
HETATM    5  N   UNK N   1      21.665  18.821   4.198  0.00  0.00    -0.235 N 
HETATM    6  N   UNK N   1      22.143  20.376   2.538  0.00  0.00    -0.235 N 
ATOM      7  HN  UNK N   1      22.796  20.939   1.992  1.00  0.00     0.174 HD
HETATM    8  H   UNK N   1      24.259  18.863   4.445  0.00  0.00     0.187 HD
HETATM    9  H   UNK N   1      21.989  18.215   4.903  0.00  0.00     0.174 HD
HETATM   10  H   UNK N   1      20.701  18.890   4.014  0.00  0.00     0.174 HD
HETATM   11  H   UNK N   1      21.176  20.436   2.363  0.00  0.00     0.174 HD
ENDROOT
BRANCH   1  12
HETATM   12  C   UNK N   1      26.395  19.951   3.487  0.00  0.00     0.145 C 
BRANCH  12  13
HETATM   13  C   UNK N   1      26.993  19.394   4.788  0.00  0.00    -0.006 A 
HETATM   14  C   UNK N   1      27.356  20.121   5.975  0.00  0.00     0.042 A 
HETATM   15  C   UNK N   1      27.890  19.437   7.070  0.00  0.00     0.024 A 
HETATM   16 Cl   UNK N   1      27.206  21.844   6.241  0.00  0.00    -0.084 Cl
HETATM   17  C   UNK N   1      28.083  18.065   7.043  0.00  0.00     0.003 A 
HETATM   18  C   UNK N   1      27.741  17.345   5.909  0.00  0.00     0.024 A 
HETATM   19  C   UNK N   1      27.204  17.989   4.795  0.00  0.00     0.042 A 
HETATM   20 Cl   UNK N   1      26.802  16.984   3.404  0.00  0.00    -0.084 Cl
ENDBRANCH  12  13
ENDBRANCH   1  12
TORSDOF 2
ENDMDL
