REMARK  30 active torsions:
REMARK  status: ('A' for Active; 'I' for Inactive)
REMARK    1  A    between atoms: C_1  and  C_3 
REMARK       I    between atoms: N_2  and  C_6 
REMARK       I    between atoms: C_3  and  N_7 
REMARK    2  A    between atoms: C_6  and  C_10 
REMARK    3  A    between atoms: C_10  and  C_14 
REMARK    4  A    between atoms: C_10  and  N_15 
REMARK    5  A    between atoms: C_12  and  C_17 
REMARK    6  A    between atoms: C_14  and  C_19 
REMARK       I    between atoms: C_17  and  N_20 
REMARK    7  A    between atoms: C_19  and  C_22 
REMARK    8  A    between atoms: N_20  and  C_23 
REMARK    9  A    between atoms: C_22  and  N_24 
REMARK   10  A    between atoms: C_23  and  C_25 
REMARK       I    between atoms: N_24  and  C_26 
REMARK       I    between atoms: C_25  and  N_27 
REMARK       I    between atoms: C_26  and  N_29 
REMARK   11  A    between atoms: N_27  and  C_32 
REMARK   12  A    between atoms: C_32  and  C_33 
REMARK   13  A    between atoms: C_32  and  C_34 
REMARK   14  A    between atoms: C_33  and  C_35 
REMARK       I    between atoms: C_34  and  N_36 
REMARK   15  A    between atoms: N_36  and  C_40 
REMARK   16  A    between atoms: C_40  and  C_43 
REMARK   17  A    between atoms: C_40  and  C_44 
REMARK       I    between atoms: C_43  and  N_46 
REMARK   18  A    between atoms: C_44  and  O_48 
REMARK   19  A    between atoms: C_49  and  C_51 
REMARK       I    between atoms: C_51  and  N_54 
REMARK   20  A    between atoms: N_54  and  C_56 
REMARK   21  A    between atoms: C_56  and  C_57 
REMARK   22  A    between atoms: C_56  and  C_58 
REMARK   23  A    between atoms: C_57  and  C_59 
REMARK       I    between atoms: C_58  and  N_60 
REMARK   24  A    between atoms: N_60  and  C_64 
REMARK   25  A    between atoms: C_64  and  C_67 
REMARK   26  A    between atoms: C_64  and  C_68 
REMARK   27  A    between atoms: C_67  and  C_70 
REMARK   28  A    between atoms: C_68  and  O_71 
REMARK   29  A    between atoms: C_70  and  C_73 
REMARK   30  A    between atoms: C_73  and  N_74 
REMARK       I    between atoms: N_74  and  C_75 
REMARK       I    between atoms: C_75  and  N_76 
ROOT
HETATM    1  C   UNK N   1      10.667 -12.547  -0.014  0.00  0.00     0.241 C 
HETATM    2  N   UNK N   1       9.402 -12.730  -0.457  0.00  0.00    -0.344 N 
HETATM    3  O   UNK N   1      10.893 -12.441   1.182  0.00  0.00    -0.271 OA
HETATM    4  H   UNK N   1       9.246 -12.754  -1.429  0.00  0.00     0.163 HD
ENDROOT
BRANCH   1   5
HETATM    5  C   UNK N   1      11.785 -12.564  -1.022  0.00  0.00     0.180 C 
BRANCH   5   6
HETATM    6  N   UNK N   1      12.963 -11.741  -0.807  0.00  0.00    -0.346 N 
HETATM    7  C   UNK N   1      13.747 -11.750   0.302  0.00  0.00     0.236 C 
HETATM    8  O   UNK N   1      13.476 -12.450   1.264  0.00  0.00    -0.272 OA
HETATM    9  H   UNK N   1      13.216 -11.122  -1.529  0.00  0.00     0.163 HD
BRANCH   7  10
HETATM   10  C   UNK N   1      14.961 -10.876   0.344  0.00  0.00     0.225 C 
BRANCH  10  11
HETATM   11  N   UNK N   1      16.125 -11.573   0.846  0.00  0.00    -0.351 N 
HETATM   12  C   UNK N   1      16.673 -12.639   0.218  0.00  0.00     0.241 C 
HETATM   13  O   UNK N   1      16.170 -13.077  -0.809  0.00  0.00    -0.271 OA
HETATM   14  H   UNK N   1      16.537 -11.258   1.682  0.00  0.00     0.163 HD
BRANCH  12  15
HETATM   15  C   UNK N   1      17.927 -13.265   0.777  0.00  0.00     0.179 C 
HETATM   16  N   UNK N   1      18.921 -13.356  -0.258  0.00  0.00    -0.337 N 
HETATM   17  C   UNK N   1      20.019 -12.546  -0.330  0.00  0.00     0.243 C 
HETATM   18  C   UNK N   1      18.833 -14.563  -1.033  0.00  0.00     0.127 C 
HETATM   19  O   UNK N   1      20.868 -12.752  -1.188  0.00  0.00    -0.271 OA
HETATM   20  C   UNK N   1      17.922 -15.473  -0.212  0.00  0.00     0.022 C 
HETATM   21  C   UNK N   1      17.646 -14.722   1.096  0.00  0.00     0.037 C 
BRANCH  17  22
HETATM   22  C   UNK N   1      20.256 -11.448   0.689  0.00  0.00     0.179 C 
HETATM   23  N   UNK N   1      20.571 -10.173   0.086  0.00  0.00    -0.337 N 
HETATM   24  C   UNK N   1      21.962  -9.810   0.161  0.00  0.00     0.127 C 
HETATM   25  C   UNK N   1      19.643  -9.289  -0.394  0.00  0.00     0.242 C 
HETATM   26  C   UNK N   1      22.643 -11.005   0.800  0.00  0.00     0.022 C 
HETATM   27  C   UNK N   1      21.521 -11.797   1.464  0.00  0.00     0.037 C 
HETATM   28  O   UNK N   1      20.002  -8.189  -0.786  0.00  0.00    -0.271 OA
BRANCH  25  29
HETATM   29  C   UNK N   1      18.175  -9.645  -0.434  0.00  0.00     0.167 C 
BRANCH  29  30
HETATM   30  C   UNK N   1      17.268  -8.469  -0.781  0.00  0.00     0.036 C 
BRANCH  30  31
HETATM   31  C   UNK N   1      17.264  -7.361   0.258  0.00  0.00     0.023 C 
BRANCH  31  32
HETATM   32  C   UNK N   1      17.106  -6.069  -0.517  0.00  0.00     0.138 C 
BRANCH  32  33
HETATM   33  N   UNK N   1      16.352  -5.093   0.228  0.00  0.00    -0.227 N 
HETATM   34  C   UNK N   1      16.778  -3.743   0.309  0.00  0.00     0.665 C 
HETATM   35  N   UNK N   1      15.921  -2.774   0.872  0.00  0.00    -0.235 N 
HETATM   36  N   UNK N   1      17.894  -3.378  -0.210  0.00  0.00    -0.235 N 
HETATM   37  H   UNK N   1      16.208  -1.918   1.266  0.00  0.00     0.174 HD
HETATM   38  H   UNK N   1      14.956  -2.970   0.872  0.00  0.00     0.174 HD
HETATM   39  H   UNK N   1      18.564  -3.980  -0.607  0.00  0.00     0.174 HD
ATOM     40  HN  UNK N   1      18.104  -2.380  -0.210  1.00  0.00     0.174 HD
HETATM   41  H   UNK N   1      15.527  -5.369   0.688  0.00  0.00     0.177 HD
ENDBRANCH  32  33
ENDBRANCH  31  32
ENDBRANCH  30  31
ENDBRANCH  29  30
BRANCH  29  42
HETATM   42  N   UNK N   1      17.982 -10.648  -1.463  0.00  0.00    -0.418 N 
HETATM   43  H   UNK N   1      17.304 -10.883  -2.187  0.00  0.00     0.150 HD
HETATM   44  H   UNK N   1      18.754 -11.315  -1.463  0.00  0.00     0.150 HD
ENDBRANCH  29  42
ENDBRANCH  25  29
ENDBRANCH  17  22
ENDBRANCH  12  15
ENDBRANCH  10  11
ENDBRANCH   7  10
ENDBRANCH   5   6
BRANCH   5  45
HETATM   45  C   UNK N   1      12.015 -13.879  -1.765  0.00  0.00     0.073 C 
BRANCH  45  46
HETATM   46  C   UNK N   1      12.509 -14.977  -0.882  0.00  0.00    -0.056 A 
HETATM   47  C   UNK N   1      13.807 -14.943  -0.364  0.00  0.00     0.007 A 
HETATM   48  C   UNK N   1      14.267 -15.981   0.449  0.00  0.00     0.001 A 
HETATM   49  C   UNK N   1      13.431 -17.062   0.740  0.00  0.00     0.000 A 
HETATM   50  C   UNK N   1      12.136 -17.105   0.216  0.00  0.00     0.001 A 
HETATM   51  C   UNK N   1      11.676 -16.065  -0.598  0.00  0.00     0.007 A 
ENDBRANCH  45  46
ENDBRANCH   5  45
ENDBRANCH   1   5
BRANCH   2  52
HETATM   52  C   UNK N   1       8.266 -12.890   0.422  0.00  0.00     0.200 C 
BRANCH  52  53
HETATM   53  C   UNK N   1       7.006 -12.861  -0.396  0.00  0.00     0.245 C 
HETATM   54  N   UNK N   1       6.006 -11.979  -0.115  0.00  0.00    -0.337 N 
HETATM   55  C   UNK N   1       6.040 -11.080   1.014  0.00  0.00     0.179 A 
HETATM   56  C   UNK N   1       4.787 -11.956  -0.870  0.00  0.00     0.127 A 
HETATM   57  C   UNK N   1       4.660 -10.437   1.042  0.00  0.00     0.037 A 
HETATM   58  C   UNK N   1       3.914 -10.910  -0.204  0.00  0.00     0.022 A 
HETATM   59  O   UNK N   1       6.879 -13.649  -1.327  0.00  0.00    -0.271 OA
BRANCH  55  60
HETATM   60  C   UNK N   1       7.088  -9.997   0.923  0.00  0.00     0.241 C 
HETATM   61  N   UNK N   1       7.874  -9.867  -0.185  0.00  0.00    -0.346 N 
HETATM   62  H   UNK N   1       7.832 -10.589  -0.854  0.00  0.00     0.163 HD
HETATM   63  O   UNK N   1       7.193  -9.215   1.857  0.00  0.00    -0.271 OA
BRANCH  61  64
HETATM   64  C   UNK N   1       8.770  -8.749  -0.464  0.00  0.00     0.180 C 
BRANCH  64  65
HETATM   65  C   UNK N   1       8.395  -7.434   0.236  0.00  0.00     0.073 C 
BRANCH  65  66
HETATM   66  C   UNK N   1       7.072  -6.833  -0.074  0.00  0.00    -0.056 A 
HETATM   67  C   UNK N   1       6.253  -7.317  -1.101  0.00  0.00     0.007 A 
HETATM   68  C   UNK N   1       5.011  -6.724  -1.335  0.00  0.00     0.001 A 
HETATM   69  C   UNK N   1       4.586  -5.652  -0.544  0.00  0.00     0.000 A 
HETATM   70  C   UNK N   1       5.404  -5.169   0.480  0.00  0.00     0.001 A 
HETATM   71  C   UNK N   1       6.646  -5.760   0.713  0.00  0.00     0.007 A 
ENDBRANCH  65  66
ENDBRANCH  64  65
BRANCH  64  72
HETATM   72  C   UNK N   1      10.192  -8.977  -0.075  0.00  0.00     0.241 C 
HETATM   73  N   UNK N   1      11.102  -8.280  -0.791  0.00  0.00    -0.345 N 
HETATM   74  H   UNK N   1      11.229  -8.482  -1.746  0.00  0.00     0.163 HD
HETATM   75  O   UNK N   1      10.442  -9.296   1.080  0.00  0.00    -0.271 OA
BRANCH  73  76
HETATM   76  C   UNK N   1      11.887  -7.245  -0.168  0.00  0.00     0.182 C 
BRANCH  76  77
HETATM   77  C   UNK N   1      11.673  -5.963  -0.966  0.00  0.00     0.038 C 
BRANCH  77  78
HETATM   78  C   UNK N   1      11.839  -4.735  -0.088  0.00  0.00     0.023 C 
BRANCH  78  79
HETATM   79  C   UNK N   1      10.666  -4.582   0.872  0.00  0.00     0.138 C 
BRANCH  79  80
HETATM   80  N   UNK N   1       9.462  -4.234   0.155  0.00  0.00    -0.227 N 
HETATM   81  C   UNK N   1       9.071  -2.885  -0.046  0.00  0.00     0.665 C 
HETATM   82  N   UNK N   1       7.850  -2.600  -0.694  0.00  0.00    -0.235 N 
HETATM   83  N   UNK N   1       9.821  -1.922   0.348  0.00  0.00    -0.235 N 
HETATM   84  H   UNK N   1       7.597  -1.763  -1.146  0.00  0.00     0.174 HD
HETATM   85  H   UNK N   1       7.177  -3.318  -0.694  0.00  0.00     0.174 HD
HETATM   86  H   UNK N   1      10.749  -2.050   0.651  0.00  0.00     0.174 HD
ATOM     87  HN  UNK N   1       9.437  -0.977   0.348  1.00  0.00     0.174 HD
HETATM   88  H   UNK N   1       8.896  -4.954  -0.205  0.00  0.00     0.177 HD
ENDBRANCH  79  80
ENDBRANCH  78  79
ENDBRANCH  77  78
ENDBRANCH  76  77
BRANCH  76  89
HETATM   89  C   UNK N   1      13.322  -7.618  -0.002  0.00  0.00     0.163 C 
HETATM   90  O   UNK N   1      14.195  -7.047  -0.634  0.00  0.00    -0.648 OA
BRANCH  89  91
HETATM   91  O   UNK N   1      13.658  -8.522   0.932  0.00  0.00    -0.775 OA
HETATM   92  H   UNK N   1      13.228  -9.040   1.584  0.00  0.00     0.167 HD
ENDBRANCH  89  91
ENDBRANCH  76  89
ENDBRANCH  73  76
ENDBRANCH  64  72
ENDBRANCH  61  64
ENDBRANCH  55  60
ENDBRANCH  52  53
BRANCH  52  93
HETATM   93  C   UNK N   1       8.381 -14.191   1.220  0.00  0.00     0.199 C 
BRANCH  93  94
HETATM   94  O   UNK N   1       8.567 -15.285   0.372  0.00  0.00    -0.398 OA
HETATM   95  H   UNK N   1       7.974 -15.777  -0.217  0.00  0.00     0.209 HD
ENDBRANCH  93  94
ENDBRANCH  52  93
ENDBRANCH   2  52
TORSDOF 30
