MODEL 1
REMARK VINA RESULT:      -6.3      0.000      0.000
REMARK  16 active torsions:
REMARK  status: ('A' for Active; 'I' for Inactive)
REMARK    1  A    between atoms: C_1  and  C_7 
REMARK    2  A    between atoms: C_2  and  O_9 
REMARK    3  A    between atoms: C_3  and  N_10 
REMARK    4  A    between atoms: C_4  and  O_11 
REMARK    5  A    between atoms: C_5  and  O_12 
REMARK    6  A    between atoms: C_7  and  O_8 
REMARK    7  A    between atoms: C_13  and  O_12 
REMARK    8  A    between atoms: C_14  and  N_19 
REMARK    9  A    between atoms: C_16  and  N_20 
REMARK   10  A    between atoms: C_17  and  O_22 
REMARK   11  A    between atoms: C_18  and  O_21 
REMARK   12  A    between atoms: C_23  and  O_22 
REMARK   13  A    between atoms: C_25  and  C_29 
REMARK   14  A    between atoms: C_26  and  O_31 
REMARK   15  A    between atoms: C_28  and  N_32 
REMARK   16  A    between atoms: C_29  and  N_30 
ROOT
HETATM    1  C   UNK N   1      32.089  15.608   6.468  0.00  0.00     0.178 C 
HETATM    2  C   UNK N   1      32.541  14.622   5.386  0.00  0.00     0.107 C 
HETATM    3  C   UNK N   1      33.031  13.339   6.017  0.00  0.00     0.054 C 
HETATM    4  C   UNK N   1      34.268  13.628   6.843  0.00  0.00     0.107 C 
HETATM    5  C   UNK N   1      33.948  14.604   8.001  0.00  0.00     0.178 C 
HETATM    6  C   UNK N   1      33.245  15.864   7.451  0.00  0.00     0.180 C 
ENDROOT
BRANCH   1   7
HETATM    7  O   UNK N   1      31.759  16.825   5.846  0.00  0.00    -0.349 OA
BRANCH   7   8
HETATM    8  C   UNK N   1      30.380  17.038   6.005  0.00  0.00     0.291 C 
HETATM    9  C   UNK N   1      29.861  17.832   4.793  0.00  0.00     0.198 C 
HETATM   10  C   UNK N   1      28.381  18.141   4.985  0.00  0.00     0.139 C 
HETATM   11  C   UNK N   1      28.159  18.797   6.340  0.00  0.00     0.174 C 
HETATM   12  C   UNK N   1      28.798  17.904   7.418  0.00  0.00     0.179 C 
HETATM   13  O   UNK N   1      30.183  17.802   7.174  0.00  0.00    -0.349 OA
BRANCH   9  14
HETATM   14  O   UNK N   1      30.027  17.108   3.615  0.00  0.00    -0.388 OA
HETATM   15  H   UNK N   1      29.722  17.414   2.745  0.00  0.00     0.210 HD
ENDBRANCH   9  14
BRANCH  10  16
HETATM   16  N   UNK N   1      27.915  19.019   3.924  0.00  0.00    -0.421 N 
HETATM   17  H   UNK N   1      27.249  18.701   3.221  0.00  0.00     0.150 HD
HETATM   18  H   UNK N   1      28.263  19.978   3.883  0.00  0.00     0.150 HD
ENDBRANCH  10  16
BRANCH  11  19
HETATM   19  O   UNK N   1      26.786  18.943   6.557  0.00  0.00    -0.391 OA
HETATM   20  H   UNK N   1      26.288  19.225   7.340  0.00  0.00     0.210 HD
ENDBRANCH  11  19
BRANCH  12  21
HETATM   21  C   UNK N   1      28.605  18.504   8.806  0.00  0.00     0.198 C 
BRANCH  21  22
HETATM   22  O   UNK N   1      27.424  18.037   9.386  0.00  0.00    -0.398 OA
HETATM   23  H   UNK N   1      26.868  18.293  10.137  0.00  0.00     0.209 HD
ENDBRANCH  21  22
ENDBRANCH  12  21
ENDBRANCH   7   8
ENDBRANCH   1   7
BRANCH   2  24
HETATM   24  N   UNK N   1      31.449  14.306   4.487  0.00  0.00    -0.423 N 
HETATM   25  H   UNK N   1      31.061  13.374   4.342  0.00  0.00     0.150 HD
HETATM   26  H   UNK N   1      31.035  15.075   3.960  0.00  0.00     0.150 HD
ENDBRANCH   2  24
BRANCH   6  27
HETATM   27  O   UNK N   1      32.802  16.659   8.510  0.00  0.00    -0.390 OA
HETATM   28  H   UNK N   1      32.250  17.438   8.340  0.00  0.00     0.210 HD
ENDBRANCH   6  27
BRANCH   5  29
HETATM   29  O   UNK N   1      35.134  15.054   8.620  0.00  0.00    -0.349 OA
BRANCH  29  30
HETATM   30  C   UNK N   1      35.155  14.649   9.962  0.00  0.00     0.283 C 
HETATM   31  O   UNK N   1      35.927  13.473  10.048  0.00  0.00    -0.350 OA
HETATM   32  C   UNK N   1      35.749  12.945  11.337  0.00  0.00     0.170 C 
HETATM   33  C   UNK N   1      36.502  13.831  12.333  0.00  0.00     0.150 C 
HETATM   34  C   UNK N   1      35.891  15.230  12.278  0.00  0.00     0.064 C 
HETATM   35  C   UNK N   1      35.808  15.731  10.834  0.00  0.00     0.132 C 
BRANCH  32  36
HETATM   36  C   UNK N   1      36.277  11.519  11.371  0.00  0.00     0.145 C 
BRANCH  36  37
HETATM   37  N   UNK N   1      37.705  11.524  11.638  0.00  0.00    -0.428 N 
HETATM   38  H   UNK N   1      38.190  10.665  11.901  0.00  0.00     0.150 HD
HETATM   39  H   UNK N   1      38.230  12.395  11.562  0.00  0.00     0.150 HD
ENDBRANCH  36  37
ENDBRANCH  32  36
BRANCH  33  40
HETATM   40  O   UNK N   1      36.379  13.325  13.628  0.00  0.00    -0.393 OA
HETATM   41  H   UNK N   1      35.871  13.643  14.390  0.00  0.00     0.210 HD
ENDBRANCH  33  40
BRANCH  35  42
HETATM   42  N   UNK N   1      35.023  16.953  10.795  0.00  0.00    -0.422 N 
HETATM   43  H   UNK N   1      35.211  17.823  11.292  0.00  0.00     0.150 HD
HETATM   44  H   UNK N   1      34.191  16.939  10.204  0.00  0.00     0.150 HD
ENDBRANCH  35  42
ENDBRANCH  29  30
ENDBRANCH   5  29
BRANCH   4  45
HETATM   45  N   UNK N   1      34.759  12.359   7.350  0.00  0.00    -0.423 N 
HETATM   46  H   UNK N   1      34.901  11.479   6.858  0.00  0.00     0.150 HD
HETATM   47  H   UNK N   1      34.996  12.349   8.342  0.00  0.00     0.150 HD
ENDBRANCH   4  45
TORSDOF 16
ENDMDL
MODEL 2
REMARK VINA RESULT:      -6.1      4.829     11.380
REMARK  16 active torsions:
REMARK  status: ('A' for Active; 'I' for Inactive)
REMARK    1  A    between atoms: C_1  and  C_7 
REMARK    2  A    between atoms: C_2  and  O_9 
REMARK    3  A    between atoms: C_3  and  N_10 
REMARK    4  A    between atoms: C_4  and  O_11 
REMARK    5  A    between atoms: C_5  and  O_12 
REMARK    6  A    between atoms: C_7  and  O_8 
REMARK    7  A    between atoms: C_13  and  O_12 
REMARK    8  A    between atoms: C_14  and  N_19 
REMARK    9  A    between atoms: C_16  and  N_20 
REMARK   10  A    between atoms: C_17  and  O_22 
REMARK   11  A    between atoms: C_18  and  O_21 
REMARK   12  A    between atoms: C_23  and  O_22 
REMARK   13  A    between atoms: C_25  and  C_29 
REMARK   14  A    between atoms: C_26  and  O_31 
REMARK   15  A    between atoms: C_28  and  N_32 
REMARK   16  A    between atoms: C_29  and  N_30 
ROOT
HETATM    1  C   UNK N   1      27.267  18.082   4.885  0.00  0.00     0.178 C 
HETATM    2  C   UNK N   1      27.300  19.309   3.967  0.00  0.00     0.107 C 
HETATM    3  C   UNK N   1      25.963  20.014   3.986  0.00  0.00     0.054 C 
HETATM    4  C   UNK N   1      24.906  19.100   3.401  0.00  0.00     0.107 C 
HETATM    5  C   UNK N   1      24.748  17.817   4.251  0.00  0.00     0.178 C 
HETATM    6  C   UNK N   1      26.124  17.145   4.455  0.00  0.00     0.180 C 
ENDROOT
BRANCH   1   7
HETATM    7  O   UNK N   1      28.483  17.392   4.743  0.00  0.00    -0.349 OA
BRANCH   7   8
HETATM    8  C   UNK N   1      29.286  17.684   5.856  0.00  0.00     0.291 C 
HETATM    9  C   UNK N   1      30.613  16.916   5.722  0.00  0.00     0.198 C 
HETATM   10  C   UNK N   1      31.467  17.160   6.960  0.00  0.00     0.139 C 
HETATM   11  C   UNK N   1      30.662  16.858   8.215  0.00  0.00     0.174 C 
HETATM   12  C   UNK N   1      29.347  17.655   8.147  0.00  0.00     0.179 C 
HETATM   13  O   UNK N   1      28.613  17.242   7.014  0.00  0.00    -0.349 OA
BRANCH   9  14
HETATM   14  O   UNK N   1      31.317  17.331   4.593  0.00  0.00    -0.388 OA
HETATM   15  H   UNK N   1      32.173  16.960   4.325  0.00  0.00     0.210 HD
ENDBRANCH   9  14
BRANCH  10  16
HETATM   16  N   UNK N   1      32.655  16.322   6.917  0.00  0.00    -0.421 N 
HETATM   17  H   UNK N   1      33.135  16.121   6.041  0.00  0.00     0.150 HD
HETATM   18  H   UNK N   1      33.016  15.927   7.786  0.00  0.00     0.150 HD
ENDBRANCH  10  16
BRANCH  11  19
HETATM   19  O   UNK N   1      31.411  17.221   9.338  0.00  0.00    -0.391 OA
HETATM   20  H   UNK N   1      31.785  16.690  10.057  0.00  0.00     0.210 HD
ENDBRANCH  11  19
BRANCH  12  21
HETATM   21  C   UNK N   1      28.491  17.401   9.382  0.00  0.00     0.198 C 
BRANCH  21  22
HETATM   22  O   UNK N   1      27.379  18.243   9.394  0.00  0.00    -0.398 OA
HETATM   23  H   UNK N   1      26.627  18.398   9.987  0.00  0.00     0.209 HD
ENDBRANCH  21  22
ENDBRANCH  12  21
ENDBRANCH   7   8
ENDBRANCH   1   7
BRANCH   2  24
HETATM   24  N   UNK N   1      28.321  20.244   4.394  0.00  0.00    -0.423 N 
HETATM   25  H   UNK N   1      29.097  20.020   5.017  0.00  0.00     0.150 HD
HETATM   26  H   UNK N   1      28.259  21.201   4.045  0.00  0.00     0.150 HD
ENDBRANCH   2  24
BRANCH   6  27
HETATM   27  O   UNK N   1      26.006  16.091   5.363  0.00  0.00    -0.390 OA
HETATM   28  H   UNK N   1      25.677  16.252   6.261  0.00  0.00     0.210 HD
ENDBRANCH   6  27
BRANCH   5  29
HETATM   29  O   UNK N   1      23.943  16.868   3.582  0.00  0.00    -0.349 OA
BRANCH  29  30
HETATM   30  C   UNK N   1      22.652  16.870   4.128  0.00  0.00     0.283 C 
HETATM   31  O   UNK N   1      21.778  17.430   3.174  0.00  0.00    -0.350 OA
HETATM   32  C   UNK N   1      20.544  17.647   3.808  0.00  0.00     0.170 C 
HETATM   33  C   UNK N   1      19.865  16.293   4.028  0.00  0.00     0.150 C 
HETATM   34  C   UNK N   1      20.759  15.459   4.946  0.00  0.00     0.064 C 
HETATM   35  C   UNK N   1      22.199  15.435   4.428  0.00  0.00     0.132 C 
BRANCH  32  36
HETATM   36  C   UNK N   1      19.685  18.550   2.935  0.00  0.00     0.145 C 
BRANCH  36  37
HETATM   37  N   UNK N   1      19.095  17.780   1.853  0.00  0.00    -0.428 N 
HETATM   38  H   UNK N   1      18.298  17.166   2.025  0.00  0.00     0.150 HD
HETATM   39  H   UNK N   1      19.481  17.854   0.912  0.00  0.00     0.150 HD
ENDBRANCH  36  37
ENDBRANCH  32  36
BRANCH  33  40
HETATM   40  O   UNK N   1      18.617  16.462   4.629  0.00  0.00    -0.393 OA
HETATM   41  H   UNK N   1      17.772  16.012   4.476  0.00  0.00     0.210 HD
ENDBRANCH  33  40
BRANCH  35  42
HETATM   42  N   UNK N   1      23.059  14.832   5.432  0.00  0.00    -0.422 N 
HETATM   43  H   UNK N   1      23.586  13.963   5.352  0.00  0.00     0.150 HD
HETATM   44  H   UNK N   1      23.145  15.335   6.316  0.00  0.00     0.150 HD
ENDBRANCH  35  42
ENDBRANCH  29  30
ENDBRANCH   5  29
BRANCH   4  45
HETATM   45  N   UNK N   1      23.663  19.849   3.349  0.00  0.00    -0.423 N 
HETATM   46  H   UNK N   1      22.724  19.559   3.615  0.00  0.00     0.150 HD
HETATM   47  H   UNK N   1      23.743  20.802   2.994  0.00  0.00     0.150 HD
ENDBRANCH   4  45
TORSDOF 16
ENDMDL
MODEL 3
REMARK VINA RESULT:      -6.1      2.574      8.149
REMARK  16 active torsions:
REMARK  status: ('A' for Active; 'I' for Inactive)
REMARK    1  A    between atoms: C_1  and  C_7 
REMARK    2  A    between atoms: C_2  and  O_9 
REMARK    3  A    between atoms: C_3  and  N_10 
REMARK    4  A    between atoms: C_4  and  O_11 
REMARK    5  A    between atoms: C_5  and  O_12 
REMARK    6  A    between atoms: C_7  and  O_8 
REMARK    7  A    between atoms: C_13  and  O_12 
REMARK    8  A    between atoms: C_14  and  N_19 
REMARK    9  A    between atoms: C_16  and  N_20 
REMARK   10  A    between atoms: C_17  and  O_22 
REMARK   11  A    between atoms: C_18  and  O_21 
REMARK   12  A    between atoms: C_23  and  O_22 
REMARK   13  A    between atoms: C_25  and  C_29 
REMARK   14  A    between atoms: C_26  and  O_31 
REMARK   15  A    between atoms: C_28  and  N_32 
REMARK   16  A    between atoms: C_29  and  N_30 
ROOT
HETATM    1  C   UNK N   1      32.537  15.265   5.582  0.00  0.00     0.178 C 
HETATM    2  C   UNK N   1      32.953  15.068   4.120  0.00  0.00     0.107 C 
HETATM    3  C   UNK N   1      32.204  16.031   3.227  0.00  0.00     0.054 C 
HETATM    4  C   UNK N   1      30.724  15.709   3.273  0.00  0.00     0.107 C 
HETATM    5  C   UNK N   1      30.160  15.891   4.703  0.00  0.00     0.178 C 
HETATM    6  C   UNK N   1      31.013  15.093   5.713  0.00  0.00     0.180 C 
ENDROOT
BRANCH   1   7
HETATM    7  O   UNK N   1      33.163  14.273   6.356  0.00  0.00    -0.349 OA
BRANCH   7   8
HETATM    8  C   UNK N   1      33.939  14.908   7.338  0.00  0.00     0.291 C 
HETATM    9  C   UNK N   1      33.606  14.288   8.708  0.00  0.00     0.198 C 
HETATM   10  C   UNK N   1      34.382  15.017   9.797  0.00  0.00     0.139 C 
HETATM   11  C   UNK N   1      34.150  16.517   9.685  0.00  0.00     0.174 C 
HETATM   12  C   UNK N   1      34.466  16.946   8.242  0.00  0.00     0.179 C 
HETATM   13  O   UNK N   1      33.596  16.276   7.357  0.00  0.00    -0.349 OA
BRANCH   9  14
HETATM   14  O   UNK N   1      33.940  12.935   8.736  0.00  0.00    -0.388 OA
HETATM   15  H   UNK N   1      34.539  12.514   8.099  0.00  0.00     0.210 HD
ENDBRANCH   9  14
BRANCH  10  16
HETATM   16  N   UNK N   1      33.963  14.545  11.107  0.00  0.00    -0.421 N 
HETATM   17  H   UNK N   1      32.979  14.502  11.369  0.00  0.00     0.150 HD
HETATM   18  H   UNK N   1      34.672  14.249  11.779  0.00  0.00     0.150 HD
ENDBRANCH  10  16
BRANCH  11  19
HETATM   19  O   UNK N   1      34.977  17.176  10.598  0.00  0.00    -0.391 OA
HETATM   20  H   UNK N   1      35.231  16.956  11.508  0.00  0.00     0.210 HD
ENDBRANCH  11  19
BRANCH  12  21
HETATM   21  C   UNK N   1      34.259  18.446   8.063  0.00  0.00     0.198 C 
BRANCH  21  22
HETATM   22  O   UNK N   1      35.344  19.159   8.573  0.00  0.00    -0.398 OA
HETATM   23  H   UNK N   1      35.509  20.072   8.855  0.00  0.00     0.209 HD
ENDBRANCH  21  22
ENDBRANCH  12  21
ENDBRANCH   7   8
ENDBRANCH   1   7
BRANCH   2  24
HETATM   24  N   UNK N   1      34.375  15.296   3.954  0.00  0.00    -0.423 N 
HETATM   25  H   UNK N   1      34.958  15.843   4.587  0.00  0.00     0.150 HD
HETATM   26  H   UNK N   1      34.828  14.877   3.142  0.00  0.00     0.150 HD
ENDBRANCH   2  24
BRANCH   6  27
HETATM   27  O   UNK N   1      30.611  15.397   7.016  0.00  0.00    -0.390 OA
HETATM   28  H   UNK N   1      30.443  14.687   7.655  0.00  0.00     0.210 HD
ENDBRANCH   6  27
BRANCH   5  29
HETATM   29  O   UNK N   1      28.851  15.368   4.795  0.00  0.00    -0.349 OA
BRANCH  29  30
HETATM   30  C   UNK N   1      27.974  16.358   5.260  0.00  0.00     0.283 C 
HETATM   31  O   UNK N   1      28.710  17.241   6.076  0.00  0.00    -0.350 OA
HETATM   32  C   UNK N   1      27.790  18.082   6.723  0.00  0.00     0.170 C 
HETATM   33  C   UNK N   1      27.231  19.071   5.698  0.00  0.00     0.150 C 
HETATM   34  C   UNK N   1      26.503  18.272   4.618  0.00  0.00     0.064 C 
HETATM   35  C   UNK N   1      27.391  17.148   4.080  0.00  0.00     0.132 C 
BRANCH  32  36
HETATM   36  C   UNK N   1      28.494  18.813   7.857  0.00  0.00     0.145 C 
BRANCH  36  37
HETATM   37  N   UNK N   1      27.692  18.742   9.066  0.00  0.00    -0.428 N 
HETATM   38  H   UNK N   1      26.869  18.141   9.112  0.00  0.00     0.150 HD
HETATM   39  H   UNK N   1      27.956  19.299   9.880  0.00  0.00     0.150 HD
ENDBRANCH  36  37
ENDBRANCH  32  36
BRANCH  33  40
HETATM   40  O   UNK N   1      26.333  19.951   6.305  0.00  0.00    -0.393 OA
HETATM   41  H   UNK N   1      25.706  19.818   7.033  0.00  0.00     0.210 HD
ENDBRANCH  33  40
BRANCH  35  42
HETATM   42  N   UNK N   1      26.599  16.277   3.229  0.00  0.00    -0.422 N 
HETATM   43  H   UNK N   1      25.888  16.554   2.553  0.00  0.00     0.150 HD
HETATM   44  H   UNK N   1      26.774  15.276   3.319  0.00  0.00     0.150 HD
ENDBRANCH  35  42
ENDBRANCH  29  30
ENDBRANCH   5  29
BRANCH   4  45
HETATM   45  N   UNK N   1      30.058  16.590   2.332  0.00  0.00    -0.423 N 
HETATM   46  H   UNK N   1      30.460  17.264   1.682  0.00  0.00     0.150 HD
HETATM   47  H   UNK N   1      29.040  16.525   2.320  0.00  0.00     0.150 HD
ENDBRANCH   4  45
TORSDOF 16
ENDMDL
MODEL 4
REMARK VINA RESULT:      -5.9      2.415      7.113
REMARK  16 active torsions:
REMARK  status: ('A' for Active; 'I' for Inactive)
REMARK    1  A    between atoms: C_1  and  C_7 
REMARK    2  A    between atoms: C_2  and  O_9 
REMARK    3  A    between atoms: C_3  and  N_10 
REMARK    4  A    between atoms: C_4  and  O_11 
REMARK    5  A    between atoms: C_5  and  O_12 
REMARK    6  A    between atoms: C_7  and  O_8 
REMARK    7  A    between atoms: C_13  and  O_12 
REMARK    8  A    between atoms: C_14  and  N_19 
REMARK    9  A    between atoms: C_16  and  N_20 
REMARK   10  A    between atoms: C_17  and  O_22 
REMARK   11  A    between atoms: C_18  and  O_21 
REMARK   12  A    between atoms: C_23  and  O_22 
REMARK   13  A    between atoms: C_25  and  C_29 
REMARK   14  A    between atoms: C_26  and  O_31 
REMARK   15  A    between atoms: C_28  and  N_32 
REMARK   16  A    between atoms: C_29  and  N_30 
ROOT
HETATM    1  C   UNK N   1      33.679  15.687   4.677  0.00  0.00     0.178 C 
HETATM    2  C   UNK N   1      32.862  14.408   4.881  0.00  0.00     0.107 C 
HETATM    3  C   UNK N   1      31.701  14.367   3.913  0.00  0.00     0.054 C 
HETATM    4  C   UNK N   1      30.751  15.507   4.221  0.00  0.00     0.107 C 
HETATM    5  C   UNK N   1      31.446  16.876   4.031  0.00  0.00     0.178 C 
HETATM    6  C   UNK N   1      32.765  16.916   4.834  0.00  0.00     0.180 C 
ENDROOT
BRANCH   1   7
HETATM    7  O   UNK N   1      34.669  15.742   5.673  0.00  0.00    -0.349 OA
BRANCH   7   8
HETATM    8  C   UNK N   1      34.038  15.652   6.924  0.00  0.00     0.291 C 
HETATM    9  C   UNK N   1      34.703  16.653   7.886  0.00  0.00     0.198 C 
HETATM   10  C   UNK N   1      34.083  16.514   9.270  0.00  0.00     0.139 C 
HETATM   11  C   UNK N   1      34.120  15.059   9.714  0.00  0.00     0.174 C 
HETATM   12  C   UNK N   1      33.477  14.203   8.609  0.00  0.00     0.179 C 
HETATM   13  O   UNK N   1      34.223  14.345   7.420  0.00  0.00    -0.349 OA
BRANCH   9  14
HETATM   14  O   UNK N   1      34.534  17.961   7.438  0.00  0.00    -0.388 OA
HETATM   15  H   UNK N   1      35.236  18.482   7.014  0.00  0.00     0.210 HD
ENDBRANCH   9  14
BRANCH  10  16
HETATM   16  N   UNK N   1      34.804  17.343  10.223  0.00  0.00    -0.421 N 
HETATM   17  H   UNK N   1      34.331  17.791  11.007  0.00  0.00     0.150 HD
HETATM   18  H   UNK N   1      35.808  17.480  10.104  0.00  0.00     0.150 HD
ENDBRANCH  10  16
BRANCH  11  19
HETATM   19  O   UNK N   1      33.422  14.931  10.918  0.00  0.00    -0.391 OA
HETATM   20  H   UNK N   1      33.683  15.118  11.833  0.00  0.00     0.210 HD
ENDBRANCH  11  19
BRANCH  12  21
HETATM   21  C   UNK N   1      33.476  12.728   8.993  0.00  0.00     0.198 C 
BRANCH  21  22
HETATM   22  O   UNK N   1      32.201  12.322   9.389  0.00  0.00    -0.398 OA
HETATM   23  H   UNK N   1      31.600  12.526  10.122  0.00  0.00     0.209 HD
ENDBRANCH  21  22
ENDBRANCH  12  21
ENDBRANCH   7   8
ENDBRANCH   1   7
BRANCH   2  24
HETATM   24  N   UNK N   1      33.682  13.232   4.666  0.00  0.00    -0.423 N 
HETATM   25  H   UNK N   1      33.326  12.299   4.460  0.00  0.00     0.150 HD
HETATM   26  H   UNK N   1      34.694  13.347   4.725  0.00  0.00     0.150 HD
ENDBRANCH   2  24
BRANCH   6  27
HETATM   27  O   UNK N   1      33.473  18.079   4.524  0.00  0.00    -0.390 OA
HETATM   28  H   UNK N   1      33.055  18.783   4.005  0.00  0.00     0.210 HD
ENDBRANCH   6  27
BRANCH   5  29
HETATM   29  O   UNK N   1      30.644  17.920   4.542  0.00  0.00    -0.349 OA
BRANCH  29  30
HETATM   30  C   UNK N   1      29.791  17.423   5.537  0.00  0.00     0.283 C 
HETATM   31  O   UNK N   1      30.365  17.720   6.789  0.00  0.00    -0.350 OA
HETATM   32  C   UNK N   1      29.637  17.018   7.764  0.00  0.00     0.170 C 
HETATM   33  C   UNK N   1      28.273  17.692   7.931  0.00  0.00     0.150 C 
HETATM   34  C   UNK N   1      27.535  17.604   6.595  0.00  0.00     0.064 C 
HETATM   35  C   UNK N   1      28.418  18.104   5.450  0.00  0.00     0.132 C 
BRANCH  32  36
HETATM   36  C   UNK N   1      30.412  17.030   9.073  0.00  0.00     0.145 C 
BRANCH  36  37
HETATM   37  N   UNK N   1      30.124  18.248   9.810  0.00  0.00    -0.428 N 
HETATM   38  H   UNK N   1      29.674  18.210  10.725  0.00  0.00     0.150 HD
HETATM   39  H   UNK N   1      30.374  19.153   9.409  0.00  0.00     0.150 HD
ENDBRANCH  36  37
ENDBRANCH  32  36
BRANCH  33  40
HETATM   40  O   UNK N   1      27.524  17.047   8.915  0.00  0.00    -0.393 OA
HETATM   41  H   UNK N   1      27.654  16.193   9.357  0.00  0.00     0.210 HD
ENDBRANCH  33  40
BRANCH  35  42
HETATM   42  N   UNK N   1      27.780  17.797   4.182  0.00  0.00    -0.422 N 
HETATM   43  H   UNK N   1      28.011  17.038   3.543  0.00  0.00     0.150 HD
HETATM   44  H   UNK N   1      27.015  18.411   3.900  0.00  0.00     0.150 HD
ENDBRANCH  35  42
ENDBRANCH  29  30
ENDBRANCH   5  29
BRANCH   4  45
HETATM   45  N   UNK N   1      29.609  15.373   3.336  0.00  0.00    -0.423 N 
HETATM   46  H   UNK N   1      29.335  14.586   2.749  0.00  0.00     0.150 HD
HETATM   47  H   UNK N   1      28.991  16.184   3.296  0.00  0.00     0.150 HD
ENDBRANCH   4  45
TORSDOF 16
ENDMDL
MODEL 5
REMARK VINA RESULT:      -5.9      5.136      9.165
REMARK  16 active torsions:
REMARK  status: ('A' for Active; 'I' for Inactive)
REMARK    1  A    between atoms: C_1  and  C_7 
REMARK    2  A    between atoms: C_2  and  O_9 
REMARK    3  A    between atoms: C_3  and  N_10 
REMARK    4  A    between atoms: C_4  and  O_11 
REMARK    5  A    between atoms: C_5  and  O_12 
REMARK    6  A    between atoms: C_7  and  O_8 
REMARK    7  A    between atoms: C_13  and  O_12 
REMARK    8  A    between atoms: C_14  and  N_19 
REMARK    9  A    between atoms: C_16  and  N_20 
REMARK   10  A    between atoms: C_17  and  O_22 
REMARK   11  A    between atoms: C_18  and  O_21 
REMARK   12  A    between atoms: C_23  and  O_22 
REMARK   13  A    between atoms: C_25  and  C_29 
REMARK   14  A    between atoms: C_26  and  O_31 
REMARK   15  A    between atoms: C_28  and  N_32 
REMARK   16  A    between atoms: C_29  and  N_30 
ROOT
HETATM    1  C   UNK N   1      24.432  18.795   4.094  0.00  0.00     0.178 C 
HETATM    2  C   UNK N   1      24.854  20.227   3.748  0.00  0.00     0.107 C 
HETATM    3  C   UNK N   1      26.318  20.266   3.374  0.00  0.00     0.054 C 
HETATM    4  C   UNK N   1      27.153  19.878   4.577  0.00  0.00     0.107 C 
HETATM    5  C   UNK N   1      26.843  18.429   5.025  0.00  0.00     0.178 C 
HETATM    6  C   UNK N   1      25.322  18.252   5.226  0.00  0.00     0.180 C 
ENDROOT
BRANCH   1   7
HETATM    7  O   UNK N   1      23.103  18.826   4.551  0.00  0.00    -0.349 OA
BRANCH   7   8
HETATM    8  C   UNK N   1      22.342  17.966   3.744  0.00  0.00     0.291 C 
HETATM    9  C   UNK N   1      21.018  18.667   3.388  0.00  0.00     0.198 C 
HETATM   10  C   UNK N   1      20.145  17.719   2.576  0.00  0.00     0.139 C 
HETATM   11  C   UNK N   1      20.005  16.389   3.303  0.00  0.00     0.174 C 
HETATM   12  C   UNK N   1      21.415  15.873   3.637  0.00  0.00     0.179 C 
HETATM   13  O   UNK N   1      22.060  16.799   4.484  0.00  0.00    -0.349 OA
BRANCH   9  14
HETATM   14  O   UNK N   1      21.251  19.822   2.645  0.00  0.00    -0.388 OA
HETATM   15  H   UNK N   1      20.696  20.106   1.900  0.00  0.00     0.210 HD
ENDBRANCH   9  14
BRANCH  10  16
HETATM   16  N   UNK N   1      18.834  18.310   2.363  0.00  0.00    -0.421 N 
HETATM   17  H   UNK N   1      18.605  18.808   1.503  0.00  0.00     0.150 HD
HETATM   18  H   UNK N   1      18.125  18.225   3.092  0.00  0.00     0.150 HD
ENDBRANCH  10  16
BRANCH  11  19
HETATM   19  O   UNK N   1      19.322  15.489   2.481  0.00  0.00    -0.391 OA
HETATM   20  H   UNK N   1      18.548  15.604   1.909  0.00  0.00     0.210 HD
ENDBRANCH  11  19
BRANCH  12  21
HETATM   21  C   UNK N   1      21.347  14.535   4.364  0.00  0.00     0.198 C 
BRANCH  21  22
HETATM   22  O   UNK N   1      20.168  14.434   5.103  0.00  0.00    -0.398 OA
HETATM   23  H   UNK N   1      19.231  14.280   4.905  0.00  0.00     0.209 HD
ENDBRANCH  21  22
ENDBRANCH  12  21
ENDBRANCH   7   8
ENDBRANCH   1   7
BRANCH   2  24
HETATM   24  N   UNK N   1      24.080  20.738   2.634  0.00  0.00    -0.423 N 
HETATM   25  H   UNK N   1      23.386  21.483   2.696  0.00  0.00     0.150 HD
HETATM   26  H   UNK N   1      24.241  20.320   1.718  0.00  0.00     0.150 HD
ENDBRANCH   2  24
BRANCH   6  27
HETATM   27  O   UNK N   1      25.029  16.907   5.459  0.00  0.00    -0.390 OA
HETATM   28  H   UNK N   1      24.505  16.402   4.818  0.00  0.00     0.210 HD
ENDBRANCH   6  27
BRANCH   5  29
HETATM   29  O   UNK N   1      27.439  18.153   6.275  0.00  0.00    -0.349 OA
BRANCH  29  30
HETATM   30  C   UNK N   1      28.446  17.190   6.120  0.00  0.00     0.283 C 
HETATM   31  O   UNK N   1      28.925  17.272   4.797  0.00  0.00    -0.350 OA
HETATM   32  C   UNK N   1      29.755  16.160   4.579  0.00  0.00     0.170 C 
HETATM   33  C   UNK N   1      31.061  16.369   5.349  0.00  0.00     0.150 C 
HETATM   34  C   UNK N   1      30.725  16.458   6.837  0.00  0.00     0.064 C 
HETATM   35  C   UNK N   1      29.607  17.474   7.083  0.00  0.00     0.132 C 
BRANCH  32  36
HETATM   36  C   UNK N   1      30.020  16.018   3.088  0.00  0.00     0.145 C 
BRANCH  36  37
HETATM   37  N   UNK N   1      31.027  16.976   2.669  0.00  0.00    -0.428 N 
HETATM   38  H   UNK N   1      31.089  17.277   1.696  0.00  0.00     0.150 HD
HETATM   39  H   UNK N   1      31.681  17.354   3.355  0.00  0.00     0.150 HD
ENDBRANCH  36  37
ENDBRANCH  32  36
BRANCH  33  40
HETATM   40  O   UNK N   1      31.932  15.300   5.136  0.00  0.00    -0.393 OA
HETATM   41  H   UNK N   1      32.600  15.150   4.449  0.00  0.00     0.210 HD
ENDBRANCH  33  40
BRANCH  35  42
HETATM   42  N   UNK N   1      29.158  17.369   8.461  0.00  0.00    -0.422 N 
HETATM   43  H   UNK N   1      28.541  16.661   8.857  0.00  0.00     0.150 HD
HETATM   44  H   UNK N   1      29.498  18.085   9.103  0.00  0.00     0.150 HD
ENDBRANCH  35  42
ENDBRANCH  29  30
ENDBRANCH   5  29
BRANCH   4  45
HETATM   45  N   UNK N   1      28.548  20.022   4.203  0.00  0.00    -0.423 N 
HETATM   46  H   UNK N   1      29.384  19.935   4.780  0.00  0.00     0.150 HD
HETATM   47  H   UNK N   1      28.716  20.241   3.221  0.00  0.00     0.150 HD
ENDBRANCH   4  45
TORSDOF 16
ENDMDL
MODEL 6
REMARK VINA RESULT:      -5.8      1.742      8.194
REMARK  16 active torsions:
REMARK  status: ('A' for Active; 'I' for Inactive)
REMARK    1  A    between atoms: C_1  and  C_7 
REMARK    2  A    between atoms: C_2  and  O_9 
REMARK    3  A    between atoms: C_3  and  N_10 
REMARK    4  A    between atoms: C_4  and  O_11 
REMARK    5  A    between atoms: C_5  and  O_12 
REMARK    6  A    between atoms: C_7  and  O_8 
REMARK    7  A    between atoms: C_13  and  O_12 
REMARK    8  A    between atoms: C_14  and  N_19 
REMARK    9  A    between atoms: C_16  and  N_20 
REMARK   10  A    between atoms: C_17  and  O_22 
REMARK   11  A    between atoms: C_18  and  O_21 
REMARK   12  A    between atoms: C_23  and  O_22 
REMARK   13  A    between atoms: C_25  and  C_29 
REMARK   14  A    between atoms: C_26  and  O_31 
REMARK   15  A    between atoms: C_28  and  N_32 
REMARK   16  A    between atoms: C_29  and  N_30 
ROOT
HETATM    1  C   UNK N   1      34.434  15.770   7.111  0.00  0.00     0.178 C 
HETATM    2  C   UNK N   1      34.148  14.389   6.512  0.00  0.00     0.107 C 
HETATM    3  C   UNK N   1      32.933  14.449   5.614  0.00  0.00     0.054 C 
HETATM    4  C   UNK N   1      31.712  14.790   6.445  0.00  0.00     0.107 C 
HETATM    5  C   UNK N   1      31.857  16.186   7.098  0.00  0.00     0.178 C 
HETATM    6  C   UNK N   1      33.192  16.273   7.869  0.00  0.00     0.180 C 
ENDROOT
BRANCH   1   7
HETATM    7  O   UNK N   1      35.491  15.642   8.029  0.00  0.00    -0.349 OA
BRANCH   7   8
HETATM    8  C   UNK N   1      34.977  15.095   9.216  0.00  0.00     0.291 C 
HETATM    9  C   UNK N   1      35.788  15.644  10.404  0.00  0.00     0.198 C 
HETATM   10  C   UNK N   1      35.294  15.002  11.694  0.00  0.00     0.139 C 
HETATM   11  C   UNK N   1      35.289  13.487  11.552  0.00  0.00     0.174 C 
HETATM   12  C   UNK N   1      34.496  13.126  10.284  0.00  0.00     0.179 C 
HETATM   13  O   UNK N   1      35.132  13.694   9.161  0.00  0.00    -0.349 OA
BRANCH   9  14
HETATM   14  O   UNK N   1      35.653  17.028  10.501  0.00  0.00    -0.388 OA
HETATM   15  H   UNK N   1      34.965  17.537  10.043  0.00  0.00     0.210 HD
ENDBRANCH   9  14
BRANCH  10  16
HETATM   16  N   UNK N   1      36.149  15.395  12.803  0.00  0.00    -0.421 N 
HETATM   17  H   UNK N   1      37.149  15.548  12.678  0.00  0.00     0.150 HD
HETATM   18  H   UNK N   1      35.738  15.520  13.728  0.00  0.00     0.150 HD
ENDBRANCH  10  16
BRANCH  11  19
HETATM   19  O   UNK N   1      34.702  12.924  12.689  0.00  0.00    -0.391 OA
HETATM   20  H   UNK N   1      34.984  12.192  13.259  0.00  0.00     0.210 HD
ENDBRANCH  11  19
BRANCH  12  21
HETATM   21  C   UNK N   1      34.446  11.616  10.085  0.00  0.00     0.198 C 
BRANCH  21  22
HETATM   22  O   UNK N   1      33.385  11.058  10.800  0.00  0.00    -0.398 OA
HETATM   23  H   UNK N   1      32.418  11.111  10.768  0.00  0.00     0.209 HD
ENDBRANCH  21  22
ENDBRANCH  12  21
ENDBRANCH   7   8
ENDBRANCH   1   7
BRANCH   2  24
HETATM   24  N   UNK N   1      35.276  13.923   5.730  0.00  0.00    -0.423 N 
HETATM   25  H   UNK N   1      36.239  14.237   5.847  0.00  0.00     0.150 HD
HETATM   26  H   UNK N   1      35.092  13.226   5.009  0.00  0.00     0.150 HD
ENDBRANCH   2  24
BRANCH   6  27
HETATM   27  O   UNK N   1      33.400  17.582   8.308  0.00  0.00    -0.390 OA
HETATM   28  H   UNK N   1      32.807  18.295   8.023  0.00  0.00     0.210 HD
ENDBRANCH   6  27
BRANCH   5  29
HETATM   29  O   UNK N   1      30.838  16.400   8.052  0.00  0.00    -0.349 OA
BRANCH  29  30
HETATM   30  C   UNK N   1      30.051  17.496   7.670  0.00  0.00     0.283 C 
HETATM   31  O   UNK N   1      29.272  17.105   6.562  0.00  0.00    -0.350 OA
HETATM   32  C   UNK N   1      28.670  18.262   6.041  0.00  0.00     0.170 C 
HETATM   33  C   UNK N   1      27.563  18.709   7.000  0.00  0.00     0.150 C 
HETATM   34  C   UNK N   1      28.208  19.043   8.345  0.00  0.00     0.064 C 
HETATM   35  C   UNK N   1      29.111  17.900   8.815  0.00  0.00     0.132 C 
BRANCH  32  36
HETATM   36  C   UNK N   1      28.103  17.954   4.663  0.00  0.00     0.145 C 
BRANCH  36  37
HETATM   37  N   UNK N   1      28.061  19.164   3.861  0.00  0.00    -0.428 N 
HETATM   38  H   UNK N   1      27.438  19.235   3.056  0.00  0.00     0.150 HD
HETATM   39  H   UNK N   1      28.661  19.953   4.106  0.00  0.00     0.150 HD
ENDBRANCH  36  37
ENDBRANCH  32  36
BRANCH  33  40
HETATM   40  O   UNK N   1      26.914  19.840   6.506  0.00  0.00    -0.393 OA
HETATM   41  H   UNK N   1      26.480  20.577   6.965  0.00  0.00     0.210 HD
ENDBRANCH  33  40
BRANCH  35  42
HETATM   42  N   UNK N   1      29.878  18.338   9.968  0.00  0.00    -0.422 N 
HETATM   43  H   UNK N   1      29.714  19.166  10.541  0.00  0.00     0.150 HD
HETATM   44  H   UNK N   1      30.670  17.753  10.235  0.00  0.00     0.150 HD
ENDBRANCH  35  42
ENDBRANCH  29  30
ENDBRANCH   5  29
BRANCH   4  45
HETATM   45  N   UNK N   1      30.559  14.742   5.565  0.00  0.00    -0.423 N 
HETATM   46  H   UNK N   1      30.425  15.174   4.651  0.00  0.00     0.150 HD
HETATM   47  H   UNK N   1      29.769  14.198   5.911  0.00  0.00     0.150 HD
ENDBRANCH   4  45
TORSDOF 16
ENDMDL
MODEL 7
REMARK VINA RESULT:      -5.8      4.935     10.295
REMARK  16 active torsions:
REMARK  status: ('A' for Active; 'I' for Inactive)
REMARK    1  A    between atoms: C_1  and  C_7 
REMARK    2  A    between atoms: C_2  and  O_9 
REMARK    3  A    between atoms: C_3  and  N_10 
REMARK    4  A    between atoms: C_4  and  O_11 
REMARK    5  A    between atoms: C_5  and  O_12 
REMARK    6  A    between atoms: C_7  and  O_8 
REMARK    7  A    between atoms: C_13  and  O_12 
REMARK    8  A    between atoms: C_14  and  N_19 
REMARK    9  A    between atoms: C_16  and  N_20 
REMARK   10  A    between atoms: C_17  and  O_22 
REMARK   11  A    between atoms: C_18  and  O_21 
REMARK   12  A    between atoms: C_23  and  O_22 
REMARK   13  A    between atoms: C_25  and  C_29 
REMARK   14  A    between atoms: C_26  and  O_31 
REMARK   15  A    between atoms: C_28  and  N_32 
REMARK   16  A    between atoms: C_29  and  N_30 
ROOT
HETATM    1  C   UNK N   1      27.071  17.538   5.157  0.00  0.00     0.178 C 
HETATM    2  C   UNK N   1      26.625  18.377   3.955  0.00  0.00     0.107 C 
HETATM    3  C   UNK N   1      25.199  18.841   4.140  0.00  0.00     0.054 C 
HETATM    4  C   UNK N   1      24.278  17.638   4.157  0.00  0.00     0.107 C 
HETATM    5  C   UNK N   1      24.605  16.705   5.348  0.00  0.00     0.178 C 
HETATM    6  C   UNK N   1      26.108  16.352   5.346  0.00  0.00     0.180 C 
ENDROOT
BRANCH   1   7
HETATM    7  O   UNK N   1      28.353  17.028   4.887  0.00  0.00    -0.349 OA
BRANCH   7   8
HETATM    8  C   UNK N   1      29.234  17.518   5.864  0.00  0.00     0.291 C 
HETATM    9  C   UNK N   1      30.586  16.797   5.716  0.00  0.00     0.198 C 
HETATM   10  C   UNK N   1      31.532  17.260   6.817  0.00  0.00     0.139 C 
HETATM   11  C   UNK N   1      30.860  17.114   8.174  0.00  0.00     0.174 C 
HETATM   12  C   UNK N   1      29.501  17.834   8.118  0.00  0.00     0.179 C 
HETATM   13  O   UNK N   1      28.694  17.226   7.134  0.00  0.00    -0.349 OA
BRANCH   9  14
HETATM   14  O   UNK N   1      31.162  17.068   4.476  0.00  0.00    -0.388 OA
HETATM   15  H   UNK N   1      30.659  17.366   3.701  0.00  0.00     0.210 HD
ENDBRANCH   9  14
BRANCH  10  16
HETATM   16  N   UNK N   1      32.757  16.478   6.781  0.00  0.00    -0.421 N 
HETATM   17  H   UNK N   1      32.993  15.891   5.982  0.00  0.00     0.150 HD
HETATM   18  H   UNK N   1      33.395  16.517   7.576  0.00  0.00     0.150 HD
ENDBRANCH  10  16
BRANCH  11  19
HETATM   19  O   UNK N   1      31.684  17.674   9.154  0.00  0.00    -0.391 OA
HETATM   20  H   UNK N   1      31.475  18.178   9.956  0.00  0.00     0.210 HD
ENDBRANCH  11  19
BRANCH  12  21
HETATM   21  C   UNK N   1      28.775  17.731   9.454  0.00  0.00     0.198 C 
BRANCH  21  22
HETATM   22  O   UNK N   1      27.437  18.107   9.319  0.00  0.00    -0.398 OA
HETATM   23  H   UNK N   1      26.909  18.582   8.659  0.00  0.00     0.209 HD
ENDBRANCH  21  22
ENDBRANCH  12  21
ENDBRANCH   7   8
ENDBRANCH   1   7
BRANCH   2  24
HETATM   24  N   UNK N   1      27.473  19.542   3.797  0.00  0.00    -0.423 N 
HETATM   25  H   UNK N   1      27.489  20.344   4.427  0.00  0.00     0.150 HD
HETATM   26  H   UNK N   1      28.102  19.562   2.995  0.00  0.00     0.150 HD
ENDBRANCH   2  24
BRANCH   6  27
HETATM   27  O   UNK N   1      26.432  15.657   6.513  0.00  0.00    -0.390 OA
HETATM   28  H   UNK N   1      26.929  14.825   6.466  0.00  0.00     0.210 HD
ENDBRANCH   6  27
BRANCH   5  29
HETATM   29  O   UNK N   1      23.913  15.479   5.228  0.00  0.00    -0.349 OA
BRANCH  29  30
HETATM   30  C   UNK N   1      23.109  15.274   6.357  0.00  0.00     0.283 C 
HETATM   31  O   UNK N   1      21.784  15.612   6.014  0.00  0.00    -0.350 OA
HETATM   32  C   UNK N   1      21.033  15.633   7.200  0.00  0.00     0.170 C 
HETATM   33  C   UNK N   1      20.825  14.191   7.670  0.00  0.00     0.150 C 
HETATM   34  C   UNK N   1      22.198  13.585   7.959  0.00  0.00     0.064 C 
HETATM   35  C   UNK N   1      23.147  13.797   6.776  0.00  0.00     0.132 C 
BRANCH  32  36
HETATM   36  C   UNK N   1      19.699  16.316   6.936  0.00  0.00     0.145 C 
BRANCH  36  37
HETATM   37  N   UNK N   1      19.150  16.831   8.178  0.00  0.00    -0.428 N 
HETATM   38  H   UNK N   1      18.328  16.401   8.603  0.00  0.00     0.150 HD
HETATM   39  H   UNK N   1      19.591  17.632   8.631  0.00  0.00     0.150 HD
ENDBRANCH  36  37
ENDBRANCH  32  36
BRANCH  33  40
HETATM   40  O   UNK N   1      20.054  14.161   8.833  0.00  0.00    -0.393 OA
HETATM   41  H   UNK N   1      19.634  14.875   9.336  0.00  0.00     0.210 HD
ENDBRANCH  33  40
BRANCH  35  42
HETATM   42  N   UNK N   1      24.493  13.417   7.167  0.00  0.00    -0.422 N 
HETATM   43  H   UNK N   1      25.135  13.940   7.762  0.00  0.00     0.150 HD
HETATM   44  H   UNK N   1      24.835  12.526   6.805  0.00  0.00     0.150 HD
ENDBRANCH  35  42
ENDBRANCH  29  30
ENDBRANCH   5  29
BRANCH   4  45
HETATM   45  N   UNK N   1      22.916  18.133   4.239  0.00  0.00    -0.423 N 
HETATM   46  H   UNK N   1      22.529  18.863   4.835  0.00  0.00     0.150 HD
HETATM   47  H   UNK N   1      22.251  17.684   3.610  0.00  0.00     0.150 HD
ENDBRANCH   4  45
TORSDOF 16
ENDMDL
MODEL 8
REMARK VINA RESULT:      -5.7      1.882      2.228
REMARK  16 active torsions:
REMARK  status: ('A' for Active; 'I' for Inactive)
REMARK    1  A    between atoms: C_1  and  C_7 
REMARK    2  A    between atoms: C_2  and  O_9 
REMARK    3  A    between atoms: C_3  and  N_10 
REMARK    4  A    between atoms: C_4  and  O_11 
REMARK    5  A    between atoms: C_5  and  O_12 
REMARK    6  A    between atoms: C_7  and  O_8 
REMARK    7  A    between atoms: C_13  and  O_12 
REMARK    8  A    between atoms: C_14  and  N_19 
REMARK    9  A    between atoms: C_16  and  N_20 
REMARK   10  A    between atoms: C_17  and  O_22 
REMARK   11  A    between atoms: C_18  and  O_21 
REMARK   12  A    between atoms: C_23  and  O_22 
REMARK   13  A    between atoms: C_25  and  C_29 
REMARK   14  A    between atoms: C_26  and  O_31 
REMARK   15  A    between atoms: C_28  and  N_32 
REMARK   16  A    between atoms: C_29  and  N_30 
ROOT
HETATM    1  C   UNK N   1      33.175  16.069   7.539  0.00  0.00     0.178 C 
HETATM    2  C   UNK N   1      34.451  16.084   6.691  0.00  0.00     0.107 C 
HETATM    3  C   UNK N   1      35.292  14.863   6.988  0.00  0.00     0.054 C 
HETATM    4  C   UNK N   1      35.762  14.916   8.427  0.00  0.00     0.107 C 
HETATM    5  C   UNK N   1      34.564  14.884   9.405  0.00  0.00     0.178 C 
HETATM    6  C   UNK N   1      33.546  15.983   9.031  0.00  0.00     0.180 C 
ENDROOT
BRANCH   1   7
HETATM    7  O   UNK N   1      32.487  17.276   7.323  0.00  0.00    -0.349 OA
BRANCH   7   8
HETATM    8  C   UNK N   1      31.134  16.976   7.103  0.00  0.00     0.291 C 
HETATM    9  C   UNK N   1      30.712  17.566   5.746  0.00  0.00     0.198 C 
HETATM   10  C   UNK N   1      29.225  17.317   5.525  0.00  0.00     0.139 C 
HETATM   11  C   UNK N   1      28.431  17.809   6.726  0.00  0.00     0.174 C 
HETATM   12  C   UNK N   1      29.031  17.173   7.992  0.00  0.00     0.179 C 
HETATM   13  O   UNK N   1      30.374  17.582   8.125  0.00  0.00    -0.349 OA
BRANCH   9  14
HETATM   14  O   UNK N   1      31.432  16.985   4.704  0.00  0.00    -0.388 OA
HETATM   15  H   UNK N   1      32.254  16.484   4.830  0.00  0.00     0.210 HD
ENDBRANCH   9  14
BRANCH  10  16
HETATM   16  N   UNK N   1      28.780  18.000   4.321  0.00  0.00    -0.421 N 
HETATM   17  H   UNK N   1      28.153  18.802   4.363  0.00  0.00     0.150 HD
HETATM   18  H   UNK N   1      29.104  17.668   3.412  0.00  0.00     0.150 HD
ENDBRANCH  10  16
BRANCH  11  19
HETATM   19  O   UNK N   1      27.091  17.445   6.568  0.00  0.00    -0.391 OA
HETATM   20  H   UNK N   1      26.676  16.585   6.398  0.00  0.00     0.210 HD
ENDBRANCH  11  19
BRANCH  12  21
HETATM   21  C   UNK N   1      28.275  17.621   9.237  0.00  0.00     0.198 C 
BRANCH  21  22
HETATM   22  O   UNK N   1      27.509  18.756   8.968  0.00  0.00    -0.398 OA
HETATM   23  H   UNK N   1      27.062  19.437   9.494  0.00  0.00     0.209 HD
ENDBRANCH  21  22
ENDBRANCH  12  21
ENDBRANCH   7   8
ENDBRANCH   1   7
BRANCH   2  24
HETATM   24  N   UNK N   1      34.130  16.091   5.278  0.00  0.00    -0.423 N 
HETATM   25  H   UNK N   1      34.791  16.298   4.529  0.00  0.00     0.150 HD
HETATM   26  H   UNK N   1      33.171  15.871   5.012  0.00  0.00     0.150 HD
ENDBRANCH   2  24
BRANCH   6  27
HETATM   27  O   UNK N   1      32.390  15.840   9.801  0.00  0.00    -0.390 OA
HETATM   28  H   UNK N   1      31.895  16.622  10.092  0.00  0.00     0.210 HD
ENDBRANCH   6  27
BRANCH   5  29
HETATM   29  O   UNK N   1      34.984  15.170  10.723  0.00  0.00    -0.349 OA
BRANCH  29  30
HETATM   30  C   UNK N   1      34.975  13.998  11.491  0.00  0.00     0.283 C 
HETATM   31  O   UNK N   1      34.851  12.903  10.611  0.00  0.00    -0.350 OA
HETATM   32  C   UNK N   1      34.605  11.761  11.391  0.00  0.00     0.170 C 
HETATM   33  C   UNK N   1      35.899  11.377  12.113  0.00  0.00     0.150 C 
HETATM   34  C   UNK N   1      36.291  12.534  13.031  0.00  0.00     0.064 C 
HETATM   35  C   UNK N   1      36.293  13.859  12.266  0.00  0.00     0.132 C 
BRANCH  32  36
HETATM   36  C   UNK N   1      34.130  10.632  10.488  0.00  0.00     0.145 C 
BRANCH  36  37
HETATM   37  N   UNK N   1      32.777  10.898  10.032  0.00  0.00    -0.428 N 
HETATM   38  H   UNK N   1      32.034  11.112  10.698  0.00  0.00     0.150 HD
HETATM   39  H   UNK N   1      32.566  10.869   9.034  0.00  0.00     0.150 HD
ENDBRANCH  36  37
ENDBRANCH  32  36
BRANCH  33  40
HETATM   40  O   UNK N   1      35.711  10.225  12.877  0.00  0.00    -0.393 OA
HETATM   41  H   UNK N   1      34.989   9.966  13.471  0.00  0.00     0.210 HD
ENDBRANCH  33  40
BRANCH  35  42
HETATM   42  N   UNK N   1      36.445  14.956  13.207  0.00  0.00    -0.422 N 
HETATM   43  H   UNK N   1      37.214  15.109  13.858  0.00  0.00     0.150 HD
HETATM   44  H   UNK N   1      35.697  15.650  13.217  0.00  0.00     0.150 HD
ENDBRANCH  35  42
ENDBRANCH  29  30
ENDBRANCH   5  29
BRANCH   4  45
HETATM   45  N   UNK N   1      36.642  13.781   8.640  0.00  0.00    -0.423 N 
HETATM   46  H   UNK N   1      36.574  13.032   9.327  0.00  0.00     0.150 HD
HETATM   47  H   UNK N   1      37.443  13.726   8.011  0.00  0.00     0.150 HD
ENDBRANCH   4  45
TORSDOF 16
ENDMDL
MODEL 9
REMARK VINA RESULT:      -5.6      1.891      7.653
REMARK  16 active torsions:
REMARK  status: ('A' for Active; 'I' for Inactive)
REMARK    1  A    between atoms: C_1  and  C_7 
REMARK    2  A    between atoms: C_2  and  O_9 
REMARK    3  A    between atoms: C_3  and  N_10 
REMARK    4  A    between atoms: C_4  and  O_11 
REMARK    5  A    between atoms: C_5  and  O_12 
REMARK    6  A    between atoms: C_7  and  O_8 
REMARK    7  A    between atoms: C_13  and  O_12 
REMARK    8  A    between atoms: C_14  and  N_19 
REMARK    9  A    between atoms: C_16  and  N_20 
REMARK   10  A    between atoms: C_17  and  O_22 
REMARK   11  A    between atoms: C_18  and  O_21 
REMARK   12  A    between atoms: C_23  and  O_22 
REMARK   13  A    between atoms: C_25  and  C_29 
REMARK   14  A    between atoms: C_26  and  O_31 
REMARK   15  A    between atoms: C_28  and  N_32 
REMARK   16  A    between atoms: C_29  and  N_30 
ROOT
HETATM    1  C   UNK N   1      34.404  14.137   6.389  0.00  0.00     0.178 C 
HETATM    2  C   UNK N   1      33.882  13.188   5.306  0.00  0.00     0.107 C 
HETATM    3  C   UNK N   1      34.191  13.739   3.932  0.00  0.00     0.054 C 
HETATM    4  C   UNK N   1      33.435  15.037   3.732  0.00  0.00     0.107 C 
HETATM    5  C   UNK N   1      33.884  16.106   4.756  0.00  0.00     0.178 C 
HETATM    6  C   UNK N   1      33.795  15.537   6.189  0.00  0.00     0.180 C 
ENDROOT
BRANCH   1   7
HETATM    7  O   UNK N   1      33.989  13.649   7.640  0.00  0.00    -0.349 OA
BRANCH   7   8
HETATM    8  C   UNK N   1      35.066  13.762   8.534  0.00  0.00     0.291 C 
HETATM    9  C   UNK N   1      35.146  12.475   9.375  0.00  0.00     0.198 C 
HETATM   10  C   UNK N   1      36.262  12.611  10.404  0.00  0.00     0.139 C 
HETATM   11  C   UNK N   1      36.085  13.899  11.196  0.00  0.00     0.174 C 
HETATM   12  C   UNK N   1      35.955  15.063  10.198  0.00  0.00     0.179 C 
HETATM   13  O   UNK N   1      34.818  14.856   9.389  0.00  0.00    -0.349 OA
BRANCH   9  14
HETATM   14  O   UNK N   1      35.402  11.368   8.568  0.00  0.00    -0.388 OA
HETATM   15  H   UNK N   1      34.977  10.504   8.688  0.00  0.00     0.210 HD
ENDBRANCH   9  14
BRANCH  10  16
HETATM   16  N   UNK N   1      36.250  11.468  11.303  0.00  0.00    -0.421 N 
HETATM   17  H   UNK N   1      37.073  10.880  11.430  0.00  0.00     0.150 HD
HETATM   18  H   UNK N   1      35.397  11.251  11.820  0.00  0.00     0.150 HD
ENDBRANCH  10  16
BRANCH  11  19
HETATM   19  O   UNK N   1      37.190  14.076  12.033  0.00  0.00    -0.391 OA
HETATM   20  H   UNK N   1      37.538  14.865  12.476  0.00  0.00     0.210 HD
ENDBRANCH  11  19
BRANCH  12  21
HETATM   21  C   UNK N   1      35.780  16.389  10.928  0.00  0.00     0.198 C 
BRANCH  21  22
HETATM   22  O   UNK N   1      35.268  17.362  10.069  0.00  0.00    -0.398 OA
HETATM   23  H   UNK N   1      35.006  17.402   9.137  0.00  0.00     0.209 HD
ENDBRANCH  21  22
ENDBRANCH  12  21
ENDBRANCH   7   8
ENDBRANCH   1   7
BRANCH   2  24
HETATM   24  N   UNK N   1      34.496  11.881   5.426  0.00  0.00    -0.423 N 
HETATM   25  H   UNK N   1      34.222  11.165   6.100  0.00  0.00     0.150 HD
HETATM   26  H   UNK N   1      35.260  11.659   4.789  0.00  0.00     0.150 HD
ENDBRANCH   2  24
BRANCH   6  27
HETATM   27  O   UNK N   1      34.363  16.437   7.092  0.00  0.00    -0.390 OA
HETATM   28  H   UNK N   1      33.808  17.085   7.553  0.00  0.00     0.210 HD
ENDBRANCH   6  27
BRANCH   5  29
HETATM   29  O   UNK N   1      33.022  17.225   4.724  0.00  0.00    -0.349 OA
BRANCH  29  30
HETATM   30  C   UNK N   1      31.796  16.898   5.319  0.00  0.00     0.283 C 
HETATM   31  O   UNK N   1      31.805  17.401   6.636  0.00  0.00    -0.350 OA
HETATM   32  C   UNK N   1      30.685  16.871   7.298  0.00  0.00     0.170 C 
HETATM   33  C   UNK N   1      29.430  17.560   6.759  0.00  0.00     0.150 C 
HETATM   34  C   UNK N   1      29.322  17.248   5.266  0.00  0.00     0.064 C 
HETATM   35  C   UNK N   1      30.640  17.553   4.550  0.00  0.00     0.132 C 
BRANCH  32  36
HETATM   36  C   UNK N   1      30.833  17.103   8.794  0.00  0.00     0.145 C 
BRANCH  36  37
HETATM   37  N   UNK N   1      32.197  16.823   9.208  0.00  0.00    -0.428 N 
HETATM   38  H   UNK N   1      32.396  16.483  10.150  0.00  0.00     0.150 HD
HETATM   39  H   UNK N   1      32.964  16.968   8.551  0.00  0.00     0.150 HD
ENDBRANCH  36  37
ENDBRANCH  32  36
BRANCH  33  40
HETATM   40  O   UNK N   1      28.291  17.087   7.412  0.00  0.00    -0.393 OA
HETATM   41  H   UNK N   1      27.858  16.219   7.387  0.00  0.00     0.210 HD
ENDBRANCH  33  40
BRANCH  35  42
HETATM   42  N   UNK N   1      30.579  17.037   3.193  0.00  0.00    -0.422 N 
HETATM   43  H   UNK N   1      31.076  16.231   2.817  0.00  0.00     0.150 HD
HETATM   44  H   UNK N   1      29.970  17.538   2.545  0.00  0.00     0.150 HD
ENDBRANCH  35  42
ENDBRANCH  29  30
ENDBRANCH   5  29
BRANCH   4  45
HETATM   45  N   UNK N   1      33.683  15.480   2.372  0.00  0.00    -0.423 N 
HETATM   46  H   UNK N   1      33.369  16.327   1.901  0.00  0.00     0.150 HD
HETATM   47  H   UNK N   1      34.253  14.851   1.806  0.00  0.00     0.150 HD
ENDBRANCH   4  45
TORSDOF 16
ENDMDL
