REMARK  2 active torsions:
REMARK  status: ('A' for Active; 'I' for Inactive)
REMARK    1  A    between atoms: C_2  and  O_21 
REMARK    2  A    between atoms: C_17  and  C_18 
ROOT
HETATM    1  C   UNK N   1       7.051 -10.590  -0.357  0.00  0.00     0.032 C 
HETATM    2  C   UNK N   1       7.102 -12.119  -0.239  0.00  0.00     0.118 C 
HETATM    3  C   UNK N   1       8.365 -12.687  -0.880  0.00  0.00     0.037 C 
HETATM    4  C   UNK N   1       9.674 -12.139  -0.285  0.00  0.00    -0.004 C 
HETATM    5  C   UNK N   1       9.540 -10.694   0.331  0.00  0.00    -0.036 C 
HETATM    6  C   UNK N   1       8.427  -9.900  -0.376  0.00  0.00     0.012 C 
HETATM    7  C   UNK N   1      10.747 -12.211  -1.382  0.00  0.00     0.006 C 
HETATM    8  C   UNK N   1      12.145 -11.756  -0.899  0.00  0.00     0.006 C 
HETATM    9  C   UNK N   1      12.098 -10.846   0.347  0.00  0.00    -0.005 C 
HETATM   10  C   UNK N   1      10.873  -9.905   0.182  0.00  0.00    -0.002 C 
HETATM   11  C   UNK N   1      13.397 -10.029   0.583  0.00  0.00    -0.001 C 
HETATM   12  C   UNK N   1      13.368  -8.617   0.015  0.00  0.00    -0.030 C 
HETATM   13  C   UNK N   1      12.260  -7.805   0.721  0.00  0.00     0.011 C 
HETATM   14  C   UNK N   1      10.978  -8.625   1.035  0.00  0.00     0.006 C 
HETATM   15  C   UNK N   1      14.729 -10.613   0.122  0.00  0.00     0.006 C 
HETATM   16  C   UNK N   1      15.654  -9.388  -0.004  0.00  0.00     0.013 C 
HETATM   17  C   UNK N   1      14.784  -8.178   0.368  0.00  0.00     0.063 C 
HETATM   18  C   UNK N   1      13.169  -8.594  -1.509  0.00  0.00     0.016 C 
HETATM   19  C   UNK N   1       9.186 -10.819   1.816  0.00  0.00     0.016 C 
ENDROOT
BRANCH  17  20
HETATM   20  C   UNK N   1      15.213  -6.842  -0.188  0.00  0.00     0.128 C 
HETATM   21  C   UNK N   1      16.374  -6.723  -1.119  0.00  0.00     0.091 C 
HETATM   22  O   UNK N   1      14.609  -5.833   0.141  0.00  0.00    -0.298 OA
ENDBRANCH  17  20
BRANCH   2  23
HETATM   23  O   UNK N   1       6.994 -12.518   1.094  0.00  0.00    -0.396 OA
HETATM   24  H   UNK N   1       6.716 -12.591   2.020  0.00  0.00     0.210 HD
ENDBRANCH   2  23
TORSDOF 2
