MODEL 1
REMARK VINA RESULT:      -7.5      0.000      0.000
REMARK  2 active torsions:
REMARK  status: ('A' for Active; 'I' for Inactive)
REMARK    1  A    between atoms: C_2  and  O_21 
REMARK    2  A    between atoms: C_17  and  C_18 
ROOT
HETATM    1  C   UNK N   1      26.779  27.315  -4.638  0.00  0.00     0.032 C 
HETATM    2  C   UNK N   1      25.944  27.014  -5.891  0.00  0.00     0.118 C 
HETATM    3  C   UNK N   1      26.767  26.283  -6.947  0.00  0.00     0.037 C 
HETATM    4  C   UNK N   1      27.366  24.949  -6.467  0.00  0.00    -0.004 C 
HETATM    5  C   UNK N   1      27.625  24.888  -4.913  0.00  0.00    -0.036 C 
HETATM    6  C   UNK N   1      27.894  26.295  -4.349  0.00  0.00     0.012 C 
HETATM    7  C   UNK N   1      28.642  24.694  -7.283  0.00  0.00     0.006 C 
HETATM    8  C   UNK N   1      29.316  23.340  -6.955  0.00  0.00     0.006 C 
HETATM    9  C   UNK N   1      28.930  22.783  -5.568  0.00  0.00    -0.005 C 
HETATM   10  C   UNK N   1      28.854  23.990  -4.593  0.00  0.00    -0.002 C 
HETATM   11  C   UNK N   1      29.899  21.696  -5.031  0.00  0.00    -0.001 C 
HETATM   12  C   UNK N   1      30.984  22.220  -4.100  0.00  0.00    -0.030 C 
HETATM   13  C   UNK N   1      30.328  22.819  -2.837  0.00  0.00     0.011 C 
HETATM   14  C   UNK N   1      29.001  23.579  -3.114  0.00  0.00     0.006 C 
HETATM   15  C   UNK N   1      30.632  20.803  -6.028  0.00  0.00     0.006 C 
HETATM   16  C   UNK N   1      31.847  20.277  -5.242  0.00  0.00     0.013 C 
HETATM   17  C   UNK N   1      31.746  20.924  -3.852  0.00  0.00     0.063 C 
HETATM   18  C   UNK N   1      31.899  23.253  -4.778  0.00  0.00     0.016 C 
HETATM   19  C   UNK N   1      26.382  24.314  -4.225  0.00  0.00     0.016 C 
ENDROOT
BRANCH  17  20
HETATM   20  C   UNK N   1      33.034  21.060  -3.076  0.00  0.00     0.128 C 
HETATM   21  C   UNK N   1      34.362  20.904  -3.739  0.00  0.00     0.091 C 
HETATM   22  O   UNK N   1      32.991  21.287  -1.877  0.00  0.00    -0.298 OA
ENDBRANCH  17  20
BRANCH   2  23
HETATM   23  O   UNK N   1      24.796  26.293  -5.561  0.00  0.00    -0.396 OA
HETATM   24  H   UNK N   1      24.173  25.690  -5.127  0.00  0.00     0.210 HD
ENDBRANCH   2  23
TORSDOF 2
ENDMDL
MODEL 2
REMARK VINA RESULT:      -7.4      4.809      7.000
REMARK  2 active torsions:
REMARK  status: ('A' for Active; 'I' for Inactive)
REMARK    1  A    between atoms: C_2  and  O_21 
REMARK    2  A    between atoms: C_17  and  C_18 
ROOT
HETATM    1  C   UNK N   1      27.564  22.702  -9.276  0.00  0.00     0.032 C 
HETATM    2  C   UNK N   1      26.329  21.891  -8.863  0.00  0.00     0.118 C 
HETATM    3  C   UNK N   1      25.999  22.088  -7.387  0.00  0.00     0.037 C 
HETATM    4  C   UNK N   1      25.738  23.552  -6.990  0.00  0.00    -0.004 C 
HETATM    5  C   UNK N   1      26.478  24.603  -7.903  0.00  0.00    -0.036 C 
HETATM    6  C   UNK N   1      27.772  24.006  -8.484  0.00  0.00     0.012 C 
HETATM    7  C   UNK N   1      26.107  23.702  -5.506  0.00  0.00     0.006 C 
HETATM    8  C   UNK N   1      25.824  25.117  -4.947  0.00  0.00     0.006 C 
HETATM    9  C   UNK N   1      25.753  26.206  -6.039  0.00  0.00    -0.005 C 
HETATM   10  C   UNK N   1      26.850  25.876  -7.088  0.00  0.00    -0.002 C 
HETATM   11  C   UNK N   1      25.917  27.653  -5.502  0.00  0.00    -0.001 C 
HETATM   12  C   UNK N   1      27.336  28.199  -5.579  0.00  0.00    -0.030 C 
HETATM   13  C   UNK N   1      27.773  28.278  -7.058  0.00  0.00     0.011 C 
HETATM   14  C   UNK N   1      27.264  27.098  -7.932  0.00  0.00     0.006 C 
HETATM   15  C   UNK N   1      25.448  27.970  -4.085  0.00  0.00     0.006 C 
HETATM   16  C   UNK N   1      26.230  29.242  -3.705  0.00  0.00     0.013 C 
HETATM   17  C   UNK N   1      27.116  29.555  -4.920  0.00  0.00     0.063 C 
HETATM   18  C   UNK N   1      28.338  27.367  -4.762  0.00  0.00     0.016 C 
HETATM   19  C   UNK N   1      25.553  24.992  -9.060  0.00  0.00     0.016 C 
ENDROOT
BRANCH  17  20
HETATM   20  C   UNK N   1      28.363  30.364  -4.655  0.00  0.00     0.128 C 
HETATM   21  C   UNK N   1      29.091  31.056  -5.760  0.00  0.00     0.091 C 
HETATM   22  O   UNK N   1      28.797  30.443  -3.517  0.00  0.00    -0.298 OA
ENDBRANCH  17  20
BRANCH   2  23
HETATM   23  O   UNK N   1      25.234  22.210  -9.668  0.00  0.00    -0.396 OA
HETATM   24  H   UNK N   1      24.683  22.512 -10.406  0.00  0.00     0.210 HD
ENDBRANCH   2  23
TORSDOF 2
ENDMDL
MODEL 3
REMARK VINA RESULT:      -7.2     11.694     15.788
REMARK  2 active torsions:
REMARK  status: ('A' for Active; 'I' for Inactive)
REMARK    1  A    between atoms: C_2  and  O_21 
REMARK    2  A    between atoms: C_17  and  C_18 
ROOT
HETATM    1  C   UNK N   1      34.710  14.903  11.163  0.00  0.00     0.032 C 
HETATM    2  C   UNK N   1      36.187  14.824  10.754  0.00  0.00     0.118 C 
HETATM    3  C   UNK N   1      36.342  14.354   9.311  0.00  0.00     0.037 C 
HETATM    4  C   UNK N   1      35.629  15.246   8.279  0.00  0.00    -0.004 C 
HETATM    5  C   UNK N   1      34.378  16.013   8.853  0.00  0.00    -0.036 C 
HETATM    6  C   UNK N   1      33.740  15.227  10.013  0.00  0.00     0.012 C 
HETATM    7  C   UNK N   1      35.272  14.363   7.073  0.00  0.00     0.006 C 
HETATM    8  C   UNK N   1      34.610  15.149   5.916  0.00  0.00     0.006 C 
HETATM    9  C   UNK N   1      33.961  16.475   6.368  0.00  0.00    -0.005 C 
HETATM   10  C   UNK N   1      33.300  16.216   7.749  0.00  0.00    -0.002 C 
HETATM   11  C   UNK N   1      32.930  17.051   5.359  0.00  0.00    -0.001 C 
HETATM   12  C   UNK N   1      31.484  16.680   5.653  0.00  0.00    -0.030 C 
HETATM   13  C   UNK N   1      31.071  17.273   7.018  0.00  0.00     0.011 C 
HETATM   14  C   UNK N   1      32.195  17.236   8.089  0.00  0.00     0.006 C 
HETATM   15  C   UNK N   1      33.117  16.767   3.872  0.00  0.00     0.006 C 
HETATM   16  C   UNK N   1      31.715  16.976   3.270  0.00  0.00     0.013 C 
HETATM   17  C   UNK N   1      30.810  17.341   4.456  0.00  0.00     0.063 C 
HETATM   18  C   UNK N   1      31.243  15.162   5.627  0.00  0.00     0.016 C 
HETATM   19  C   UNK N   1      34.832  17.379   9.378  0.00  0.00     0.016 C 
ENDROOT
BRANCH  17  20
HETATM   20  C   UNK N   1      29.337  17.055   4.294  0.00  0.00     0.128 C 
HETATM   21  C   UNK N   1      28.824  16.230   3.160  0.00  0.00     0.091 C 
HETATM   22  O   UNK N   1      28.543  17.519   5.097  0.00  0.00    -0.298 OA
ENDBRANCH  17  20
BRANCH   2  23
HETATM   23  O   UNK N   1      36.823  16.049  10.954  0.00  0.00    -0.396 OA
HETATM   24  H   UNK N   1      37.495  16.729  11.121  0.00  0.00     0.210 HD
ENDBRANCH   2  23
TORSDOF 2
ENDMDL
MODEL 4
REMARK VINA RESULT:      -7.1      4.518      5.764
REMARK  2 active torsions:
REMARK  status: ('A' for Active; 'I' for Inactive)
REMARK    1  A    between atoms: C_2  and  O_21 
REMARK    2  A    between atoms: C_17  and  C_18 
ROOT
HETATM    1  C   UNK N   1      27.349  28.301  -2.969  0.00  0.00     0.032 C 
HETATM    2  C   UNK N   1      27.274  29.675  -3.649  0.00  0.00     0.118 C 
HETATM    3  C   UNK N   1      27.819  29.624  -5.073  0.00  0.00     0.037 C 
HETATM    4  C   UNK N   1      27.095  28.621  -5.989  0.00  0.00    -0.004 C 
HETATM    5  C   UNK N   1      26.449  27.405  -5.220  0.00  0.00    -0.036 C 
HETATM    6  C   UNK N   1      27.226  27.102  -3.926  0.00  0.00     0.012 C 
HETATM    7  C   UNK N   1      28.096  28.169  -7.063  0.00  0.00     0.006 C 
HETATM    8  C   UNK N   1      27.479  27.206  -8.106  0.00  0.00     0.006 C 
HETATM    9  C   UNK N   1      26.214  26.481  -7.598  0.00  0.00    -0.005 C 
HETATM   10  C   UNK N   1      26.457  26.126  -6.105  0.00  0.00    -0.002 C 
HETATM   11  C   UNK N   1      25.840  25.215  -8.415  0.00  0.00    -0.001 C 
HETATM   12  C   UNK N   1      26.365  23.909  -7.834  0.00  0.00    -0.030 C 
HETATM   13  C   UNK N   1      25.734  23.679  -6.444  0.00  0.00     0.011 C 
HETATM   14  C   UNK N   1      25.559  24.976  -5.606  0.00  0.00     0.006 C 
HETATM   15  C   UNK N   1      26.201  25.161  -9.897  0.00  0.00     0.006 C 
HETATM   16  C   UNK N   1      26.207  23.657 -10.229  0.00  0.00     0.013 C 
HETATM   17  C   UNK N   1      25.876  22.945  -8.908  0.00  0.00     0.063 C 
HETATM   18  C   UNK N   1      27.899  23.872  -7.746  0.00  0.00     0.016 C 
HETATM   19  C   UNK N   1      25.006  27.762  -4.853  0.00  0.00     0.016 C 
ENDROOT
BRANCH  17  20
HETATM   20  C   UNK N   1      26.351  21.519  -8.773  0.00  0.00     0.128 C 
HETATM   21  C   UNK N   1      25.557  20.502  -8.022  0.00  0.00     0.091 C 
HETATM   22  O   UNK N   1      27.415  21.190  -9.274  0.00  0.00    -0.298 OA
ENDBRANCH  17  20
BRANCH   2  23
HETATM   23  O   UNK N   1      25.969  30.168  -3.630  0.00  0.00    -0.396 OA
HETATM   24  H   UNK N   1      25.033  30.304  -3.417  0.00  0.00     0.210 HD
ENDBRANCH   2  23
TORSDOF 2
ENDMDL
MODEL 5
REMARK VINA RESULT:      -7.1      3.230      4.324
REMARK  2 active torsions:
REMARK  status: ('A' for Active; 'I' for Inactive)
REMARK    1  A    between atoms: C_2  and  O_21 
REMARK    2  A    between atoms: C_17  and  C_18 
ROOT
HETATM    1  C   UNK N   1      28.057  27.856  -3.774  0.00  0.00     0.032 C 
HETATM    2  C   UNK N   1      26.606  28.354  -3.752  0.00  0.00     0.118 C 
HETATM    3  C   UNK N   1      25.888  28.041  -5.062  0.00  0.00     0.037 C 
HETATM    4  C   UNK N   1      25.852  26.545  -5.418  0.00  0.00    -0.004 C 
HETATM    5  C   UNK N   1      27.053  25.717  -4.821  0.00  0.00    -0.036 C 
HETATM    6  C   UNK N   1      28.296  26.608  -4.644  0.00  0.00     0.012 C 
HETATM    7  C   UNK N   1      25.766  26.434  -6.948  0.00  0.00     0.006 C 
HETATM    8  C   UNK N   1      25.649  24.975  -7.449  0.00  0.00     0.006 C 
HETATM    9  C   UNK N   1      26.165  23.934  -6.433  0.00  0.00    -0.005 C 
HETATM   10  C   UNK N   1      27.430  24.536  -5.762  0.00  0.00    -0.002 C 
HETATM   11  C   UNK N   1      26.475  22.544  -7.054  0.00  0.00    -0.001 C 
HETATM   12  C   UNK N   1      27.932  22.335  -7.440  0.00  0.00    -0.030 C 
HETATM   13  C   UNK N   1      28.812  22.404  -6.173  0.00  0.00     0.011 C 
HETATM   14  C   UNK N   1      28.348  23.466  -5.138  0.00  0.00     0.006 C 
HETATM   15  C   UNK N   1      25.674  22.085  -8.268  0.00  0.00     0.006 C 
HETATM   16  C   UNK N   1      26.564  21.011  -8.922  0.00  0.00     0.013 C 
HETATM   17  C   UNK N   1      27.830  20.944  -8.054  0.00  0.00     0.063 C 
HETATM   18  C   UNK N   1      28.419  23.345  -8.492  0.00  0.00     0.016 C 
HETATM   19  C   UNK N   1      26.645  25.166  -3.452  0.00  0.00     0.016 C 
ENDROOT
BRANCH  17  20
HETATM   20  C   UNK N   1      29.081  20.429  -8.723  0.00  0.00     0.128 C 
HETATM   21  C   UNK N   1      30.161  19.758  -7.942  0.00  0.00     0.091 C 
HETATM   22  O   UNK N   1      29.222  20.578  -9.927  0.00  0.00    -0.298 OA
ENDBRANCH  17  20
BRANCH   2  23
HETATM   23  O   UNK N   1      25.915  27.823  -2.663  0.00  0.00    -0.396 OA
HETATM   24  H   UNK N   1      25.208  27.531  -2.066  0.00  0.00     0.210 HD
ENDBRANCH   2  23
TORSDOF 2
ENDMDL
MODEL 6
REMARK VINA RESULT:      -6.8      1.353      6.897
REMARK  2 active torsions:
REMARK  status: ('A' for Active; 'I' for Inactive)
REMARK    1  A    between atoms: C_2  and  O_21 
REMARK    2  A    between atoms: C_17  and  C_18 
ROOT
HETATM    1  C   UNK N   1      33.726  21.479  -4.963  0.00  0.00     0.032 C 
HETATM    2  C   UNK N   1      33.464  20.517  -3.797  0.00  0.00     0.118 C 
HETATM    3  C   UNK N   1      32.605  21.167  -2.718  0.00  0.00     0.037 C 
HETATM    4  C   UNK N   1      31.236  21.663  -3.217  0.00  0.00    -0.004 C 
HETATM    5  C   UNK N   1      31.213  22.043  -4.746  0.00  0.00    -0.036 C 
HETATM    6  C   UNK N   1      32.605  22.504  -5.216  0.00  0.00     0.012 C 
HETATM    7  C   UNK N   1      30.811  22.833  -2.316  0.00  0.00     0.006 C 
HETATM    8  C   UNK N   1      29.408  23.388  -2.659  0.00  0.00     0.006 C 
HETATM    9  C   UNK N   1      28.954  23.064  -4.098  0.00  0.00    -0.005 C 
HETATM   10  C   UNK N   1      30.202  23.195  -5.014  0.00  0.00    -0.002 C 
HETATM   11  C   UNK N   1      27.792  23.957  -4.611  0.00  0.00    -0.001 C 
HETATM   12  C   UNK N   1      28.236  25.164  -5.426  0.00  0.00    -0.030 C 
HETATM   13  C   UNK N   1      28.955  24.682  -6.705  0.00  0.00     0.011 C 
HETATM   14  C   UNK N   1      29.840  23.422  -6.495  0.00  0.00     0.006 C 
HETATM   15  C   UNK N   1      26.785  24.507  -3.606  0.00  0.00     0.006 C 
HETATM   16  C   UNK N   1      26.165  25.723  -4.320  0.00  0.00     0.013 C 
HETATM   17  C   UNK N   1      26.877  25.806  -5.679  0.00  0.00     0.063 C 
HETATM   18  C   UNK N   1      29.135  26.121  -4.627  0.00  0.00     0.016 C 
HETATM   19  C   UNK N   1      30.805  20.810  -5.558  0.00  0.00     0.016 C 
ENDROOT
BRANCH  17  20
HETATM   20  C   UNK N   1      26.906  27.161  -6.343  0.00  0.00     0.128 C 
HETATM   21  C   UNK N   1      26.686  28.415  -5.563  0.00  0.00     0.091 C 
HETATM   22  O   UNK N   1      27.098  27.235  -7.547  0.00  0.00    -0.298 OA
ENDBRANCH  17  20
BRANCH   2  23
HETATM   23  O   UNK N   1      32.885  19.331  -4.252  0.00  0.00    -0.396 OA
HETATM   24  H   UNK N   1      32.619  18.403  -4.338  0.00  0.00     0.210 HD
ENDBRANCH   2  23
TORSDOF 2
ENDMDL
MODEL 7
REMARK VINA RESULT:      -6.6      1.935      2.976
REMARK  2 active torsions:
REMARK  status: ('A' for Active; 'I' for Inactive)
REMARK    1  A    between atoms: C_2  and  O_21 
REMARK    2  A    between atoms: C_17  and  C_18 
ROOT
HETATM    1  C   UNK N   1      26.937  28.382  -5.893  0.00  0.00     0.032 C 
HETATM    2  C   UNK N   1      25.973  28.403  -4.699  0.00  0.00     0.118 C 
HETATM    3  C   UNK N   1      25.755  27.003  -4.132  0.00  0.00     0.037 C 
HETATM    4  C   UNK N   1      27.045  26.305  -3.665  0.00  0.00    -0.004 C 
HETATM    5  C   UNK N   1      28.342  26.787  -4.423  0.00  0.00    -0.036 C 
HETATM    6  C   UNK N   1      27.997  27.267  -5.844  0.00  0.00     0.012 C 
HETATM    7  C   UNK N   1      26.823  24.790  -3.789  0.00  0.00     0.006 C 
HETATM    8  C   UNK N   1      28.022  23.954  -3.281  0.00  0.00     0.006 C 
HETATM    9  C   UNK N   1      29.353  24.737  -3.265  0.00  0.00    -0.005 C 
HETATM   10  C   UNK N   1      29.376  25.630  -4.536  0.00  0.00    -0.002 C 
HETATM   11  C   UNK N   1      30.616  23.836  -3.197  0.00  0.00    -0.001 C 
HETATM   12  C   UNK N   1      31.247  23.529  -4.548  0.00  0.00    -0.030 C 
HETATM   13  C   UNK N   1      31.737  24.845  -5.193  0.00  0.00     0.011 C 
HETATM   14  C   UNK N   1      30.799  26.058  -4.945  0.00  0.00     0.006 C 
HETATM   15  C   UNK N   1      30.522  22.487  -2.491  0.00  0.00     0.006 C 
HETATM   16  C   UNK N   1      31.694  21.674  -3.072  0.00  0.00     0.013 C 
HETATM   17  C   UNK N   1      32.368  22.602  -4.094  0.00  0.00     0.063 C 
HETATM   18  C   UNK N   1      30.292  22.785  -5.495  0.00  0.00     0.016 C 
HETATM   19  C   UNK N   1      28.964  27.952  -3.648  0.00  0.00     0.016 C 
ENDROOT
BRANCH  17  20
HETATM   20  C   UNK N   1      33.152  21.934  -5.197  0.00  0.00     0.128 C 
HETATM   21  C   UNK N   1      32.971  20.486  -5.515  0.00  0.00     0.091 C 
HETATM   22  O   UNK N   1      33.964  22.585  -5.836  0.00  0.00    -0.298 OA
ENDBRANCH  17  20
BRANCH   2  23
HETATM   23  O   UNK N   1      26.425  29.279  -3.711  0.00  0.00    -0.396 OA
HETATM   24  H   UNK N   1      26.988  29.846  -3.162  0.00  0.00     0.210 HD
ENDBRANCH   2  23
TORSDOF 2
ENDMDL
MODEL 8
REMARK VINA RESULT:      -6.5      1.693      2.219
REMARK  2 active torsions:
REMARK  status: ('A' for Active; 'I' for Inactive)
REMARK    1  A    between atoms: C_2  and  O_21 
REMARK    2  A    between atoms: C_17  and  C_18 
ROOT
HETATM    1  C   UNK N   1      27.730  28.357  -3.666  0.00  0.00     0.032 C 
HETATM    2  C   UNK N   1      26.536  28.701  -4.566  0.00  0.00     0.118 C 
HETATM    3  C   UNK N   1      26.708  28.123  -5.967  0.00  0.00     0.037 C 
HETATM    4  C   UNK N   1      26.879  26.594  -6.001  0.00  0.00    -0.004 C 
HETATM    5  C   UNK N   1      27.511  25.993  -4.688  0.00  0.00    -0.036 C 
HETATM    6  C   UNK N   1      28.424  27.024  -3.999  0.00  0.00     0.012 C 
HETATM    7  C   UNK N   1      27.696  26.247  -7.255  0.00  0.00     0.006 C 
HETATM    8  C   UNK N   1      27.885  24.725  -7.459  0.00  0.00     0.006 C 
HETATM    9  C   UNK N   1      27.715  23.906  -6.161  0.00  0.00    -0.005 C 
HETATM   10  C   UNK N   1      28.359  24.729  -5.012  0.00  0.00    -0.002 C 
HETATM   11  C   UNK N   1      28.322  22.479  -6.229  0.00  0.00    -0.001 C 
HETATM   12  C   UNK N   1      29.733  22.365  -5.670  0.00  0.00    -0.030 C 
HETATM   13  C   UNK N   1      29.717  22.713  -4.165  0.00  0.00     0.011 C 
HETATM   14  C   UNK N   1      28.742  23.865  -3.794  0.00  0.00     0.006 C 
HETATM   15  C   UNK N   1      28.371  21.763  -7.575  0.00  0.00     0.006 C 
HETATM   16  C   UNK N   1      29.472  20.700  -7.396  0.00  0.00     0.013 C 
HETATM   17  C   UNK N   1      30.000  20.894  -5.967  0.00  0.00     0.063 C 
HETATM   18  C   UNK N   1      30.742  23.250  -6.419  0.00  0.00     0.016 C 
HETATM   19  C   UNK N   1      26.383  25.615  -3.723  0.00  0.00     0.016 C 
ENDROOT
BRANCH  17  20
HETATM   20  C   UNK N   1      31.406  20.416  -5.697  0.00  0.00     0.128 C 
HETATM   21  C   UNK N   1      32.375  20.179  -6.808  0.00  0.00     0.091 C 
HETATM   22  O   UNK N   1      31.757  20.204  -4.547  0.00  0.00    -0.298 OA
ENDBRANCH  17  20
BRANCH   2  23
HETATM   23  O   UNK N   1      25.339  28.271  -3.990  0.00  0.00    -0.396 OA
HETATM   24  H   UNK N   1      24.505  27.806  -3.825  0.00  0.00     0.210 HD
ENDBRANCH   2  23
TORSDOF 2
ENDMDL
MODEL 9
REMARK VINA RESULT:      -6.5      1.778      6.840
REMARK  2 active torsions:
REMARK  status: ('A' for Active; 'I' for Inactive)
REMARK    1  A    between atoms: C_2  and  O_21 
REMARK    2  A    between atoms: C_17  and  C_18 
ROOT
HETATM    1  C   UNK N   1      31.041  20.321  -5.520  0.00  0.00     0.032 C 
HETATM    2  C   UNK N   1      32.488  20.336  -5.009  0.00  0.00     0.118 C 
HETATM    3  C   UNK N   1      33.131  21.708  -5.193  0.00  0.00     0.037 C 
HETATM    4  C   UNK N   1      32.385  22.853  -4.485  0.00  0.00    -0.004 C 
HETATM    5  C   UNK N   1      30.841  22.592  -4.302  0.00  0.00    -0.036 C 
HETATM    6  C   UNK N   1      30.307  21.670  -5.413  0.00  0.00     0.012 C 
HETATM    7  C   UNK N   1      32.672  24.144  -5.266  0.00  0.00     0.006 C 
HETATM    8  C   UNK N   1      32.039  25.401  -4.621  0.00  0.00     0.006 C 
HETATM    9  C   UNK N   1      30.851  25.080  -3.689  0.00  0.00    -0.005 C 
HETATM   10  C   UNK N   1      30.046  23.928  -4.351  0.00  0.00    -0.002 C 
HETATM   11  C   UNK N   1      29.934  26.297  -3.390  0.00  0.00    -0.001 C 
HETATM   12  C   UNK N   1      28.712  26.404  -4.290  0.00  0.00    -0.030 C 
HETATM   13  C   UNK N   1      27.808  25.170  -4.074  0.00  0.00     0.011 C 
HETATM   14  C   UNK N   1      28.590  23.846  -3.850  0.00  0.00     0.006 C 
HETATM   15  C   UNK N   1      30.545  27.695  -3.385  0.00  0.00     0.006 C 
HETATM   16  C   UNK N   1      29.343  28.632  -3.613  0.00  0.00     0.013 C 
HETATM   17  C   UNK N   1      28.126  27.707  -3.760  0.00  0.00     0.063 C 
HETATM   18  C   UNK N   1      29.079  26.552  -5.776  0.00  0.00     0.016 C 
HETATM   19  C   UNK N   1      30.611  21.913  -2.948  0.00  0.00     0.016 C 
ENDROOT
BRANCH  17  20
HETATM   20  C   UNK N   1      26.949  28.257  -4.530  0.00  0.00     0.128 C 
HETATM   21  C   UNK N   1      25.560  27.773  -4.278  0.00  0.00     0.091 C 
HETATM   22  O   UNK N   1      27.137  29.105  -5.388  0.00  0.00    -0.298 OA
ENDBRANCH  17  20
BRANCH   2  23
HETATM   23  O   UNK N   1      32.548  19.930  -3.676  0.00  0.00    -0.396 OA
HETATM   24  H   UNK N   1      32.365  19.827  -2.729  0.00  0.00     0.210 HD
ENDBRANCH   2  23
TORSDOF 2
ENDMDL
