REMARK  16 active torsions:
REMARK  status: ('A' for Active; 'I' for Inactive)
REMARK    1  A    between atoms: C_1  and  C_7 
REMARK    2  A    between atoms: C_2  and  O_9 
REMARK    3  A    between atoms: C_3  and  N_10 
REMARK    4  A    between atoms: C_4  and  O_11 
REMARK    5  A    between atoms: C_5  and  O_12 
REMARK    6  A    between atoms: C_7  and  O_8 
REMARK    7  A    between atoms: C_13  and  O_12 
REMARK    8  A    between atoms: C_14  and  N_19 
REMARK    9  A    between atoms: C_16  and  N_20 
REMARK   10  A    between atoms: C_17  and  O_22 
REMARK   11  A    between atoms: C_18  and  O_21 
REMARK   12  A    between atoms: C_23  and  O_22 
REMARK   13  A    between atoms: C_25  and  C_29 
REMARK   14  A    between atoms: C_26  and  O_31 
REMARK   15  A    between atoms: C_28  and  N_32 
REMARK   16  A    between atoms: C_29  and  N_30 
ROOT
HETATM    1  C   UNK N   1      14.880 -11.801  -0.077  0.00  0.00     0.178 C 
HETATM    2  C   UNK N   1      16.199 -12.580  -0.101  0.00  0.00     0.107 C 
HETATM    3  C   UNK N   1      17.251 -11.855   0.707  0.00  0.00     0.054 C 
HETATM    4  C   UNK N   1      17.556 -10.523   0.052  0.00  0.00     0.107 C 
HETATM    5  C   UNK N   1      16.303  -9.615   0.029  0.00  0.00     0.178 C 
HETATM    6  C   UNK N   1      15.113 -10.372  -0.600  0.00  0.00     0.180 C 
ENDROOT
BRANCH   1   7
HETATM    7  O   UNK N   1      13.972 -12.444  -0.936  0.00  0.00    -0.349 OA
BRANCH   7   8
HETATM    8  C   UNK N   1      12.836 -12.795  -0.190  0.00  0.00     0.291 C 
HETATM    9  C   UNK N   1      12.548 -14.292  -0.404  0.00  0.00     0.198 C 
HETATM   10  C   UNK N   1      11.273 -14.674   0.337  0.00  0.00     0.139 C 
HETATM   11  C   UNK N   1      10.144 -13.730  -0.050  0.00  0.00     0.174 C 
HETATM   12  C   UNK N   1      10.630 -12.286   0.164  0.00  0.00     0.179 C 
HETATM   13  O   UNK N   1      11.743 -12.043  -0.668  0.00  0.00    -0.349 OA
BRANCH   9  14
HETATM   14  O   UNK N   1      13.601 -15.074   0.066  0.00  0.00    -0.388 OA
HETATM   15  H   UNK N   1      13.495 -15.982   0.393  0.00  0.00     0.210 HD
ENDBRANCH   9  14
BRANCH  10  16
HETATM   16  N   UNK N   1      10.906 -16.045   0.020  0.00  0.00    -0.421 N 
HETATM   17  H   UNK N   1       9.945 -16.303  -0.202  0.00  0.00     0.150 HD
HETATM   18  H   UNK N   1      11.628 -16.766   0.020  0.00  0.00     0.150 HD
ENDBRANCH  10  16
BRANCH  11  19
HETATM   19  O   UNK N   1       9.026 -14.006   0.742  0.00  0.00    -0.391 OA
HETATM   20  H   UNK N   1       8.472 -13.430   1.291  0.00  0.00     0.210 HD
ENDBRANCH  11  19
BRANCH  12  21
HETATM   21  C   UNK N   1       9.540 -11.285  -0.201  0.00  0.00     0.198 C 
BRANCH  21  22
HETATM   22  O   UNK N   1       8.497 -11.331   0.725  0.00  0.00    -0.398 OA
HETATM   23  H   UNK N   1       8.107 -10.719   1.368  0.00  0.00     0.209 HD
ENDBRANCH  21  22
ENDBRANCH  12  21
ENDBRANCH   7   8
ENDBRANCH   1   7
BRANCH   2  24
HETATM   24  N   UNK N   1      16.024 -13.907   0.455  0.00  0.00    -0.423 N 
HETATM   25  H   UNK N   1      15.154 -14.268   0.846  0.00  0.00     0.150 HD
HETATM   26  H   UNK N   1      16.833 -14.528   0.455  0.00  0.00     0.150 HD
ENDBRANCH   2  24
BRANCH   6  27
HETATM   27  O   UNK N   1      13.946  -9.618  -0.461  0.00  0.00    -0.390 OA
HETATM   28  H   UNK N   1      13.994  -8.654  -0.365  0.00  0.00     0.210 HD
ENDBRANCH   6  27
BRANCH   5  29
HETATM   29  O   UNK N   1      16.521  -8.481  -0.784  0.00  0.00    -0.349 OA
BRANCH  29  30
HETATM   30  C   UNK N   1      17.313  -7.549  -0.099  0.00  0.00     0.283 C 
HETATM   31  O   UNK N   1      18.573  -7.504  -0.729  0.00  0.00    -0.350 OA
HETATM   32  C   UNK N   1      19.430  -6.756   0.095  0.00  0.00     0.170 C 
HETATM   33  C   UNK N   1      19.032  -5.281  -0.001  0.00  0.00     0.150 C 
HETATM   34  C   UNK N   1      17.599  -5.143   0.512  0.00  0.00     0.064 C 
HETATM   35  C   UNK N   1      16.676  -6.154  -0.172  0.00  0.00     0.132 C 
BRANCH  32  36
HETATM   36  C   UNK N   1      20.867  -6.962  -0.360  0.00  0.00     0.145 C 
BRANCH  36  37
HETATM   37  N   UNK N   1      21.263  -8.343  -0.145  0.00  0.00    -0.428 N 
HETATM   38  H   UNK N   1      20.562  -9.069   0.006  0.00  0.00     0.150 HD
HETATM   39  H   UNK N   1      22.253  -8.590  -0.145  0.00  0.00     0.150 HD
ENDBRANCH  36  37
ENDBRANCH  32  36
BRANCH  33  40
HETATM   40  O   UNK N   1      19.879  -4.493   0.779  0.00  0.00    -0.393 OA
HETATM   41  H   UNK N   1      20.648  -4.729   1.321  0.00  0.00     0.210 HD
ENDBRANCH  33  40
BRANCH  35  42
HETATM   42  N   UNK N   1      15.385  -6.152   0.494  0.00  0.00    -0.422 N 
HETATM   43  H   UNK N   1      14.933  -5.367   0.962  0.00  0.00     0.150 HD
HETATM   44  H   UNK N   1      14.874  -7.035   0.494  0.00  0.00     0.150 HD
ENDBRANCH  35  42
ENDBRANCH  29  30
ENDBRANCH   5  29
BRANCH   4  45
HETATM   45  N   UNK N   1      18.635  -9.906   0.802  0.00  0.00    -0.423 N 
HETATM   46  H   UNK N   1      19.389 -10.345   1.328  0.00  0.00     0.150 HD
HETATM   47  H   UNK N   1      18.638  -8.886   0.802  0.00  0.00     0.150 HD
ENDBRANCH   4  45
TORSDOF 16
