MODEL 1
REMARK VINA RESULT:      -6.5      0.000      0.000
REMARK  5 active torsions:
REMARK  status: ('A' for Active; 'I' for Inactive)
REMARK    1  A    between atoms: C_3  and  N_9 
REMARK    2  A    between atoms: C_13  and  N_6 
REMARK    3  A    between atoms: N_9  and  C_15 
REMARK       I    between atoms: C_14  and  N_18 
REMARK    4  A    between atoms: C_21  and  C_23 
REMARK    5  A    between atoms: C_23  and  O_24 
ROOT
HETATM    1  C   UNK N   1      34.933  14.587  10.877  0.00  0.00     0.123 A 
HETATM    2  C   UNK N   1      35.188  14.673   9.558  0.00  0.00     0.155 A 
HETATM    3  C   UNK N   1      35.946  14.289  11.768  0.00  0.00     0.148 A 
HETATM    4  N   UNK N   1      33.631  14.841  11.110  0.00  0.00    -0.346 N 
ATOM      5  HN  UNK N   1      33.144  14.847  12.006  1.00  0.00     0.167 HD
HETATM    6  N   UNK N   1      34.066  14.988   8.906  0.00  0.00    -0.318 N 
HETATM    7  N   UNK N   1      36.424  14.470   9.038  0.00  0.00    -0.174 N 
ATOM      8  HN  UNK N   1      36.593  14.544   8.035  1.00  0.00     0.186 HD
HETATM    9  N   UNK N   1      37.199  14.077  11.255  0.00  0.00    -0.175 N 
ATOM     10  HN  UNK N   1      37.967  13.850  11.887  1.00  0.00     0.186 HD
HETATM   11  C   UNK N   1      33.114  15.086   9.875  0.00  0.00     0.186 A 
HETATM   12  C   UNK N   1      37.439  14.165   9.905  0.00  0.00     0.679 A 
HETATM   13  N   UNK N   1      38.740  13.951   9.412  0.00  0.00    -0.234 N 
HETATM   14  H   UNK N   1      38.894  13.854   8.444  0.00  0.00     0.174 HD
HETATM   15  H   UNK N   1      39.500  13.900  10.036  0.00  0.00     0.174 HD
ENDROOT
BRANCH   6  16
HETATM   16  C   UNK N   1      33.909  15.203   7.467  0.00  0.00     0.115 C 
HETATM   17  C   UNK N   1      34.665  16.458   7.013  0.00  0.00     0.040 C 
HETATM   18  C   UNK N   1      33.623  17.565   6.868  0.00  0.00     0.034 C 
HETATM   19  C   UNK N   1      32.338  16.816   6.852  0.00  0.00    -0.022 C 
HETATM   20  C   UNK N   1      32.493  15.545   7.170  0.00  0.00    -0.005 C 
BRANCH  18  21
HETATM   21  C   UNK N   1      33.677  18.478   8.086  0.00  0.00     0.172 C 
BRANCH  21  22
HETATM   22  O   UNK N   1      34.952  19.022   8.233  0.00  0.00    -0.400 OA
HETATM   23  H   UNK N   1      35.817  18.626   8.426  0.00  0.00     0.209 HD
ENDBRANCH  21  22
ENDBRANCH  18  21
ENDBRANCH   6  16
BRANCH   3  24
HETATM   24  N   UNK N   1      35.699  14.232  13.162  0.00  0.00    -0.369 N 
HETATM   25  H   UNK N   1      34.975  14.787  13.535  0.00  0.00     0.161 HD
BRANCH  24  26
HETATM   26  C   UNK N   1      36.460  13.395  14.061  0.00  0.00     0.083 A 
HETATM   27  C   UNK N   1      36.847  14.155  15.319  0.00  0.00     0.027 A 
HETATM   28  C   UNK N   1      35.668  13.214  15.342  0.00  0.00     0.027 A 
ENDBRANCH  24  26
ENDBRANCH   3  24
TORSDOF 5
ENDMDL
MODEL 2
REMARK VINA RESULT:      -6.5      5.172      9.106
REMARK  5 active torsions:
REMARK  status: ('A' for Active; 'I' for Inactive)
REMARK    1  A    between atoms: C_3  and  N_9 
REMARK    2  A    between atoms: C_13  and  N_6 
REMARK    3  A    between atoms: N_9  and  C_15 
REMARK       I    between atoms: C_14  and  N_18 
REMARK    4  A    between atoms: C_21  and  C_23 
REMARK    5  A    between atoms: C_23  and  O_24 
ROOT
HETATM    1  C   UNK N   1      29.604  17.861   5.564  0.00  0.00     0.123 A 
HETATM    2  C   UNK N   1      30.034  17.223   6.669  0.00  0.00     0.155 A 
HETATM    3  C   UNK N   1      28.472  18.652   5.608  0.00  0.00     0.148 A 
HETATM    4  N   UNK N   1      30.430  17.600   4.534  0.00  0.00    -0.346 N 
ATOM      5  HN  UNK N   1      30.362  17.939   3.574  1.00  0.00     0.167 HD
HETATM    6  N   UNK N   1      31.146  16.541   6.387  0.00  0.00    -0.318 N 
HETATM    7  N   UNK N   1      29.392  17.313   7.861  0.00  0.00    -0.174 N 
ATOM      8  HN  UNK N   1      29.739  16.823   8.685  1.00  0.00     0.186 HD
HETATM    9  N   UNK N   1      27.812  18.749   6.805  0.00  0.00    -0.175 N 
ATOM     10  HN  UNK N   1      26.970  19.321   6.869  1.00  0.00     0.186 HD
HETATM   11  C   UNK N   1      31.378  16.781   5.066  0.00  0.00     0.186 A 
HETATM   12  C   UNK N   1      28.264  18.086   7.921  0.00  0.00     0.679 A 
HETATM   13  N   UNK N   1      27.567  18.214   9.138  0.00  0.00    -0.234 N 
HETATM   14  H   UNK N   1      27.784  17.625   9.898  0.00  0.00     0.174 HD
HETATM   15  H   UNK N   1      26.862  18.894   9.231  0.00  0.00     0.174 HD
ENDROOT
BRANCH   6  16
HETATM   16  C   UNK N   1      31.948  15.734   7.308  0.00  0.00     0.115 C 
HETATM   17  C   UNK N   1      32.342  16.547   8.548  0.00  0.00     0.040 C 
HETATM   18  C   UNK N   1      33.789  16.987   8.337  0.00  0.00     0.034 C 
HETATM   19  C   UNK N   1      34.252  16.105   7.232  0.00  0.00    -0.022 C 
HETATM   20  C   UNK N   1      33.261  15.428   6.681  0.00  0.00    -0.005 C 
BRANCH  18  21
HETATM   21  C   UNK N   1      33.817  18.442   7.888  0.00  0.00     0.172 C 
BRANCH  21  22
HETATM   22  O   UNK N   1      34.979  19.070   8.334  0.00  0.00    -0.400 OA
HETATM   23  H   UNK N   1      35.203  19.523   9.163  0.00  0.00     0.209 HD
ENDBRANCH  21  22
ENDBRANCH  18  21
ENDBRANCH   6  16
BRANCH   3  24
HETATM   24  N   UNK N   1      28.030  19.359   4.462  0.00  0.00    -0.369 N 
HETATM   25  H   UNK N   1      28.463  19.171   3.597  0.00  0.00     0.161 HD
BRANCH  24  26
HETATM   26  C   UNK N   1      26.972  20.341   4.505  0.00  0.00     0.083 A 
HETATM   27  C   UNK N   1      26.375  20.561   3.124  0.00  0.00     0.027 A 
HETATM   28  C   UNK N   1      25.670  19.667   4.114  0.00  0.00     0.027 A 
ENDBRANCH  24  26
ENDBRANCH   3  24
TORSDOF 5
ENDMDL
MODEL 3
REMARK VINA RESULT:      -6.4      2.509      4.355
REMARK  5 active torsions:
REMARK  status: ('A' for Active; 'I' for Inactive)
REMARK    1  A    between atoms: C_3  and  N_9 
REMARK    2  A    between atoms: C_13  and  N_6 
REMARK    3  A    between atoms: N_9  and  C_15 
REMARK       I    between atoms: C_14  and  N_18 
REMARK    4  A    between atoms: C_21  and  C_23 
REMARK    5  A    between atoms: C_23  and  O_24 
ROOT
HETATM    1  C   UNK N   1      35.417  12.945  13.831  0.00  0.00     0.123 A 
HETATM    2  C   UNK N   1      36.046  13.969  13.224  0.00  0.00     0.155 A 
HETATM    3  C   UNK N   1      35.473  12.804  15.205  0.00  0.00     0.148 A 
HETATM    4  N   UNK N   1      34.786  12.188  12.915  0.00  0.00    -0.346 N 
ATOM      5  HN  UNK N   1      34.230  11.347  13.072  1.00  0.00     0.167 HD
HETATM    6  N   UNK N   1      35.835  13.906  11.908  0.00  0.00    -0.318 N 
HETATM    7  N   UNK N   1      36.760  14.897  13.910  0.00  0.00    -0.174 N 
ATOM      8  HN  UNK N   1      37.226  15.665  13.427  1.00  0.00     0.186 HD
HETATM    9  N   UNK N   1      36.194  13.733  15.908  0.00  0.00    -0.175 N 
ATOM     10  HN  UNK N   1      36.258  13.654  16.923  1.00  0.00     0.186 HD
HETATM   11  C   UNK N   1      35.058  12.801  11.730  0.00  0.00     0.186 A 
HETATM   12  C   UNK N   1      36.833  14.769  15.270  0.00  0.00     0.679 A 
HETATM   13  N   UNK N   1      37.558  15.712  16.024  0.00  0.00    -0.234 N 
HETATM   14  H   UNK N   1      38.147  16.360  15.573  0.00  0.00     0.174 HD
HETATM   15  H   UNK N   1      37.476  15.724  17.005  0.00  0.00     0.174 HD
ENDROOT
BRANCH   6  16
HETATM   16  C   UNK N   1      36.318  14.837  10.887  0.00  0.00     0.115 C 
HETATM   17  C   UNK N   1      35.268  15.915  10.588  0.00  0.00     0.040 C 
HETATM   18  C   UNK N   1      34.580  15.503   9.288  0.00  0.00     0.034 C 
HETATM   19  C   UNK N   1      35.504  14.481   8.729  0.00  0.00    -0.022 C 
HETATM   20  C   UNK N   1      36.442  14.126   9.588  0.00  0.00    -0.005 C 
BRANCH  18  21
HETATM   21  C   UNK N   1      33.233  14.868   9.605  0.00  0.00     0.172 C 
BRANCH  21  22
HETATM   22  O   UNK N   1      32.861  15.138  10.921  0.00  0.00    -0.400 OA
HETATM   23  H   UNK N   1      32.404  14.611  11.596  0.00  0.00     0.209 HD
ENDBRANCH  21  22
ENDBRANCH  18  21
ENDBRANCH   6  16
BRANCH   3  24
HETATM   24  N   UNK N   1      34.784  11.753  15.859  0.00  0.00    -0.369 N 
HETATM   25  H   UNK N   1      33.974  11.386  15.436  0.00  0.00     0.161 HD
BRANCH  24  26
HETATM   26  C   UNK N   1      35.219  11.194  17.119  0.00  0.00     0.083 A 
HETATM   27  C   UNK N   1      34.919   9.706  17.189  0.00  0.00     0.027 A 
HETATM   28  C   UNK N   1      36.310  10.176  16.846  0.00  0.00     0.027 A 
ENDBRANCH  24  26
ENDBRANCH   3  24
TORSDOF 5
ENDMDL
MODEL 4
REMARK VINA RESULT:      -6.3      5.464      8.004
REMARK  5 active torsions:
REMARK  status: ('A' for Active; 'I' for Inactive)
REMARK    1  A    between atoms: C_3  and  N_9 
REMARK    2  A    between atoms: C_13  and  N_6 
REMARK    3  A    between atoms: N_9  and  C_15 
REMARK       I    between atoms: C_14  and  N_18 
REMARK    4  A    between atoms: C_21  and  C_23 
REMARK    5  A    between atoms: C_23  and  O_24 
ROOT
HETATM    1  C   UNK N   1      30.182  17.338   6.231  0.00  0.00     0.123 A 
HETATM    2  C   UNK N   1      29.576  17.631   5.065  0.00  0.00     0.155 A 
HETATM    3  C   UNK N   1      31.517  16.984   6.257  0.00  0.00     0.148 A 
HETATM    4  N   UNK N   1      29.307  17.465   7.246  0.00  0.00    -0.346 N 
ATOM      5  HN  UNK N   1      29.473  17.309   8.240  1.00  0.00     0.167 HD
HETATM    6  N   UNK N   1      28.303  17.959   5.293  0.00  0.00    -0.318 N 
HETATM    7  N   UNK N   1      30.226  17.591   3.874  0.00  0.00    -0.174 N 
ATOM      8  HN  UNK N   1      29.746  17.820   3.004  1.00  0.00     0.186 HD
HETATM    9  N   UNK N   1      32.184  16.936   5.061  0.00  0.00    -0.175 N 
ATOM     10  HN  UNK N   1      33.169  16.673   5.046  1.00  0.00     0.186 HD
HETATM   11  C   UNK N   1      28.149  17.850   6.642  0.00  0.00     0.186 A 
HETATM   12  C   UNK N   1      31.547  17.234   3.880  0.00  0.00     0.679 A 
HETATM   13  N   UNK N   1      32.264  17.184   2.668  0.00  0.00    -0.234 N 
HETATM   14  H   UNK N   1      31.787  17.239   1.808  0.00  0.00     0.174 HD
HETATM   15  H   UNK N   1      33.244  17.096   2.681  0.00  0.00     0.174 HD
ENDROOT
BRANCH   6  16
HETATM   16  C   UNK N   1      27.302  18.368   4.305  0.00  0.00     0.115 C 
HETATM   17  C   UNK N   1      27.418  19.866   3.996  0.00  0.00     0.040 C 
HETATM   18  C   UNK N   1      26.310  20.560   4.787  0.00  0.00     0.034 C 
HETATM   19  C   UNK N   1      25.413  19.435   5.164  0.00  0.00    -0.022 C 
HETATM   20  C   UNK N   1      25.946  18.256   4.901  0.00  0.00    -0.005 C 
BRANCH  18  21
HETATM   21  C   UNK N   1      26.900  21.196   6.038  0.00  0.00     0.172 C 
BRANCH  21  22
HETATM   22  O   UNK N   1      26.191  20.800   7.170  0.00  0.00    -0.400 OA
HETATM   23  H   UNK N   1      26.081  21.199   8.048  0.00  0.00     0.209 HD
ENDBRANCH  21  22
ENDBRANCH  18  21
ENDBRANCH   6  16
BRANCH   3  24
HETATM   24  N   UNK N   1      32.176  16.710   7.481  0.00  0.00    -0.369 N 
HETATM   25  H   UNK N   1      32.256  15.772   7.773  0.00  0.00     0.161 HD
BRANCH  24  26
HETATM   26  C   UNK N   1      32.737  17.744   8.320  0.00  0.00     0.083 A 
HETATM   27  C   UNK N   1      33.996  17.258   9.018  0.00  0.00     0.027 A 
HETATM   28  C   UNK N   1      34.106  18.115   7.781  0.00  0.00     0.027 A 
ENDBRANCH  24  26
ENDBRANCH   3  24
TORSDOF 5
ENDMDL
MODEL 5
REMARK VINA RESULT:      -6.1     11.619     14.846
REMARK  5 active torsions:
REMARK  status: ('A' for Active; 'I' for Inactive)
REMARK    1  A    between atoms: C_3  and  N_9 
REMARK    2  A    between atoms: C_13  and  N_6 
REMARK    3  A    between atoms: N_9  and  C_15 
REMARK       I    between atoms: C_14  and  N_18 
REMARK    4  A    between atoms: C_21  and  C_23 
REMARK    5  A    between atoms: C_23  and  O_24 
ROOT
HETATM    1  C   UNK N   1      21.621  15.943   7.110  0.00  0.00     0.123 A 
HETATM    2  C   UNK N   1      21.209  15.029   8.008  0.00  0.00     0.155 A 
HETATM    3  C   UNK N   1      20.930  17.129   6.950  0.00  0.00     0.148 A 
HETATM    4  N   UNK N   1      22.731  15.505   6.487  0.00  0.00    -0.346 N 
ATOM      5  HN  UNK N   1      23.269  15.976   5.759  1.00  0.00     0.167 HD
HETATM    6  N   UNK N   1      22.039  13.983   7.994  0.00  0.00    -0.318 N 
HETATM    7  N   UNK N   1      20.113  15.212   8.786  0.00  0.00    -0.174 N 
ATOM      8  HN  UNK N   1      19.822  14.505   9.461  1.00  0.00     0.186 HD
HETATM    9  N   UNK N   1      19.819  17.325   7.727  0.00  0.00    -0.175 N 
ATOM     10  HN  UNK N   1      19.284  18.188   7.630  1.00  0.00     0.186 HD
HETATM   11  C   UNK N   1      22.972  14.289   7.050  0.00  0.00     0.186 A 
HETATM   12  C   UNK N   1      19.411  16.377   8.636  0.00  0.00     0.679 A 
HETATM   13  N   UNK N   1      18.270  16.614   9.426  0.00  0.00    -0.234 N 
HETATM   14  H   UNK N   1      17.877  15.886   9.960  0.00  0.00     0.174 HD
HETATM   15  H   UNK N   1      17.863  17.510   9.445  0.00  0.00     0.174 HD
ENDROOT
BRANCH   6  16
HETATM   16  C   UNK N   1      21.968  12.785   8.831  0.00  0.00     0.115 C 
HETATM   17  C   UNK N   1      22.707  12.999  10.159  0.00  0.00     0.040 C 
HETATM   18  C   UNK N   1      24.063  12.311  10.018  0.00  0.00     0.034 C 
HETATM   19  C   UNK N   1      23.874  11.437   8.829  0.00  0.00    -0.022 C 
HETATM   20  C   UNK N   1      22.745  11.690   8.193  0.00  0.00    -0.005 C 
BRANCH  18  21
HETATM   21  C   UNK N   1      25.135  13.353   9.731  0.00  0.00     0.172 C 
BRANCH  21  22
HETATM   22  O   UNK N   1      25.906  13.588  10.869  0.00  0.00    -0.400 OA
HETATM   23  H   UNK N   1      26.478  13.015  11.403  0.00  0.00     0.209 HD
ENDBRANCH  21  22
ENDBRANCH  18  21
ENDBRANCH   6  16
BRANCH   3  24
HETATM   24  N   UNK N   1      21.375  18.116   6.035  0.00  0.00    -0.369 N 
HETATM   25  H   UNK N   1      21.879  18.888   6.383  0.00  0.00     0.161 HD
BRANCH  24  26
HETATM   26  C   UNK N   1      21.124  18.039   4.615  0.00  0.00     0.083 A 
HETATM   27  C   UNK N   1      21.222  19.411   3.968  0.00  0.00     0.027 A 
HETATM   28  C   UNK N   1      22.383  18.453   3.877  0.00  0.00     0.027 A 
ENDBRANCH  24  26
ENDBRANCH   3  24
TORSDOF 5
ENDMDL
MODEL 6
REMARK VINA RESULT:      -6.1      4.947      8.522
REMARK  5 active torsions:
REMARK  status: ('A' for Active; 'I' for Inactive)
REMARK    1  A    between atoms: C_3  and  N_9 
REMARK    2  A    between atoms: C_13  and  N_6 
REMARK    3  A    between atoms: N_9  and  C_15 
REMARK       I    between atoms: C_14  and  N_18 
REMARK    4  A    between atoms: C_21  and  C_23 
REMARK    5  A    between atoms: C_23  and  O_24 
ROOT
HETATM    1  C   UNK N   1      29.315  17.915   6.816  0.00  0.00     0.123 A 
HETATM    2  C   UNK N   1      30.281  17.094   6.363  0.00  0.00     0.155 A 
HETATM    3  C   UNK N   1      28.325  18.368   5.965  0.00  0.00     0.148 A 
HETATM    4  N   UNK N   1      29.497  18.156   8.128  0.00  0.00    -0.346 N 
ATOM      5  HN  UNK N   1      28.929  18.739   8.743  1.00  0.00     0.167 HD
HETATM    6  N   UNK N   1      31.106  16.779   7.365  0.00  0.00    -0.318 N 
HETATM    7  N   UNK N   1      30.341  16.678   5.073  0.00  0.00    -0.174 N 
ATOM      8  HN  UNK N   1      31.082  16.054   4.755  1.00  0.00     0.186 HD
HETATM    9  N   UNK N   1      28.376  17.958   4.659  0.00  0.00    -0.175 N 
ATOM     10  HN  UNK N   1      27.663  18.280   4.004  1.00  0.00     0.186 HD
HETATM   11  C   UNK N   1      30.612  17.443   8.447  0.00  0.00     0.186 A 
HETATM   12  C   UNK N   1      29.373  17.124   4.214  0.00  0.00     0.679 A 
HETATM   13  N   UNK N   1      29.391  16.714   2.866  0.00  0.00    -0.234 N 
HETATM   14  H   UNK N   1      30.180  16.251   2.500  0.00  0.00     0.174 HD
HETATM   15  H   UNK N   1      28.614  16.890   2.289  0.00  0.00     0.174 HD
ENDROOT
BRANCH   6  16
HETATM   16  C   UNK N   1      32.271  15.895   7.309  0.00  0.00     0.115 C 
HETATM   17  C   UNK N   1      33.244  16.198   8.455  0.00  0.00     0.040 C 
HETATM   18  C   UNK N   1      34.374  17.033   7.856  0.00  0.00     0.034 C 
HETATM   19  C   UNK N   1      34.204  16.828   6.393  0.00  0.00    -0.022 C 
HETATM   20  C   UNK N   1      33.074  16.212   6.099  0.00  0.00    -0.005 C 
BRANCH  18  21
HETATM   21  C   UNK N   1      34.161  18.500   8.204  0.00  0.00     0.172 C 
BRANCH  21  22
HETATM   22  O   UNK N   1      35.377  19.118   8.492  0.00  0.00    -0.400 OA
HETATM   23  H   UNK N   1      36.203  18.789   8.880  0.00  0.00     0.209 HD
ENDBRANCH  21  22
ENDBRANCH  18  21
ENDBRANCH   6  16
BRANCH   3  24
HETATM   24  N   UNK N   1      27.281  19.202   6.438  0.00  0.00    -0.369 N 
HETATM   25  H   UNK N   1      26.415  18.790   6.663  0.00  0.00     0.161 HD
BRANCH  24  26
HETATM   26  C   UNK N   1      27.432  20.629   6.605  0.00  0.00     0.083 A 
HETATM   27  C   UNK N   1      26.351  21.384   5.849  0.00  0.00     0.027 A 
HETATM   28  C   UNK N   1      26.213  21.162   7.335  0.00  0.00     0.027 A 
ENDBRANCH  24  26
ENDBRANCH   3  24
TORSDOF 5
ENDMDL
MODEL 7
REMARK VINA RESULT:      -6.1     16.472     19.551
REMARK  5 active torsions:
REMARK  status: ('A' for Active; 'I' for Inactive)
REMARK    1  A    between atoms: C_3  and  N_9 
REMARK    2  A    between atoms: C_13  and  N_6 
REMARK    3  A    between atoms: N_9  and  C_15 
REMARK       I    between atoms: C_14  and  N_18 
REMARK    4  A    between atoms: C_21  and  C_23 
REMARK    5  A    between atoms: C_23  and  O_24 
ROOT
HETATM    1  C   UNK N   1      27.741  24.705  -4.888  0.00  0.00     0.123 A 
HETATM    2  C   UNK N   1      28.122  23.620  -5.588  0.00  0.00     0.155 A 
HETATM    3  C   UNK N   1      26.417  25.097  -4.871  0.00  0.00     0.148 A 
HETATM    4  N   UNK N   1      28.806  25.249  -4.271  0.00  0.00    -0.346 N 
ATOM      5  HN  UNK N   1      28.830  26.075  -3.673  1.00  0.00     0.167 HD
HETATM    6  N   UNK N   1      29.435  23.430  -5.438  0.00  0.00    -0.318 N 
HETATM    7  N   UNK N   1      27.249  22.870  -6.306  0.00  0.00    -0.174 N 
ATOM      8  HN  UNK N   1      27.562  22.050  -6.826  1.00  0.00     0.186 HD
HETATM    9  N   UNK N   1      25.525  24.351  -5.596  0.00  0.00    -0.175 N 
ATOM     10  HN  UNK N   1      24.540  24.618  -5.608  1.00  0.00     0.186 HD
HETATM   11  C   UNK N   1      29.845  24.443  -4.625  0.00  0.00     0.186 A 
HETATM   12  C   UNK N   1      25.934  23.249  -6.308  0.00  0.00     0.679 A 
HETATM   13  N   UNK N   1      24.990  22.498  -7.035  0.00  0.00    -0.234 N 
HETATM   14  H   UNK N   1      25.289  21.808  -7.671  0.00  0.00     0.174 HD
HETATM   15  H   UNK N   1      24.028  22.661  -6.906  0.00  0.00     0.174 HD
ENDROOT
BRANCH   6  16
HETATM   16  C   UNK N   1      30.245  22.352  -6.008  0.00  0.00     0.115 C 
HETATM   17  C   UNK N   1      30.294  21.145  -5.063  0.00  0.00     0.040 C 
HETATM   18  C   UNK N   1      31.640  21.209  -4.344  0.00  0.00     0.034 C 
HETATM   19  C   UNK N   1      32.417  22.171  -5.172  0.00  0.00    -0.022 C 
HETATM   20  C   UNK N   1      31.667  22.782  -6.069  0.00  0.00    -0.005 C 
BRANCH  18  21
HETATM   21  C   UNK N   1      31.441  21.772  -2.943  0.00  0.00     0.172 C 
BRANCH  21  22
HETATM   22  O   UNK N   1      32.439  21.313  -2.085  0.00  0.00    -0.400 OA
HETATM   23  H   UNK N   1      32.876  21.712  -1.315  0.00  0.00     0.209 HD
ENDBRANCH  21  22
ENDBRANCH  18  21
ENDBRANCH   6  16
BRANCH   3  24
HETATM   24  N   UNK N   1      25.996  26.216  -4.109  0.00  0.00    -0.369 N 
HETATM   25  H   UNK N   1      26.110  26.188  -3.131  0.00  0.00     0.161 HD
BRANCH  24  26
HETATM   26  C   UNK N   1      25.409  27.395  -4.702  0.00  0.00     0.083 A 
HETATM   27  C   UNK N   1      25.896  28.656  -4.008  0.00  0.00     0.027 A 
HETATM   28  C   UNK N   1      26.516  28.230  -5.316  0.00  0.00     0.027 A 
ENDBRANCH  24  26
ENDBRANCH   3  24
TORSDOF 5
ENDMDL
MODEL 8
REMARK VINA RESULT:      -5.9     19.536     20.775
REMARK  5 active torsions:
REMARK  status: ('A' for Active; 'I' for Inactive)
REMARK    1  A    between atoms: C_3  and  N_9 
REMARK    2  A    between atoms: C_13  and  N_6 
REMARK    3  A    between atoms: N_9  and  C_15 
REMARK       I    between atoms: C_14  and  N_18 
REMARK    4  A    between atoms: C_21  and  C_23 
REMARK    5  A    between atoms: C_23  and  O_24 
ROOT
HETATM    1  C   UNK N   1      27.694  23.128  -6.394  0.00  0.00     0.123 A 
HETATM    2  C   UNK N   1      26.530  23.681  -6.007  0.00  0.00     0.155 A 
HETATM    3  C   UNK N   1      27.705  22.063  -7.274  0.00  0.00     0.148 A 
HETATM    4  N   UNK N   1      28.723  23.775  -5.815  0.00  0.00    -0.346 N 
ATOM      5  HN  UNK N   1      29.720  23.584  -5.915  1.00  0.00     0.167 HD
HETATM    6  N   UNK N   1      26.772  24.698  -5.177  0.00  0.00    -0.318 N 
HETATM    7  N   UNK N   1      25.327  23.231  -6.443  0.00  0.00    -0.174 N 
ATOM      8  HN  UNK N   1      24.458  23.669  -6.137  1.00  0.00     0.186 HD
HETATM    9  N   UNK N   1      26.497  21.595  -7.719  0.00  0.00    -0.175 N 
ATOM     10  HN  UNK N   1      26.471  20.807  -8.365  1.00  0.00     0.186 HD
HETATM   11  C   UNK N   1      28.129  24.743  -5.065  0.00  0.00     0.186 A 
HETATM   12  C   UNK N   1      25.318  22.171  -7.309  0.00  0.00     0.679 A 
HETATM   13  N   UNK N   1      24.093  21.672  -7.792  0.00  0.00    -0.234 N 
HETATM   14  H   UNK N   1      23.244  21.966  -7.388  0.00  0.00     0.174 HD
HETATM   15  H   UNK N   1      24.084  21.029  -8.537  0.00  0.00     0.174 HD
ENDROOT
BRANCH   6  16
HETATM   16  C   UNK N   1      25.790  25.581  -4.547  0.00  0.00     0.115 C 
HETATM   17  C   UNK N   1      25.287  26.638  -5.539  0.00  0.00     0.040 C 
HETATM   18  C   UNK N   1      26.034  27.930  -5.214  0.00  0.00     0.034 C 
HETATM   19  C   UNK N   1      26.595  27.663  -3.862  0.00  0.00    -0.022 C 
HETATM   20  C   UNK N   1      26.459  26.400  -3.502  0.00  0.00    -0.005 C 
BRANCH  18  21
HETATM   21  C   UNK N   1      27.164  28.128  -6.215  0.00  0.00     0.172 C 
BRANCH  21  22
HETATM   22  O   UNK N   1      26.970  27.327  -7.339  0.00  0.00    -0.400 OA
HETATM   23  H   UNK N   1      26.397  27.416  -8.118  0.00  0.00     0.209 HD
ENDBRANCH  21  22
ENDBRANCH  18  21
ENDBRANCH   6  16
BRANCH   3  24
HETATM   24  N   UNK N   1      28.926  21.496  -7.718  0.00  0.00    -0.369 N 
HETATM   25  H   UNK N   1      29.771  21.911  -7.429  0.00  0.00     0.161 HD
BRANCH  24  26
HETATM   26  C   UNK N   1      28.985  20.335  -8.577  0.00  0.00     0.083 A 
HETATM   27  C   UNK N   1      30.334  19.643  -8.467  0.00  0.00     0.027 A 
HETATM   28  C   UNK N   1      29.147  19.100  -7.711  0.00  0.00     0.027 A 
ENDBRANCH  24  26
ENDBRANCH   3  24
TORSDOF 5
ENDMDL
MODEL 9
REMARK VINA RESULT:      -5.9      1.977      2.152
REMARK  5 active torsions:
REMARK  status: ('A' for Active; 'I' for Inactive)
REMARK    1  A    between atoms: C_3  and  N_9 
REMARK    2  A    between atoms: C_13  and  N_6 
REMARK    3  A    between atoms: N_9  and  C_15 
REMARK       I    between atoms: C_14  and  N_18 
REMARK    4  A    between atoms: C_21  and  C_23 
REMARK    5  A    between atoms: C_23  and  O_24 
ROOT
HETATM    1  C   UNK N   1      34.351  13.552   9.906  0.00  0.00     0.123 A 
HETATM    2  C   UNK N   1      34.943  14.266   8.930  0.00  0.00     0.155 A 
HETATM    3  C   UNK N   1      35.076  13.130  11.003  0.00  0.00     0.148 A 
HETATM    4  N   UNK N   1      33.048  13.376   9.617  0.00  0.00    -0.346 N 
ATOM      5  HN  UNK N   1      32.346  12.877  10.164  1.00  0.00     0.167 HD
HETATM    6  N   UNK N   1      34.045  14.573   7.992  0.00  0.00    -0.318 N 
HETATM    7  N   UNK N   1      36.258  14.598   8.965  0.00  0.00    -0.174 N 
ATOM      8  HN  UNK N   1      36.684  15.142   8.214  1.00  0.00     0.186 HD
HETATM    9  N   UNK N   1      36.406  13.455  11.048  0.00  0.00    -0.175 N 
ATOM     10  HN  UNK N   1      36.969  13.153  11.843  1.00  0.00     0.186 HD
HETATM   11  C   UNK N   1      32.880  14.016   8.427  0.00  0.00     0.186 A 
HETATM   12  C   UNK N   1      36.994  14.181  10.040  0.00  0.00     0.679 A 
HETATM   13  N   UNK N   1      38.362  14.507  10.122  0.00  0.00    -0.234 N 
HETATM   14  H   UNK N   1      38.829  14.883   9.341  0.00  0.00     0.174 HD
HETATM   15  H   UNK N   1      38.853  14.359  10.962  0.00  0.00     0.174 HD
ENDROOT
BRANCH   6  16
HETATM   16  C   UNK N   1      34.265  15.358   6.777  0.00  0.00     0.115 C 
HETATM   17  C   UNK N   1      34.319  16.858   7.095  0.00  0.00     0.040 C 
HETATM   18  C   UNK N   1      32.955  17.432   6.715  0.00  0.00     0.034 C 
HETATM   19  C   UNK N   1      32.366  16.363   5.864  0.00  0.00    -0.022 C 
HETATM   20  C   UNK N   1      33.074  15.249   5.895  0.00  0.00    -0.005 C 
BRANCH  18  21
HETATM   21  C   UNK N   1      32.114  17.618   7.971  0.00  0.00     0.172 C 
BRANCH  21  22
HETATM   22  O   UNK N   1      32.908  17.512   9.112  0.00  0.00    -0.400 OA
HETATM   23  H   UNK N   1      33.491  18.140   9.567  0.00  0.00     0.209 HD
ENDBRANCH  21  22
ENDBRANCH  18  21
ENDBRANCH   6  16
BRANCH   3  24
HETATM   24  N   UNK N   1      34.455  12.410  12.055  0.00  0.00    -0.369 N 
HETATM   25  H   UNK N   1      33.697  12.826  12.527  0.00  0.00     0.161 HD
BRANCH  24  26
HETATM   26  C   UNK N   1      34.884  11.093  12.465  0.00  0.00     0.083 A 
HETATM   27  C   UNK N   1      33.947  10.514  13.511  0.00  0.00     0.027 A 
HETATM   28  C   UNK N   1      33.816  10.091  12.069  0.00  0.00     0.027 A 
ENDBRANCH  24  26
ENDBRANCH   3  24
TORSDOF 5
ENDMDL
