REMARK  5 active torsions:
REMARK  status: ('A' for Active; 'I' for Inactive)
REMARK    1  A    between atoms: C_1  and  N_9 
REMARK    2  A    between atoms: C_4  and  C_7 
REMARK    3  A    between atoms: C_5  and  O_6 
REMARK    4  A    between atoms: C_7  and  O_8 
REMARK    5  A    between atoms: C_14  and  O_21 
ROOT
HETATM    1  N   UNK N   1      15.475  -9.316  -0.261  0.00  0.00    -0.300 N 
HETATM    2  N   UNK N   1      16.568 -11.478   0.124  0.00  0.00    -0.337 N 
ATOM      3  HN  UNK N   1      15.649 -11.915   0.173  1.00  0.00     0.168 HD
HETATM    4  C   UNK N   1      16.570 -10.055   0.028  0.00  0.00     0.137 A 
HETATM    5  C   UNK N   1      17.640  -9.200   0.161  0.00  0.00     0.085 A 
HETATM    6  C   UNK N   1      19.046  -9.574   0.461  0.00  0.00     0.189 C 
HETATM    7  C   UNK N   1      17.579 -12.291   0.155  0.00  0.00     0.177 C 
HETATM    8  C   UNK N   1      19.446 -10.666  -0.492  0.00  0.00     0.158 C 
HETATM    9  N   UNK N   1      18.951 -11.928  -0.003  0.00  0.00    -0.383 N 
HETATM   10  N   UNK N   1      17.221  -7.938  -0.055  0.00  0.00    -0.350 N 
ATOM     11  HN  UNK N   1      17.784  -7.087  -0.029  1.00  0.00     0.166 HD
HETATM   12  C   UNK N   1      15.898  -8.035  -0.314  0.00  0.00     0.187 A 
HETATM   13  H   UNK N   1      19.623 -12.604   0.244  0.00  0.00     0.160 HD
ENDROOT
BRANCH   1  14
HETATM   14  C   UNK N   1      14.093  -9.722  -0.549  0.00  0.00     0.233 C 
HETATM   15  C   UNK N   1      13.790 -11.175  -0.267  0.00  0.00     0.088 C 
HETATM   16  C   UNK N   1      12.303 -11.111  -0.279  0.00  0.00     0.153 C 
HETATM   17  C   UNK N   1      12.034  -9.767   0.358  0.00  0.00     0.176 C 
HETATM   18  O   UNK N   1      13.171  -8.949   0.183  0.00  0.00    -0.356 OA
BRANCH  16  19
HETATM   19  O   UNK N   1      11.745 -12.139   0.481  0.00  0.00    -0.393 OA
HETATM   20  H   UNK N   1      10.932 -12.160   1.009  0.00  0.00     0.210 HD
ENDBRANCH  16  19
BRANCH  17  21
HETATM   21  C   UNK N   1      10.812  -9.145  -0.302  0.00  0.00     0.198 C 
BRANCH  21  22
HETATM   22  O   UNK N   1      10.528  -7.909   0.277  0.00  0.00    -0.398 OA
HETATM   23  H   UNK N   1      11.174  -7.308   0.680  0.00  0.00     0.209 HD
ENDBRANCH  21  22
ENDBRANCH  17  21
ENDBRANCH   1  14
BRANCH   6  24
HETATM   24  O   UNK N   1      19.886  -8.471   0.295  0.00  0.00    -0.388 OA
HETATM   25  H   UNK N   1      20.842  -8.594   0.179  0.00  0.00     0.210 HD
ENDBRANCH   6  24
TORSDOF 5
