REMARK  7 active torsions:
REMARK  status: ('A' for Active; 'I' for Inactive)
REMARK    1  A    between atoms: C_3  and  C_17 
REMARK    2  A    between atoms: N_6  and  C_8 
REMARK    3  A    between atoms: C_7  and  C_24 
REMARK    4  A    between atoms: C_11  and  C_14 
REMARK    5  A    between atoms: C_14  and  O_16 
REMARK    6  A    between atoms: C_22  and  O_23 
REMARK    7  A    between atoms: C_29  and  O_30 
ROOT
HETATM    1  N   UNK N   1       4.197  -7.989  -0.034  0.00  0.00    -0.325 N 
ATOM      2  HN  UNK N   1       3.330  -7.452  -0.019  1.00  0.00     0.169 HD
HETATM    3  C   UNK N   1       4.335  -9.321  -0.023  0.00  0.00     0.135 A 
HETATM    4  N   UNK N   1       5.633  -9.679  -0.055  0.00  0.00    -0.276 N 
ATOM      5  HN  UNK N   1       5.998 -10.632  -0.065  1.00  0.00     0.189 HD
HETATM    6  N   UNK N   1       6.345  -8.563  -0.071  0.00  0.00    -0.237 N 
HETATM    7  C   UNK N   1       5.455  -7.514  -0.067  0.00  0.00     0.142 A 
ENDROOT
BRANCH   6   8
HETATM    8  C   UNK N   1       7.794  -8.613  -0.043  0.00  0.00     0.058 A 
HETATM    9  C   UNK N   1       8.462  -9.813  -0.349  0.00  0.00     0.032 A 
HETATM   10  C   UNK N   1       9.862  -9.879  -0.310  0.00  0.00     0.020 A 
HETATM   11  C   UNK N   1      10.610  -8.750   0.058  0.00  0.00     0.037 A 
HETATM   12  C   UNK N   1       9.944  -7.572   0.398  0.00  0.00     0.020 A 
HETATM   13  C   UNK N   1       8.556  -7.515   0.353  0.00  0.00     0.032 A 
BRANCH  11  14
HETATM   14  C   UNK N   1      12.083  -8.787   0.083  0.00  0.00     0.176 C 
HETATM   15  O   UNK N   1      12.718  -7.788   0.388  0.00  0.00    -0.646 OA
BRANCH  14  16
HETATM   16  O   UNK N   1      12.741  -9.917  -0.239  0.00  0.00    -0.773 OA
HETATM   17  H   UNK N   1      12.289 -10.706  -0.464  0.00  0.00     0.167 HD
ENDBRANCH  14  16
ENDBRANCH  11  14
ENDBRANCH   6   8
BRANCH   7  18
HETATM   18  C   UNK N   1       5.695  -6.028  -0.130  0.00  0.00     0.043 A 
HETATM   19  C   UNK N   1       6.957  -5.488  -0.401  0.00  0.00     0.018 A 
HETATM   20  C   UNK N   1       7.170  -4.111  -0.457  0.00  0.00     0.001 A 
HETATM   21  C   UNK N   1       6.108  -3.235  -0.255  0.00  0.00     0.003 A 
HETATM   22  C   UNK N   1       4.833  -3.740  -0.010  0.00  0.00     0.037 A 
HETATM   23  C   UNK N   1       4.615  -5.119   0.050  0.00  0.00     0.079 A 
BRANCH  23  24
HETATM   24  O   UNK N   1       3.366  -5.555   0.290  0.00  0.00    -0.360 OA
HETATM   25  H   UNK N   1       2.667  -4.954   0.457  0.00  0.00     0.217 HD
ENDBRANCH  23  24
ENDBRANCH   7  18
BRANCH   3  26
HETATM   26  C   UNK N   1       3.181 -10.238   0.034  0.00  0.00     0.042 A 
HETATM   27  C   UNK N   1       1.893  -9.678   0.023  0.00  0.00     0.018 A 
HETATM   28  C   UNK N   1       0.762 -10.491   0.072  0.00  0.00     0.001 A 
HETATM   29  C   UNK N   1       0.905 -11.877   0.135  0.00  0.00     0.003 A 
HETATM   30  C   UNK N   1       2.180 -12.449   0.153  0.00  0.00     0.037 A 
HETATM   31  C   UNK N   1       3.321 -11.639   0.104  0.00  0.00     0.079 A 
BRANCH  31  32
HETATM   32  O   UNK N   1       4.535 -12.214   0.130  0.00  0.00    -0.360 OA
HETATM   33  H   UNK N   1       4.611 -13.148   0.147  0.00  0.00     0.217 HD
ENDBRANCH  31  32
ENDBRANCH   3  26
TORSDOF 7
