REMARK  5 active torsions:
REMARK  status: ('A' for Active; 'I' for Inactive)
REMARK    1  A    between atoms: C_3  and  N_9 
REMARK    2  A    between atoms: C_13  and  N_6 
REMARK    3  A    between atoms: N_9  and  C_15 
REMARK       I    between atoms: C_14  and  N_18 
REMARK    4  A    between atoms: C_21  and  C_23 
REMARK    5  A    between atoms: C_23  and  O_24 
ROOT
HETATM    1  C   UNK N   1      14.153  -8.444   0.110  0.00  0.00     0.123 A 
HETATM    2  C   UNK N   1      14.078  -9.783  -0.008  0.00  0.00     0.155 A 
HETATM    3  C   UNK N   1      15.368  -7.828   0.340  0.00  0.00     0.148 A 
HETATM    4  N   UNK N   1      12.930  -7.902  -0.042  0.00  0.00    -0.346 N 
ATOM      5  HN  UNK N   1      12.672  -6.916  -0.003  1.00  0.00     0.167 HD
HETATM    6  N   UNK N   1      12.814 -10.141  -0.244  0.00  0.00    -0.318 N 
HETATM    7  N   UNK N   1      15.166 -10.587   0.096  0.00  0.00    -0.174 N 
ATOM      8  HN  UNK N   1      15.084 -11.599   0.000  1.00  0.00     0.186 HD
HETATM    9  N   UNK N   1      16.474  -8.629   0.451  0.00  0.00    -0.175 N 
ATOM     10  HN  UNK N   1      17.385  -8.205   0.626  1.00  0.00     0.186 HD
HETATM   11  C   UNK N   1      12.116  -8.971  -0.260  0.00  0.00     0.186 A 
HETATM   12  C   UNK N   1      16.377  -9.995   0.332  0.00  0.00     0.679 A 
HETATM   13  N   UNK N   1      17.535 -10.789   0.442  0.00  0.00    -0.234 N 
HETATM   14  H   UNK N   1      17.459 -11.768   0.518  0.00  0.00     0.174 HD
HETATM   15  H   UNK N   1      18.423 -10.365   0.442  0.00  0.00     0.174 HD
ENDROOT
BRANCH   6  16
HETATM   16  C   UNK N   1      12.302 -11.495  -0.460  0.00  0.00     0.115 C 
HETATM   17  C   UNK N   1      11.019 -11.468  -1.301  0.00  0.00     0.040 C 
HETATM   18  C   UNK N   1       9.856 -11.635  -0.325  0.00  0.00     0.034 C 
HETATM   19  C   UNK N   1      10.522 -12.132   0.909  0.00  0.00    -0.022 C 
HETATM   20  C   UNK N   1      11.838 -12.060   0.834  0.00  0.00    -0.005 C 
BRANCH  18  21
HETATM   21  C   UNK N   1       9.216 -10.279  -0.060  0.00  0.00     0.172 C 
BRANCH  21  22
HETATM   22  O   UNK N   1       8.103 -10.416   0.768  0.00  0.00    -0.400 OA
HETATM   23  H   UNK N   1       7.633  -9.792   1.344  0.00  0.00     0.209 HD
ENDBRANCH  21  22
ENDBRANCH  18  21
ENDBRANCH   6  16
BRANCH   3  24
HETATM   24  N   UNK N   1      15.466  -6.417   0.429  0.00  0.00    -0.369 N 
HETATM   25  H   UNK N   1      14.648  -5.880   0.314  0.00  0.00     0.161 HD
BRANCH  24  26
HETATM   26  C   UNK N   1      16.712  -5.731   0.682  0.00  0.00     0.083 A 
HETATM   27  C   UNK N   1      17.742  -6.057  -0.387  0.00  0.00     0.027 A 
HETATM   28  C   UNK N   1      16.971  -4.762  -0.456  0.00  0.00     0.027 A 
ENDBRANCH  24  26
ENDBRANCH   3  24
TORSDOF 5
