MODEL 1
REMARK VINA RESULT:      -6.7      0.000      0.000
REMARK  21 active torsions:
REMARK  status: ('A' for Active; 'I' for Inactive)
REMARK    1  A    between atoms: C_1  and  O_9 
REMARK    2  A    between atoms: C_2  and  C_8 
REMARK    3  A    between atoms: C_5  and  C_11 
REMARK    4  A    between atoms: C_6  and  O_10 
REMARK    5  A    between atoms: C_7  and  C_8 
REMARK    6  A    between atoms: C_11  and  C_12 
REMARK    7  A    between atoms: C_13  and  C_14 
REMARK    8  A    between atoms: C_14  and  O_15 
REMARK    9  A    between atoms: O_15  and  C_16 
REMARK   10  A    between atoms: C_16  and  C_17 
REMARK   11  A    between atoms: C_17  and  C_18 
REMARK   12  A    between atoms: C_18  and  C_19 
REMARK   13  A    between atoms: C_19  and  C_20 
REMARK   14  A    between atoms: C_20  and  C_21 
REMARK   15  A    between atoms: C_21  and  C_22 
REMARK   16  A    between atoms: C_22  and  C_23 
REMARK   17  A    between atoms: C_23  and  C_24 
REMARK   18  A    between atoms: C_24  and  O_25 
REMARK   19  A    between atoms: C_29  and  C_30 
REMARK   20  A    between atoms: C_30  and  C_31 
REMARK   21  A    between atoms: C_31  and  O_34 
ROOT
HETATM    1  C   UNK N   1      20.179  16.640   7.815  0.00  0.00     0.155 C 
HETATM    2  C   UNK N   1      20.206  15.110   8.041  0.00  0.00     0.043 C 
HETATM    3  C   UNK N   1      20.963  14.427   6.904  0.00  0.00     0.175 C 
HETATM    4  O   UNK N   1      22.309  14.847   6.918  0.00  0.00    -0.382 OA
HETATM    5  C   UNK N   1      22.435  16.224   6.573  0.00  0.00     0.156 C 
HETATM    6  C   UNK N   1      21.161  17.091   6.727  0.00  0.00     0.176 C 
ENDROOT
BRANCH   5   7
HETATM    7  C   UNK N   1      23.018  16.365   5.162  0.00  0.00     0.068 C 
BRANCH   7   8
HETATM    8  C   UNK N   1      24.488  16.683   5.184  0.00  0.00    -0.075 C 
HETATM    9  C   UNK N   1      25.325  15.838   5.814  0.00  0.00     0.084 C 
HETATM   10  C   UNK N   1      24.928  17.998   4.630  0.00  0.00     0.043 C 
BRANCH   9  11
HETATM   11  C   UNK N   1      26.793  15.931   5.996  0.00  0.00     0.283 C 
HETATM   12  O   UNK N   1      27.205  16.304   7.083  0.00  0.00    -0.260 OA
BRANCH  11  13
HETATM   13  O   UNK N   1      27.699  15.554   5.063  0.00  0.00    -0.318 OA
BRANCH  13  14
HETATM   14  C   UNK N   1      28.511  14.447   5.143  0.00  0.00     0.179 C 
BRANCH  14  15
HETATM   15  C   UNK N   1      29.975  14.863   5.204  0.00  0.00     0.027 C 
BRANCH  15  16
HETATM   16  C   UNK N   1      30.181  16.337   4.860  0.00  0.00     0.002 C 
BRANCH  16  17
HETATM   17  C   UNK N   1      30.656  17.109   6.089  0.00  0.00     0.000 C 
BRANCH  17  18
HETATM   18  C   UNK N   1      31.422  16.249   7.090  0.00  0.00     0.000 C 
BRANCH  18  19
HETATM   19  C   UNK N   1      31.196  16.666   8.539  0.00  0.00     0.001 C 
BRANCH  19  20
HETATM   20  C   UNK N   1      30.964  18.171   8.621  0.00  0.00     0.010 C 
BRANCH  20  21
HETATM   21  C   UNK N   1      29.817  18.535   9.558  0.00  0.00     0.110 C 
BRANCH  21  22
HETATM   22  C   UNK N   1      28.506  18.662   8.845  0.00  0.00     0.139 C 
HETATM   23  O   UNK N   1      28.441  19.230   7.767  0.00  0.00    -0.650 OA
BRANCH  22  24
HETATM   24  O   UNK N   1      27.396  18.141   9.397  0.00  0.00    -0.776 OA
HETATM   25  H   UNK N   1      26.523  18.292   9.703  0.00  0.00     0.167 HD
ENDBRANCH  22  24
ENDBRANCH  21  22
ENDBRANCH  20  21
ENDBRANCH  19  20
ENDBRANCH  18  19
ENDBRANCH  17  18
ENDBRANCH  16  17
ENDBRANCH  15  16
ENDBRANCH  14  15
ENDBRANCH  13  14
ENDBRANCH  11  13
ENDBRANCH   9  11
ENDBRANCH   7   8
ENDBRANCH   5   7
BRANCH   6  26
HETATM   26  O   UNK N   1      21.457  18.454   6.793  0.00  0.00    -0.390 OA
HETATM   27  H   UNK N   1      20.750  19.118   6.758  0.00  0.00     0.210 HD
ENDBRANCH   6  26
BRANCH   1  28
HETATM   28  O   UNK N   1      20.293  17.377   8.997  0.00  0.00    -0.392 OA
HETATM   29  H   UNK N   1      19.803  18.207   9.109  0.00  0.00     0.210 HD
ENDBRANCH   1  28
BRANCH   2  30
HETATM   30  C   UNK N   1      20.744  14.648   9.404  0.00  0.00     0.044 C 
BRANCH  30  31
HETATM   31  C   UNK N   1      21.143  13.178   9.449  0.00  0.00     0.152 A 
HETATM   32  O   UNK N   1      20.850  12.651  10.720  0.00  0.00    -0.375 OA
HETATM   33  C   UNK N   1      22.178  13.052  10.499  0.00  0.00     0.157 A 
BRANCH  33  34
HETATM   34  C   UNK N   1      23.054  11.817  10.333  0.00  0.00     0.041 C 
HETATM   35  C   UNK N   1      23.896  11.966   9.071  0.00  0.00     0.015 C 
BRANCH  34  36
HETATM   36  C   UNK N   1      23.965  11.702  11.557  0.00  0.00     0.120 C 
HETATM   37  C   UNK N   1      23.211  11.963  12.848  0.00  0.00     0.040 C 
BRANCH  36  38
HETATM   38  O   UNK N   1      25.021  12.611  11.461  0.00  0.00    -0.396 OA
HETATM   39  H   UNK N   1      25.071  13.396  12.027  0.00  0.00     0.210 HD
ENDBRANCH  36  38
ENDBRANCH  34  36
ENDBRANCH  33  34
ENDBRANCH  30  31
ENDBRANCH   2  30
TORSDOF 21
ENDMDL
MODEL 2
REMARK VINA RESULT:      -6.7      2.225      3.221
REMARK  21 active torsions:
REMARK  status: ('A' for Active; 'I' for Inactive)
REMARK    1  A    between atoms: C_1  and  O_9 
REMARK    2  A    between atoms: C_2  and  C_8 
REMARK    3  A    between atoms: C_5  and  C_11 
REMARK    4  A    between atoms: C_6  and  O_10 
REMARK    5  A    between atoms: C_7  and  C_8 
REMARK    6  A    between atoms: C_11  and  C_12 
REMARK    7  A    between atoms: C_13  and  C_14 
REMARK    8  A    between atoms: C_14  and  O_15 
REMARK    9  A    between atoms: O_15  and  C_16 
REMARK   10  A    between atoms: C_16  and  C_17 
REMARK   11  A    between atoms: C_17  and  C_18 
REMARK   12  A    between atoms: C_18  and  C_19 
REMARK   13  A    between atoms: C_19  and  C_20 
REMARK   14  A    between atoms: C_20  and  C_21 
REMARK   15  A    between atoms: C_21  and  C_22 
REMARK   16  A    between atoms: C_22  and  C_23 
REMARK   17  A    between atoms: C_23  and  C_24 
REMARK   18  A    between atoms: C_24  and  O_25 
REMARK   19  A    between atoms: C_29  and  C_30 
REMARK   20  A    between atoms: C_30  and  C_31 
REMARK   21  A    between atoms: C_31  and  O_34 
ROOT
HETATM    1  C   UNK N   1      20.283  16.709   7.563  0.00  0.00     0.155 C 
HETATM    2  C   UNK N   1      20.471  15.188   7.773  0.00  0.00     0.043 C 
HETATM    3  C   UNK N   1      21.309  14.603   6.638  0.00  0.00     0.175 C 
HETATM    4  O   UNK N   1      22.603  15.164   6.675  0.00  0.00    -0.382 OA
HETATM    5  C   UNK N   1      22.585  16.550   6.347  0.00  0.00     0.156 C 
HETATM    6  C   UNK N   1      21.225  17.275   6.493  0.00  0.00     0.176 C 
ENDROOT
BRANCH   5   7
HETATM    7  C   UNK N   1      23.167  16.769   4.945  0.00  0.00     0.068 C 
BRANCH   7   8
HETATM    8  C   UNK N   1      24.496  17.472   4.985  0.00  0.00    -0.075 C 
HETATM    9  C   UNK N   1      24.567  18.748   4.561  0.00  0.00     0.084 C 
HETATM   10  C   UNK N   1      25.701  16.672   5.357  0.00  0.00     0.043 C 
BRANCH   9  11
HETATM   11  C   UNK N   1      25.744  19.646   4.478  0.00  0.00     0.283 C 
HETATM   12  O   UNK N   1      26.379  19.651   3.435  0.00  0.00    -0.260 OA
BRANCH  11  13
HETATM   13  O   UNK N   1      26.106  20.514   5.452  0.00  0.00    -0.318 OA
BRANCH  13  14
HETATM   14  C   UNK N   1      27.385  20.694   5.924  0.00  0.00     0.179 C 
BRANCH  14  15
HETATM   15  C   UNK N   1      27.894  19.420   6.584  0.00  0.00     0.027 C 
BRANCH  15  16
HETATM   16  C   UNK N   1      27.469  19.305   8.046  0.00  0.00     0.002 C 
BRANCH  16  17
HETATM   17  C   UNK N   1      28.355  18.302   8.781  0.00  0.00     0.000 C 
BRANCH  17  18
HETATM   18  C   UNK N   1      29.844  18.481   8.496  0.00  0.00     0.000 C 
BRANCH  18  19
HETATM   19  C   UNK N   1      30.536  17.189   8.076  0.00  0.00     0.001 C 
BRANCH  19  20
HETATM   20  C   UNK N   1      31.863  17.505   7.394  0.00  0.00     0.010 C 
BRANCH  20  21
HETATM   21  C   UNK N   1      33.046  17.426   8.354  0.00  0.00     0.110 C 
BRANCH  21  22
HETATM   22  C   UNK N   1      34.354  17.717   7.685  0.00  0.00     0.139 C 
HETATM   23  O   UNK N   1      34.898  18.800   7.836  0.00  0.00    -0.650 OA
BRANCH  22  24
HETATM   24  O   UNK N   1      34.933  16.776   6.918  0.00  0.00    -0.776 OA
HETATM   25  H   UNK N   1      35.480  16.016   6.882  0.00  0.00     0.167 HD
ENDBRANCH  22  24
ENDBRANCH  21  22
ENDBRANCH  20  21
ENDBRANCH  19  20
ENDBRANCH  18  19
ENDBRANCH  17  18
ENDBRANCH  16  17
ENDBRANCH  15  16
ENDBRANCH  14  15
ENDBRANCH  13  14
ENDBRANCH  11  13
ENDBRANCH   9  11
ENDBRANCH   7   8
ENDBRANCH   5   7
BRANCH   6  26
HETATM   26  O   UNK N   1      21.372  18.661   6.578  0.00  0.00    -0.390 OA
HETATM   27  H   UNK N   1      20.632  19.223   6.858  0.00  0.00     0.210 HD
ENDBRANCH   6  26
BRANCH   1  28
HETATM   28  O   UNK N   1      20.303  17.439   8.754  0.00  0.00    -0.392 OA
HETATM   29  H   UNK N   1      19.699  17.216   9.479  0.00  0.00     0.210 HD
ENDBRANCH   1  28
BRANCH   2  30
HETATM   30  C   UNK N   1      21.038  14.769   9.138  0.00  0.00     0.044 C 
BRANCH  30  31
HETATM   31  C   UNK N   1      21.307  13.275   9.267  0.00  0.00     0.152 A 
HETATM   32  O   UNK N   1      20.902  12.835  10.541  0.00  0.00    -0.375 OA
HETATM   33  C   UNK N   1      22.269  13.112  10.380  0.00  0.00     0.157 A 
BRANCH  33  34
HETATM   34  C   UNK N   1      23.045  11.803  10.317  0.00  0.00     0.041 C 
HETATM   35  C   UNK N   1      23.933  11.805   9.078  0.00  0.00     0.015 C 
BRANCH  34  36
HETATM   36  C   UNK N   1      23.906  11.689  11.576  0.00  0.00     0.120 C 
HETATM   37  C   UNK N   1      23.092  11.909  12.839  0.00  0.00     0.040 C 
BRANCH  36  38
HETATM   38  O   UNK N   1      24.941  12.625  11.539  0.00  0.00    -0.396 OA
HETATM   39  H   UNK N   1      25.412  12.832  10.718  0.00  0.00     0.210 HD
ENDBRANCH  36  38
ENDBRANCH  34  36
ENDBRANCH  33  34
ENDBRANCH  30  31
ENDBRANCH   2  30
TORSDOF 21
ENDMDL
MODEL 3
REMARK VINA RESULT:      -6.7      7.228     12.305
REMARK  21 active torsions:
REMARK  status: ('A' for Active; 'I' for Inactive)
REMARK    1  A    between atoms: C_1  and  O_9 
REMARK    2  A    between atoms: C_2  and  C_8 
REMARK    3  A    between atoms: C_5  and  C_11 
REMARK    4  A    between atoms: C_6  and  O_10 
REMARK    5  A    between atoms: C_7  and  C_8 
REMARK    6  A    between atoms: C_11  and  C_12 
REMARK    7  A    between atoms: C_13  and  C_14 
REMARK    8  A    between atoms: C_14  and  O_15 
REMARK    9  A    between atoms: O_15  and  C_16 
REMARK   10  A    between atoms: C_16  and  C_17 
REMARK   11  A    between atoms: C_17  and  C_18 
REMARK   12  A    between atoms: C_18  and  C_19 
REMARK   13  A    between atoms: C_19  and  C_20 
REMARK   14  A    between atoms: C_20  and  C_21 
REMARK   15  A    between atoms: C_21  and  C_22 
REMARK   16  A    between atoms: C_22  and  C_23 
REMARK   17  A    between atoms: C_23  and  C_24 
REMARK   18  A    between atoms: C_24  and  O_25 
REMARK   19  A    between atoms: C_29  and  C_30 
REMARK   20  A    between atoms: C_30  and  C_31 
REMARK   21  A    between atoms: C_31  and  O_34 
ROOT
HETATM    1  C   UNK N   1      35.309  16.110   9.035  0.00  0.00     0.155 C 
HETATM    2  C   UNK N   1      34.253  15.249   8.304  0.00  0.00     0.043 C 
HETATM    3  C   UNK N   1      34.582  13.766   8.468  0.00  0.00     0.175 C 
HETATM    4  O   UNK N   1      34.495  13.415   9.831  0.00  0.00    -0.382 OA
HETATM    5  C   UNK N   1      35.521  14.034  10.601  0.00  0.00     0.156 C 
HETATM    6  C   UNK N   1      36.193  15.282   9.976  0.00  0.00     0.176 C 
ENDROOT
BRANCH   5   7
HETATM    7  C   UNK N   1      36.576  12.997  11.006  0.00  0.00     0.068 C 
BRANCH   7   8
HETATM    8  C   UNK N   1      36.718  12.884  12.499  0.00  0.00    -0.075 C 
HETATM    9  C   UNK N   1      36.141  13.820  13.277  0.00  0.00     0.084 C 
HETATM   10  C   UNK N   1      37.614  11.819  13.039  0.00  0.00     0.043 C 
BRANCH   9  11
HETATM   11  C   UNK N   1      36.151  13.948  14.754  0.00  0.00     0.283 C 
HETATM   12  O   UNK N   1      36.994  14.676  15.253  0.00  0.00    -0.260 OA
BRANCH  11  13
HETATM   13  O   UNK N   1      35.235  13.376  15.571  0.00  0.00    -0.318 OA
BRANCH  13  14
HETATM   14  C   UNK N   1      35.322  13.307  16.941  0.00  0.00     0.179 C 
BRANCH  14  15
HETATM   15  C   UNK N   1      35.306  11.857  17.405  0.00  0.00     0.027 C 
BRANCH  15  16
HETATM   16  C   UNK N   1      35.866  10.898  16.356  0.00  0.00     0.002 C 
BRANCH  16  17
HETATM   17  C   UNK N   1      34.754  10.013  15.797  0.00  0.00     0.000 C 
BRANCH  17  18
HETATM   18  C   UNK N   1      34.861   9.780  14.292  0.00  0.00     0.000 C 
BRANCH  18  19
HETATM   19  C   UNK N   1      33.763  10.477  13.496  0.00  0.00     0.001 C 
BRANCH  19  20
HETATM   20  C   UNK N   1      34.137  10.522  12.018  0.00  0.00     0.010 C 
BRANCH  20  21
HETATM   21  C   UNK N   1      33.232   9.645  11.159  0.00  0.00     0.110 C 
BRANCH  21  22
HETATM   22  C   UNK N   1      32.951  10.244   9.817  0.00  0.00     0.139 C 
HETATM   23  O   UNK N   1      33.422   9.745   8.806  0.00  0.00    -0.650 OA
BRANCH  22  24
HETATM   24  O   UNK N   1      32.170  11.335   9.725  0.00  0.00    -0.776 OA
HETATM   25  H   UNK N   1      31.602  11.936  10.166  0.00  0.00     0.167 HD
ENDBRANCH  22  24
ENDBRANCH  21  22
ENDBRANCH  20  21
ENDBRANCH  19  20
ENDBRANCH  18  19
ENDBRANCH  17  18
ENDBRANCH  16  17
ENDBRANCH  15  16
ENDBRANCH  14  15
ENDBRANCH  13  14
ENDBRANCH  11  13
ENDBRANCH   9  11
ENDBRANCH   7   8
ENDBRANCH   5   7
BRANCH   6  26
HETATM   26  O   UNK N   1      36.849  16.061  10.932  0.00  0.00    -0.390 OA
HETATM   27  H   UNK N   1      36.898  17.026  10.837  0.00  0.00     0.210 HD
ENDBRANCH   6  26
BRANCH   1  28
HETATM   28  O   UNK N   1      34.773  17.246   9.645  0.00  0.00    -0.392 OA
HETATM   29  H   UNK N   1      34.610  17.263  10.602  0.00  0.00     0.210 HD
ENDBRANCH   1  28
BRANCH   2  30
HETATM   30  C   UNK N   1      32.790  15.525   8.684  0.00  0.00     0.044 C 
BRANCH  30  31
HETATM   31  C   UNK N   1      32.073  16.483   7.740  0.00  0.00     0.152 A 
HETATM   32  O   UNK N   1      32.086  17.779   8.289  0.00  0.00    -0.375 OA
HETATM   33  C   UNK N   1      30.916  17.026   8.487  0.00  0.00     0.157 A 
BRANCH  33  34
HETATM   34  C   UNK N   1      29.815  17.561   7.581  0.00  0.00     0.041 C 
HETATM   35  C   UNK N   1      29.289  16.428   6.708  0.00  0.00     0.015 C 
BRANCH  34  36
HETATM   36  C   UNK N   1      28.688  18.108   8.460  0.00  0.00     0.120 C 
HETATM   37  C   UNK N   1      29.140  18.313   9.895  0.00  0.00     0.040 C 
BRANCH  36  38
HETATM   38  O   UNK N   1      27.601  17.232   8.451  0.00  0.00    -0.396 OA
HETATM   39  H   UNK N   1      26.929  17.247   9.150  0.00  0.00     0.210 HD
ENDBRANCH  36  38
ENDBRANCH  34  36
ENDBRANCH  33  34
ENDBRANCH  30  31
ENDBRANCH   2  30
TORSDOF 21
ENDMDL
MODEL 4
REMARK VINA RESULT:      -6.5      5.485     10.081
REMARK  21 active torsions:
REMARK  status: ('A' for Active; 'I' for Inactive)
REMARK    1  A    between atoms: C_1  and  O_9 
REMARK    2  A    between atoms: C_2  and  C_8 
REMARK    3  A    between atoms: C_5  and  C_11 
REMARK    4  A    between atoms: C_6  and  O_10 
REMARK    5  A    between atoms: C_7  and  C_8 
REMARK    6  A    between atoms: C_11  and  C_12 
REMARK    7  A    between atoms: C_13  and  C_14 
REMARK    8  A    between atoms: C_14  and  O_15 
REMARK    9  A    between atoms: O_15  and  C_16 
REMARK   10  A    between atoms: C_16  and  C_17 
REMARK   11  A    between atoms: C_17  and  C_18 
REMARK   12  A    between atoms: C_18  and  C_19 
REMARK   13  A    between atoms: C_19  and  C_20 
REMARK   14  A    between atoms: C_20  and  C_21 
REMARK   15  A    between atoms: C_21  and  C_22 
REMARK   16  A    between atoms: C_22  and  C_23 
REMARK   17  A    between atoms: C_23  and  C_24 
REMARK   18  A    between atoms: C_24  and  O_25 
REMARK   19  A    between atoms: C_29  and  C_30 
REMARK   20  A    between atoms: C_30  and  C_31 
REMARK   21  A    between atoms: C_31  and  O_34 
ROOT
HETATM    1  C   UNK N   1      34.431  17.079   9.734  0.00  0.00     0.155 C 
HETATM    2  C   UNK N   1      33.999  15.594   9.686  0.00  0.00     0.043 C 
HETATM    3  C   UNK N   1      33.170  15.331   8.431  0.00  0.00     0.175 C 
HETATM    4  O   UNK N   1      33.970  15.542   7.288  0.00  0.00    -0.382 OA
HETATM    5  C   UNK N   1      34.315  16.915   7.133  0.00  0.00     0.156 C 
HETATM    6  C   UNK N   1      34.205  17.800   8.399  0.00  0.00     0.176 C 
ENDROOT
BRANCH   5   7
HETATM    7  C   UNK N   1      33.525  17.531   5.972  0.00  0.00     0.068 C 
BRANCH   7   8
HETATM    8  C   UNK N   1      32.502  16.581   5.413  0.00  0.00    -0.075 C 
HETATM    9  C   UNK N   1      31.301  16.495   6.015  0.00  0.00     0.084 C 
HETATM   10  C   UNK N   1      32.921  15.674   4.304  0.00  0.00     0.043 C 
BRANCH   9  11
HETATM   11  C   UNK N   1      30.143  15.632   5.680  0.00  0.00     0.283 C 
HETATM   12  O   UNK N   1      30.285  14.425   5.792  0.00  0.00    -0.260 OA
BRANCH  11  13
HETATM   13  O   UNK N   1      28.919  16.103   5.339  0.00  0.00    -0.318 OA
BRANCH  13  14
HETATM   14  C   UNK N   1      28.632  16.825   4.205  0.00  0.00     0.179 C 
BRANCH  14  15
HETATM   15  C   UNK N   1      27.130  16.852   3.956  0.00  0.00     0.027 C 
BRANCH  15  16
HETATM   16  C   UNK N   1      26.511  18.219   4.244  0.00  0.00     0.002 C 
BRANCH  16  17
HETATM   17  C   UNK N   1      27.469  19.335   3.831  0.00  0.00     0.000 C 
BRANCH  17  18
HETATM   18  C   UNK N   1      28.012  20.137   5.011  0.00  0.00     0.000 C 
BRANCH  18  19
HETATM   19  C   UNK N   1      26.944  20.492   6.039  0.00  0.00     0.001 C 
BRANCH  19  20
HETATM   20  C   UNK N   1      27.443  20.172   7.444  0.00  0.00     0.010 C 
BRANCH  20  21
HETATM   21  C   UNK N   1      28.207  18.853   7.506  0.00  0.00     0.110 C 
BRANCH  21  22
HETATM   22  C   UNK N   1      28.362  18.341   8.904  0.00  0.00     0.139 C 
HETATM   23  O   UNK N   1      29.297  18.709   9.598  0.00  0.00    -0.650 OA
BRANCH  22  24
HETATM   24  O   UNK N   1      27.462  17.472   9.398  0.00  0.00    -0.776 OA
HETATM   25  H   UNK N   1      27.310  16.697   9.903  0.00  0.00     0.167 HD
ENDBRANCH  22  24
ENDBRANCH  21  22
ENDBRANCH  20  21
ENDBRANCH  19  20
ENDBRANCH  18  19
ENDBRANCH  17  18
ENDBRANCH  16  17
ENDBRANCH  15  16
ENDBRANCH  14  15
ENDBRANCH  13  14
ENDBRANCH  11  13
ENDBRANCH   9  11
ENDBRANCH   7   8
ENDBRANCH   5   7
BRANCH   6  26
HETATM   26  O   UNK N   1      34.947  18.977   8.285  0.00  0.00    -0.390 OA
HETATM   27  H   UNK N   1      35.157  19.350   7.414  0.00  0.00     0.210 HD
ENDBRANCH   6  26
BRANCH   1  28
HETATM   28  O   UNK N   1      35.716  17.267  10.248  0.00  0.00    -0.392 OA
HETATM   29  H   UNK N   1      36.379  16.561  10.189  0.00  0.00     0.210 HD
ENDBRANCH   1  28
BRANCH   2  30
HETATM   30  C   UNK N   1      35.135  14.567   9.811  0.00  0.00     0.044 C 
BRANCH  30  31
HETATM   31  C   UNK N   1      34.973  13.601  10.978  0.00  0.00     0.152 A 
HETATM   32  O   UNK N   1      34.745  14.329  12.161  0.00  0.00    -0.375 OA
HETATM   33  C   UNK N   1      36.064  13.903  11.932  0.00  0.00     0.157 A 
BRANCH  33  34
HETATM   34  C   UNK N   1      36.386  12.741  12.863  0.00  0.00     0.041 C 
HETATM   35  C   UNK N   1      37.604  11.994  12.331  0.00  0.00     0.015 C 
BRANCH  34  36
HETATM   36  C   UNK N   1      36.685  13.303  14.254  0.00  0.00     0.120 C 
HETATM   37  C   UNK N   1      35.564  13.010  15.235  0.00  0.00     0.040 C 
BRANCH  36  38
HETATM   38  O   UNK N   1      36.872  14.686  14.185  0.00  0.00    -0.396 OA
HETATM   39  H   UNK N   1      36.394  15.234  13.544  0.00  0.00     0.210 HD
ENDBRANCH  36  38
ENDBRANCH  34  36
ENDBRANCH  33  34
ENDBRANCH  30  31
ENDBRANCH   2  30
TORSDOF 21
ENDMDL
MODEL 5
REMARK VINA RESULT:      -6.4      4.291      6.040
REMARK  21 active torsions:
REMARK  status: ('A' for Active; 'I' for Inactive)
REMARK    1  A    between atoms: C_1  and  O_9 
REMARK    2  A    between atoms: C_2  and  C_8 
REMARK    3  A    between atoms: C_5  and  C_11 
REMARK    4  A    between atoms: C_6  and  O_10 
REMARK    5  A    between atoms: C_7  and  C_8 
REMARK    6  A    between atoms: C_11  and  C_12 
REMARK    7  A    between atoms: C_13  and  C_14 
REMARK    8  A    between atoms: C_14  and  O_15 
REMARK    9  A    between atoms: O_15  and  C_16 
REMARK   10  A    between atoms: C_16  and  C_17 
REMARK   11  A    between atoms: C_17  and  C_18 
REMARK   12  A    between atoms: C_18  and  C_19 
REMARK   13  A    between atoms: C_19  and  C_20 
REMARK   14  A    between atoms: C_20  and  C_21 
REMARK   15  A    between atoms: C_21  and  C_22 
REMARK   16  A    between atoms: C_22  and  C_23 
REMARK   17  A    between atoms: C_23  and  C_24 
REMARK   18  A    between atoms: C_24  and  O_25 
REMARK   19  A    between atoms: C_29  and  C_30 
REMARK   20  A    between atoms: C_30  and  C_31 
REMARK   21  A    between atoms: C_31  and  O_34 
ROOT
HETATM    1  C   UNK N   1      25.100  18.604   4.636  0.00  0.00     0.155 C 
HETATM    2  C   UNK N   1      24.978  17.432   3.634  0.00  0.00     0.043 C 
HETATM    3  C   UNK N   1      26.366  16.906   3.274  0.00  0.00     0.175 C 
HETATM    4  O   UNK N   1      26.979  16.372   4.427  0.00  0.00    -0.382 OA
HETATM    5  C   UNK N   1      27.283  17.387   5.379  0.00  0.00     0.156 C 
HETATM    6  C   UNK N   1      26.504  18.718   5.240  0.00  0.00     0.176 C 
ENDROOT
BRANCH   5   7
HETATM    7  C   UNK N   1      28.795  17.646   5.411  0.00  0.00     0.068 C 
BRANCH   7   8
HETATM    8  C   UNK N   1      29.579  16.503   4.827  0.00  0.00    -0.075 C 
HETATM    9  C   UNK N   1      29.908  15.469   5.624  0.00  0.00     0.084 C 
HETATM   10  C   UNK N   1      30.080  16.641   3.427  0.00  0.00     0.043 C 
BRANCH   9  11
HETATM   11  C   UNK N   1      30.685  14.248   5.304  0.00  0.00     0.283 C 
HETATM   12  O   UNK N   1      30.065  13.206   5.154  0.00  0.00    -0.260 OA
BRANCH  11  13
HETATM   13  O   UNK N   1      32.022  14.233   5.090  0.00  0.00    -0.318 OA
BRANCH  13  14
HETATM   14  C   UNK N   1      32.962  14.847   5.883  0.00  0.00     0.179 C 
BRANCH  14  15
HETATM   15  C   UNK N   1      33.561  16.050   5.167  0.00  0.00     0.027 C 
BRANCH  15  16
HETATM   16  C   UNK N   1      33.123  17.377   5.782  0.00  0.00     0.002 C 
BRANCH  16  17
HETATM   17  C   UNK N   1      33.898  17.650   7.069  0.00  0.00     0.000 C 
BRANCH  17  18
HETATM   18  C   UNK N   1      33.017  18.131   8.219  0.00  0.00     0.000 C 
BRANCH  18  19
HETATM   19  C   UNK N   1      31.710  17.355   8.341  0.00  0.00     0.001 C 
BRANCH  19  20
HETATM   20  C   UNK N   1      30.566  18.307   8.675  0.00  0.00     0.010 C 
BRANCH  20  21
HETATM   21  C   UNK N   1      29.619  17.736   9.726  0.00  0.00     0.110 C 
BRANCH  21  22
HETATM   22  C   UNK N   1      28.182  17.813   9.312  0.00  0.00     0.139 C 
HETATM   23  O   UNK N   1      27.458  16.834   9.407  0.00  0.00    -0.650 OA
BRANCH  22  24
HETATM   24  O   UNK N   1      27.687  18.970   8.838  0.00  0.00    -0.776 OA
HETATM   25  H   UNK N   1      27.400  19.456   8.090  0.00  0.00     0.167 HD
ENDBRANCH  22  24
ENDBRANCH  21  22
ENDBRANCH  20  21
ENDBRANCH  19  20
ENDBRANCH  18  19
ENDBRANCH  17  18
ENDBRANCH  16  17
ENDBRANCH  15  16
ENDBRANCH  14  15
ENDBRANCH  13  14
ENDBRANCH  11  13
ENDBRANCH   9  11
ENDBRANCH   7   8
ENDBRANCH   5   7
BRANCH   6  26
HETATM   26  O   UNK N   1      26.531  19.470   6.417  0.00  0.00    -0.390 OA
HETATM   27  H   UNK N   1      25.769  20.013   6.676  0.00  0.00     0.210 HD
ENDBRANCH   6  26
BRANCH   1  28
HETATM   28  O   UNK N   1      24.086  18.620   5.597  0.00  0.00    -0.392 OA
HETATM   29  H   UNK N   1      23.377  19.281   5.555  0.00  0.00     0.210 HD
ENDBRANCH   1  28
BRANCH   2  30
HETATM   30  C   UNK N   1      24.057  16.280   4.066  0.00  0.00     0.044 C 
BRANCH  30  31
HETATM   31  C   UNK N   1      22.764  16.185   3.267  0.00  0.00     0.152 A 
HETATM   32  O   UNK N   1      21.881  15.296   3.908  0.00  0.00    -0.375 OA
HETATM   33  C   UNK N   1      22.631  14.774   2.842  0.00  0.00     0.157 A 
BRANCH  33  34
HETATM   34  C   UNK N   1      21.725  14.595   1.630  0.00  0.00     0.041 C 
HETATM   35  C   UNK N   1      22.442  13.743   0.590  0.00  0.00     0.015 C 
BRANCH  34  36
HETATM   36  C   UNK N   1      20.442  13.896   2.084  0.00  0.00     0.120 C 
HETATM   37  C   UNK N   1      19.905  12.956   1.019  0.00  0.00     0.040 C 
BRANCH  36  38
HETATM   38  O   UNK N   1      19.459  14.841   2.387  0.00  0.00    -0.396 OA
HETATM   39  H   UNK N   1      18.515  14.619   2.365  0.00  0.00     0.210 HD
ENDBRANCH  36  38
ENDBRANCH  34  36
ENDBRANCH  33  34
ENDBRANCH  30  31
ENDBRANCH   2  30
TORSDOF 21
ENDMDL
MODEL 6
REMARK VINA RESULT:      -6.4      1.793      2.180
REMARK  21 active torsions:
REMARK  status: ('A' for Active; 'I' for Inactive)
REMARK    1  A    between atoms: C_1  and  O_9 
REMARK    2  A    between atoms: C_2  and  C_8 
REMARK    3  A    between atoms: C_5  and  C_11 
REMARK    4  A    between atoms: C_6  and  O_10 
REMARK    5  A    between atoms: C_7  and  C_8 
REMARK    6  A    between atoms: C_11  and  C_12 
REMARK    7  A    between atoms: C_13  and  C_14 
REMARK    8  A    between atoms: C_14  and  O_15 
REMARK    9  A    between atoms: O_15  and  C_16 
REMARK   10  A    between atoms: C_16  and  C_17 
REMARK   11  A    between atoms: C_17  and  C_18 
REMARK   12  A    between atoms: C_18  and  C_19 
REMARK   13  A    between atoms: C_19  and  C_20 
REMARK   14  A    between atoms: C_20  and  C_21 
REMARK   15  A    between atoms: C_21  and  C_22 
REMARK   16  A    between atoms: C_22  and  C_23 
REMARK   17  A    between atoms: C_23  and  C_24 
REMARK   18  A    between atoms: C_24  and  O_25 
REMARK   19  A    between atoms: C_29  and  C_30 
REMARK   20  A    between atoms: C_30  and  C_31 
REMARK   21  A    between atoms: C_31  and  O_34 
ROOT
HETATM    1  C   UNK N   1      20.189  16.718   7.866  0.00  0.00     0.155 C 
HETATM    2  C   UNK N   1      20.257  15.186   8.067  0.00  0.00     0.043 C 
HETATM    3  C   UNK N   1      20.947  14.532   6.872  0.00  0.00     0.175 C 
HETATM    4  O   UNK N   1      22.284  14.976   6.803  0.00  0.00    -0.382 OA
HETATM    5  C   UNK N   1      22.364  16.359   6.472  0.00  0.00     0.156 C 
HETATM    6  C   UNK N   1      21.089  17.202   6.722  0.00  0.00     0.176 C 
ENDROOT
BRANCH   5   7
HETATM    7  C   UNK N   1      22.849  16.530   5.027  0.00  0.00     0.068 C 
BRANCH   7   8
HETATM    8  C   UNK N   1      24.298  16.927   4.958  0.00  0.00    -0.075 C 
HETATM    9  C   UNK N   1      25.224  16.092   5.464  0.00  0.00     0.084 C 
HETATM   10  C   UNK N   1      24.626  18.297   4.461  0.00  0.00     0.043 C 
BRANCH   9  11
HETATM   11  C   UNK N   1      26.696  16.255   5.540  0.00  0.00     0.283 C 
HETATM   12  O   UNK N   1      27.151  16.842   6.509  0.00  0.00    -0.260 OA
BRANCH  11  13
HETATM   13  O   UNK N   1      27.565  15.727   4.646  0.00  0.00    -0.318 OA
BRANCH  13  14
HETATM   14  C   UNK N   1      28.311  14.589   4.838  0.00  0.00     0.179 C 
BRANCH  14  15
HETATM   15  C   UNK N   1      29.774  14.846   4.501  0.00  0.00     0.027 C 
BRANCH  15  16
HETATM   16  C   UNK N   1      29.983  16.168   3.765  0.00  0.00     0.002 C 
BRANCH  16  17
HETATM   17  C   UNK N   1      30.665  17.185   4.679  0.00  0.00     0.000 C 
BRANCH  17  18
HETATM   18  C   UNK N   1      31.549  16.546   5.747  0.00  0.00     0.000 C 
BRANCH  18  19
HETATM   19  C   UNK N   1      31.285  17.087   7.148  0.00  0.00     0.001 C 
BRANCH  19  20
HETATM   20  C   UNK N   1      32.410  16.670   8.090  0.00  0.00     0.010 C 
BRANCH  20  21
HETATM   21  C   UNK N   1      33.123  17.866   8.713  0.00  0.00     0.110 C 
BRANCH  21  22
HETATM   22  C   UNK N   1      34.359  18.256   7.965  0.00  0.00     0.139 C 
HETATM   23  O   UNK N   1      35.004  19.236   8.303  0.00  0.00    -0.650 OA
BRANCH  22  24
HETATM   24  O   UNK N   1      34.763  17.518   6.915  0.00  0.00    -0.776 OA
HETATM   25  H   UNK N   1      35.297  17.468   6.147  0.00  0.00     0.167 HD
ENDBRANCH  22  24
ENDBRANCH  21  22
ENDBRANCH  20  21
ENDBRANCH  19  20
ENDBRANCH  18  19
ENDBRANCH  17  18
ENDBRANCH  16  17
ENDBRANCH  15  16
ENDBRANCH  14  15
ENDBRANCH  13  14
ENDBRANCH  11  13
ENDBRANCH   9  11
ENDBRANCH   7   8
ENDBRANCH   5   7
BRANCH   6  26
HETATM   26  O   UNK N   1      21.365  18.569   6.789  0.00  0.00    -0.390 OA
HETATM   27  H   UNK N   1      20.747  19.219   6.421  0.00  0.00     0.210 HD
ENDBRANCH   6  26
BRANCH   1  28
HETATM   28  O   UNK N   1      20.369  17.441   9.049  0.00  0.00    -0.392 OA
HETATM   29  H   UNK N   1      20.547  16.982   9.885  0.00  0.00     0.210 HD
ENDBRANCH   1  28
BRANCH   2  30
HETATM   30  C   UNK N   1      20.891  14.714   9.384  0.00  0.00     0.044 C 
BRANCH  30  31
HETATM   31  C   UNK N   1      21.298  13.246   9.388  0.00  0.00     0.152 A 
HETATM   32  O   UNK N   1      20.963  12.670  10.628  0.00  0.00    -0.375 OA
HETATM   33  C   UNK N   1      22.296  13.085  10.469  0.00  0.00     0.157 A 
BRANCH  33  34
HETATM   34  C   UNK N   1      23.185  11.862  10.288  0.00  0.00     0.041 C 
HETATM   35  C   UNK N   1      23.986  12.010   9.000  0.00  0.00     0.015 C 
BRANCH  34  36
HETATM   36  C   UNK N   1      24.133  11.771  11.485  0.00  0.00     0.120 C 
HETATM   37  C   UNK N   1      23.401  11.958  12.801  0.00  0.00     0.040 C 
BRANCH  36  38
HETATM   38  O   UNK N   1      25.132  12.742  11.383  0.00  0.00    -0.396 OA
HETATM   39  H   UNK N   1      25.152  13.515  11.967  0.00  0.00     0.210 HD
ENDBRANCH  36  38
ENDBRANCH  34  36
ENDBRANCH  33  34
ENDBRANCH  30  31
ENDBRANCH   2  30
TORSDOF 21
ENDMDL
MODEL 7
REMARK VINA RESULT:      -6.4      3.555      8.311
REMARK  21 active torsions:
REMARK  status: ('A' for Active; 'I' for Inactive)
REMARK    1  A    between atoms: C_1  and  O_9 
REMARK    2  A    between atoms: C_2  and  C_8 
REMARK    3  A    between atoms: C_5  and  C_11 
REMARK    4  A    between atoms: C_6  and  O_10 
REMARK    5  A    between atoms: C_7  and  C_8 
REMARK    6  A    between atoms: C_11  and  C_12 
REMARK    7  A    between atoms: C_13  and  C_14 
REMARK    8  A    between atoms: C_14  and  O_15 
REMARK    9  A    between atoms: O_15  and  C_16 
REMARK   10  A    between atoms: C_16  and  C_17 
REMARK   11  A    between atoms: C_17  and  C_18 
REMARK   12  A    between atoms: C_18  and  C_19 
REMARK   13  A    between atoms: C_19  and  C_20 
REMARK   14  A    between atoms: C_20  and  C_21 
REMARK   15  A    between atoms: C_21  and  C_22 
REMARK   16  A    between atoms: C_22  and  C_23 
REMARK   17  A    between atoms: C_23  and  C_24 
REMARK   18  A    between atoms: C_24  and  O_25 
REMARK   19  A    between atoms: C_29  and  C_30 
REMARK   20  A    between atoms: C_30  and  C_31 
REMARK   21  A    between atoms: C_31  and  O_34 
ROOT
HETATM    1  C   UNK N   1      20.306  19.633   2.438  0.00  0.00     0.155 C 
HETATM    2  C   UNK N   1      21.490  19.819   3.416  0.00  0.00     0.043 C 
HETATM    3  C   UNK N   1      21.359  18.845   4.586  0.00  0.00     0.175 C 
HETATM    4  O   UNK N   1      21.452  17.522   4.106  0.00  0.00    -0.382 OA
HETATM    5  C   UNK N   1      20.329  17.173   3.302  0.00  0.00     0.156 C 
HETATM    6  C   UNK N   1      19.514  18.348   2.710  0.00  0.00     0.176 C 
ENDROOT
BRANCH   5   7
HETATM    7  C   UNK N   1      19.412  16.209   4.065  0.00  0.00     0.068 C 
BRANCH   7   8
HETATM    8  C   UNK N   1      19.928  14.797   4.044  0.00  0.00    -0.075 C 
HETATM    9  C   UNK N   1      19.705  14.009   5.113  0.00  0.00     0.084 C 
HETATM   10  C   UNK N   1      20.790  14.383   2.897  0.00  0.00     0.043 C 
BRANCH   9  11
HETATM   11  C   UNK N   1      20.122  12.606   5.349  0.00  0.00     0.283 C 
HETATM   12  O   UNK N   1      19.423  11.722   4.881  0.00  0.00    -0.260 OA
BRANCH  11  13
HETATM   13  O   UNK N   1      21.267  12.251   5.980  0.00  0.00    -0.318 OA
BRANCH  13  14
HETATM   14  C   UNK N   1      22.524  12.713   5.669  0.00  0.00     0.179 C 
BRANCH  14  15
HETATM   15  C   UNK N   1      22.992  13.724   6.708  0.00  0.00     0.027 C 
BRANCH  15  16
HETATM   16  C   UNK N   1      22.809  15.168   6.246  0.00  0.00     0.002 C 
BRANCH  16  17
HETATM   17  C   UNK N   1      21.898  15.924   7.210  0.00  0.00     0.000 C 
BRANCH  17  18
HETATM   18  C   UNK N   1      21.210  15.022   8.231  0.00  0.00     0.000 C 
BRANCH  18  19
HETATM   19  C   UNK N   1      19.869  15.568   8.709  0.00  0.00     0.001 C 
BRANCH  19  20
HETATM   20  C   UNK N   1      19.886  17.093   8.687  0.00  0.00     0.010 C 
BRANCH  20  21
HETATM   21  C   UNK N   1      18.721  17.701   9.461  0.00  0.00     0.110 C 
BRANCH  21  22
HETATM   22  C   UNK N   1      19.074  19.006  10.105  0.00  0.00     0.139 C 
HETATM   23  O   UNK N   1      20.176  19.503   9.933  0.00  0.00    -0.650 OA
BRANCH  22  24
HETATM   24  O   UNK N   1      18.167  19.635  10.874  0.00  0.00    -0.776 OA
HETATM   25  H   UNK N   1      18.009  20.176  11.623  0.00  0.00     0.167 HD
ENDBRANCH  22  24
ENDBRANCH  21  22
ENDBRANCH  20  21
ENDBRANCH  19  20
ENDBRANCH  18  19
ENDBRANCH  17  18
ENDBRANCH  16  17
ENDBRANCH  15  16
ENDBRANCH  14  15
ENDBRANCH  13  14
ENDBRANCH  11  13
ENDBRANCH   9  11
ENDBRANCH   7   8
ENDBRANCH   5   7
BRANCH   6  26
HETATM   26  O   UNK N   1      18.731  17.952   1.623  0.00  0.00    -0.390 OA
HETATM   27  H   UNK N   1      19.120  17.855   0.740  0.00  0.00     0.210 HD
ENDBRANCH   6  26
BRANCH   1  28
HETATM   28  O   UNK N   1      20.666  19.782   1.096  0.00  0.00    -0.392 OA
HETATM   29  H   UNK N   1      19.992  19.759   0.399  0.00  0.00     0.210 HD
ENDBRANCH   1  28
BRANCH   2  30
HETATM   30  C   UNK N   1      22.890  19.729   2.790  0.00  0.00     0.044 C 
BRANCH  30  31
HETATM   31  C   UNK N   1      24.029  19.895   3.789  0.00  0.00     0.152 A 
HETATM   32  O   UNK N   1      25.208  20.239   3.102  0.00  0.00    -0.375 OA
HETATM   33  C   UNK N   1      25.051  18.884   3.437  0.00  0.00     0.157 A 
BRANCH  33  34
HETATM   34  C   UNK N   1      25.980  18.542   4.595  0.00  0.00     0.041 C 
HETATM   35  C   UNK N   1      26.178  17.032   4.651  0.00  0.00     0.015 C 
BRANCH  34  36
HETATM   36  C   UNK N   1      27.323  19.236   4.360  0.00  0.00     0.120 C 
HETATM   37  C   UNK N   1      28.493  18.336   4.715  0.00  0.00     0.040 C 
BRANCH  36  38
HETATM   38  O   UNK N   1      27.404  20.402   5.125  0.00  0.00    -0.396 OA
HETATM   39  H   UNK N   1      28.256  20.764   5.413  0.00  0.00     0.210 HD
ENDBRANCH  36  38
ENDBRANCH  34  36
ENDBRANCH  33  34
ENDBRANCH  30  31
ENDBRANCH   2  30
TORSDOF 21
ENDMDL
MODEL 8
REMARK VINA RESULT:      -6.3     14.213     17.688
REMARK  21 active torsions:
REMARK  status: ('A' for Active; 'I' for Inactive)
REMARK    1  A    between atoms: C_1  and  O_9 
REMARK    2  A    between atoms: C_2  and  C_8 
REMARK    3  A    between atoms: C_5  and  C_11 
REMARK    4  A    between atoms: C_6  and  O_10 
REMARK    5  A    between atoms: C_7  and  C_8 
REMARK    6  A    between atoms: C_11  and  C_12 
REMARK    7  A    between atoms: C_13  and  C_14 
REMARK    8  A    between atoms: C_14  and  O_15 
REMARK    9  A    between atoms: O_15  and  C_16 
REMARK   10  A    between atoms: C_16  and  C_17 
REMARK   11  A    between atoms: C_17  and  C_18 
REMARK   12  A    between atoms: C_18  and  C_19 
REMARK   13  A    between atoms: C_19  and  C_20 
REMARK   14  A    between atoms: C_20  and  C_21 
REMARK   15  A    between atoms: C_21  and  C_22 
REMARK   16  A    between atoms: C_22  and  C_23 
REMARK   17  A    between atoms: C_23  and  C_24 
REMARK   18  A    between atoms: C_24  and  O_25 
REMARK   19  A    between atoms: C_29  and  C_30 
REMARK   20  A    between atoms: C_30  and  C_31 
REMARK   21  A    between atoms: C_31  and  O_34 
ROOT
HETATM    1  C   UNK N   1      30.919  21.368  -2.994  0.00  0.00     0.155 C 
HETATM    2  C   UNK N   1      30.990  21.078  -4.512  0.00  0.00     0.043 C 
HETATM    3  C   UNK N   1      30.091  22.050  -5.272  0.00  0.00     0.175 C 
HETATM    4  O   UNK N   1      30.573  23.365  -5.103  0.00  0.00    -0.382 OA
HETATM    5  C   UNK N   1      30.424  23.812  -3.758  0.00  0.00     0.156 C 
HETATM    6  C   UNK N   1      30.250  22.712  -2.683  0.00  0.00     0.176 C 
ENDROOT
BRANCH   5   7
HETATM    7  C   UNK N   1      29.293  24.843  -3.666  0.00  0.00     0.068 C 
BRANCH   7   8
HETATM    8  C   UNK N   1      29.730  26.208  -4.120  0.00  0.00    -0.075 C 
HETATM    9  C   UNK N   1      29.136  26.753  -5.199  0.00  0.00     0.084 C 
HETATM   10  C   UNK N   1      30.903  26.831  -3.438  0.00  0.00     0.043 C 
BRANCH   9  11
HETATM   11  C   UNK N   1      29.395  28.057  -5.854  0.00  0.00     0.283 C 
HETATM   12  O   UNK N   1      29.653  28.049  -7.048  0.00  0.00    -0.260 OA
BRANCH  11  13
HETATM   13  O   UNK N   1      29.284  29.255  -5.232  0.00  0.00    -0.318 OA
BRANCH  13  14
HETATM   14  C   UNK N   1      28.385  29.555  -4.237  0.00  0.00     0.179 C 
BRANCH  14  15
HETATM   15  C   UNK N   1      26.958  29.466  -4.762  0.00  0.00     0.027 C 
BRANCH  15  16
HETATM   16  C   UNK N   1      25.995  28.857  -3.746  0.00  0.00     0.002 C 
BRANCH  16  17
HETATM   17  C   UNK N   1      25.702  27.399  -4.097  0.00  0.00     0.000 C 
BRANCH  17  18
HETATM   18  C   UNK N   1      24.998  27.227  -5.440  0.00  0.00     0.000 C 
BRANCH  18  19
HETATM   19  C   UNK N   1      25.543  26.062  -6.259  0.00  0.00     0.001 C 
BRANCH  19  20
HETATM   20  C   UNK N   1      25.628  24.808  -5.395  0.00  0.00     0.010 C 
BRANCH  20  21
HETATM   21  C   UNK N   1      26.697  23.835  -5.881  0.00  0.00     0.110 C 
BRANCH  21  22
HETATM   22  C   UNK N   1      26.133  22.727  -6.715  0.00  0.00     0.139 C 
HETATM   23  O   UNK N   1      26.852  22.096  -7.474  0.00  0.00    -0.650 OA
BRANCH  22  24
HETATM   24  O   UNK N   1      24.825  22.424  -6.624  0.00  0.00    -0.776 OA
HETATM   25  H   UNK N   1      24.156  21.780  -6.750  0.00  0.00     0.167 HD
ENDBRANCH  22  24
ENDBRANCH  21  22
ENDBRANCH  20  21
ENDBRANCH  19  20
ENDBRANCH  18  19
ENDBRANCH  17  18
ENDBRANCH  16  17
ENDBRANCH  15  16
ENDBRANCH  14  15
ENDBRANCH  13  14
ENDBRANCH  11  13
ENDBRANCH   9  11
ENDBRANCH   7   8
ENDBRANCH   5   7
BRANCH   6  26
HETATM   26  O   UNK N   1      30.541  23.179  -1.399  0.00  0.00    -0.390 OA
HETATM   27  H   UNK N   1      31.458  23.334  -1.122  0.00  0.00     0.210 HD
ENDBRANCH   6  26
BRANCH   1  28
HETATM   28  O   UNK N   1      32.142  21.199  -2.340  0.00  0.00    -0.392 OA
HETATM   29  H   UNK N   1      32.476  21.880  -1.734  0.00  0.00     0.210 HD
ENDBRANCH   1  28
BRANCH   2  30
HETATM   30  C   UNK N   1      32.401  21.056  -5.120  0.00  0.00     0.044 C 
BRANCH  30  31
HETATM   31  C   UNK N   1      32.995  19.660  -5.260  0.00  0.00     0.152 A 
HETATM   32  O   UNK N   1      33.934  19.446  -4.234  0.00  0.00    -0.375 OA
HETATM   33  C   UNK N   1      34.448  19.838  -5.481  0.00  0.00     0.157 A 
BRANCH  33  34
HETATM   34  C   UNK N   1      35.104  18.640  -6.154  0.00  0.00     0.041 C 
HETATM   35  C   UNK N   1      35.635  19.061  -7.519  0.00  0.00     0.015 C 
BRANCH  34  36
HETATM   36  C   UNK N   1      36.258  18.160  -5.271  0.00  0.00     0.120 C 
HETATM   37  C   UNK N   1      37.268  17.344  -6.057  0.00  0.00     0.040 C 
BRANCH  36  38
HETATM   38  O   UNK N   1      35.769  17.380  -4.220  0.00  0.00    -0.396 OA
HETATM   39  H   UNK N   1      35.638  16.424  -4.313  0.00  0.00     0.210 HD
ENDBRANCH  36  38
ENDBRANCH  34  36
ENDBRANCH  33  34
ENDBRANCH  30  31
ENDBRANCH   2  30
TORSDOF 21
ENDMDL
MODEL 9
REMARK VINA RESULT:      -6.2      5.286     10.104
REMARK  21 active torsions:
REMARK  status: ('A' for Active; 'I' for Inactive)
REMARK    1  A    between atoms: C_1  and  O_9 
REMARK    2  A    between atoms: C_2  and  C_8 
REMARK    3  A    between atoms: C_5  and  C_11 
REMARK    4  A    between atoms: C_6  and  O_10 
REMARK    5  A    between atoms: C_7  and  C_8 
REMARK    6  A    between atoms: C_11  and  C_12 
REMARK    7  A    between atoms: C_13  and  C_14 
REMARK    8  A    between atoms: C_14  and  O_15 
REMARK    9  A    between atoms: O_15  and  C_16 
REMARK   10  A    between atoms: C_16  and  C_17 
REMARK   11  A    between atoms: C_17  and  C_18 
REMARK   12  A    between atoms: C_18  and  C_19 
REMARK   13  A    between atoms: C_19  and  C_20 
REMARK   14  A    between atoms: C_20  and  C_21 
REMARK   15  A    between atoms: C_21  and  C_22 
REMARK   16  A    between atoms: C_22  and  C_23 
REMARK   17  A    between atoms: C_23  and  C_24 
REMARK   18  A    between atoms: C_24  and  O_25 
REMARK   19  A    between atoms: C_29  and  C_30 
REMARK   20  A    between atoms: C_30  and  C_31 
REMARK   21  A    between atoms: C_31  and  O_34 
ROOT
HETATM    1  C   UNK N   1      33.018  14.899   9.595  0.00  0.00     0.155 C 
HETATM    2  C   UNK N   1      34.417  14.310   9.298  0.00  0.00     0.043 C 
HETATM    3  C   UNK N   1      35.002  14.958   8.046  0.00  0.00     0.175 C 
HETATM    4  O   UNK N   1      35.200  16.335   8.280  0.00  0.00    -0.382 OA
HETATM    5  C   UNK N   1      33.964  17.028   8.422  0.00  0.00     0.156 C 
HETATM    6  C   UNK N   1      32.729  16.166   8.780  0.00  0.00     0.176 C 
ENDROOT
BRANCH   5   7
HETATM    7  C   UNK N   1      33.688  17.879   7.177  0.00  0.00     0.068 C 
BRANCH   7   8
HETATM    8  C   UNK N   1      33.044  17.082   6.076  0.00  0.00    -0.075 C 
HETATM    9  C   UNK N   1      33.834  16.455   5.183  0.00  0.00     0.084 C 
HETATM   10  C   UNK N   1      31.559  17.146   5.941  0.00  0.00     0.043 C 
BRANCH   9  11
HETATM   11  C   UNK N   1      33.455  15.635   4.007  0.00  0.00     0.283 C 
HETATM   12  O   UNK N   1      33.459  16.179   2.914  0.00  0.00    -0.260 OA
BRANCH  11  13
HETATM   13  O   UNK N   1      33.185  14.309   4.062  0.00  0.00    -0.318 OA
BRANCH  13  14
HETATM   14  C   UNK N   1      31.984  13.755   4.436  0.00  0.00     0.179 C 
BRANCH  14  15
HETATM   15  C   UNK N   1      31.089  13.551   3.220  0.00  0.00     0.027 C 
BRANCH  15  16
HETATM   16  C   UNK N   1      29.883  14.488   3.215  0.00  0.00     0.002 C 
BRANCH  16  17
HETATM   17  C   UNK N   1      29.240  14.536   4.600  0.00  0.00     0.000 C 
BRANCH  17  18
HETATM   18  C   UNK N   1      28.463  15.822   4.866  0.00  0.00     0.000 C 
BRANCH  18  19
HETATM   19  C   UNK N   1      27.847  15.876   6.260  0.00  0.00     0.001 C 
BRANCH  19  20
HETATM   20  C   UNK N   1      27.118  17.201   6.459  0.00  0.00     0.010 C 
BRANCH  20  21
HETATM   21  C   UNK N   1      28.071  18.351   6.768  0.00  0.00     0.110 C 
BRANCH  21  22
HETATM   22  C   UNK N   1      28.407  18.447   8.224  0.00  0.00     0.139 C 
HETATM   23  O   UNK N   1      29.559  18.636   8.582  0.00  0.00    -0.650 OA
BRANCH  22  24
HETATM   24  O   UNK N   1      27.430  18.330   9.142  0.00  0.00    -0.776 OA
HETATM   25  H   UNK N   1      26.569  18.582   9.410  0.00  0.00     0.167 HD
ENDBRANCH  22  24
ENDBRANCH  21  22
ENDBRANCH  20  21
ENDBRANCH  19  20
ENDBRANCH  18  19
ENDBRANCH  17  18
ENDBRANCH  16  17
ENDBRANCH  15  16
ENDBRANCH  14  15
ENDBRANCH  13  14
ENDBRANCH  11  13
ENDBRANCH   9  11
ENDBRANCH   7   8
ENDBRANCH   5   7
BRANCH   6  26
HETATM   26  O   UNK N   1      31.690  16.931   9.315  0.00  0.00    -0.390 OA
HETATM   27  H   UNK N   1      30.791  16.570   9.381  0.00  0.00     0.210 HD
ENDBRANCH   6  26
BRANCH   1  28
HETATM   28  O   UNK N   1      32.758  15.053  10.959  0.00  0.00    -0.392 OA
HETATM   29  H   UNK N   1      33.008  15.869  11.420  0.00  0.00     0.210 HD
ENDBRANCH   1  28
BRANCH   2  30
HETATM   30  C   UNK N   1      35.422  14.366  10.459  0.00  0.00     0.044 C 
BRANCH  30  31
HETATM   31  C   UNK N   1      35.222  13.280  11.508  0.00  0.00     0.152 A 
HETATM   32  O   UNK N   1      34.810  13.868  12.719  0.00  0.00    -0.375 OA
HETATM   33  C   UNK N   1      36.177  13.566  12.602  0.00  0.00     0.157 A 
BRANCH  33  34
HETATM   34  C   UNK N   1      36.497  12.345  13.454  0.00  0.00     0.041 C 
HETATM   35  C   UNK N   1      37.663  11.589  12.828  0.00  0.00     0.015 C 
BRANCH  34  36
HETATM   36  C   UNK N   1      36.877  12.821  14.858  0.00  0.00     0.120 C 
HETATM   37  C   UNK N   1      35.794  12.503  15.874  0.00  0.00     0.040 C 
BRANCH  36  38
HETATM   38  O   UNK N   1      37.103  14.199  14.856  0.00  0.00    -0.396 OA
HETATM   39  H   UNK N   1      37.978  14.572  14.671  0.00  0.00     0.210 HD
ENDBRANCH  36  38
ENDBRANCH  34  36
ENDBRANCH  33  34
ENDBRANCH  30  31
ENDBRANCH   2  30
TORSDOF 21
ENDMDL
