MODEL 1
REMARK VINA RESULT:      -7.4      0.000      0.000
REMARK  1 active torsions:
REMARK  status: ('A' for Active; 'I' for Inactive)
REMARK    1  A    between atoms: C_17  and  O_20 
ROOT
HETATM    1  C   UNK N   1      30.791  22.602  -3.366  0.00  0.00     0.021 C 
HETATM    2  C   UNK N   1      29.911  21.972  -4.438  0.00  0.00     0.006 C 
HETATM    3  C   UNK N   1      30.870  21.214  -5.348  0.00  0.00     0.013 C 
HETATM    4  C   UNK N   1      31.863  20.587  -4.355  0.00  0.00     0.079 C 
HETATM    5  C   UNK N   1      31.790  21.521  -3.191  0.00  0.00     0.135 C 
HETATM    6  C   UNK N   1      29.870  22.879  -2.185  0.00  0.00     0.018 C 
HETATM    7  C   UNK N   1      28.868  23.965  -2.586  0.00  0.00     0.007 C 
HETATM    8  C   UNK N   1      28.121  23.778  -3.946  0.00  0.00     0.002 C 
HETATM    9  C   UNK N   1      28.888  22.943  -5.052  0.00  0.00    -0.004 C 
HETATM   10  C   UNK N   1      27.720  25.217  -4.443  0.00  0.00    -0.013 C 
HETATM   11  C   UNK N   1      27.323  25.197  -5.915  0.00  0.00    -0.034 C 
HETATM   12  C   UNK N   1      28.233  24.476  -6.891  0.00  0.00     0.038 C 
HETATM   13  C   UNK N   1      29.434  23.831  -6.171  0.00  0.00     0.010 C 
HETATM   14  C   UNK N   1      26.601  25.743  -3.522  0.00  0.00     0.022 C 
HETATM   15  C   UNK N   1      25.937  26.991  -4.071  0.00  0.00     0.087 C 
HETATM   16  C   UNK N   1      25.436  26.710  -5.449  0.00  0.00     0.182 C 
HETATM   17  C   UNK N   1      26.233  25.862  -6.369  0.00  0.00     0.114 C 
HETATM   18  O   UNK N   1      24.426  27.269  -5.849  0.00  0.00    -0.290 OA
HETATM   19  O   UNK N   1      32.582  21.484  -2.263  0.00  0.00    -0.297 OA
HETATM   20  C   UNK N   1      28.917  26.174  -4.359  0.00  0.00     0.020 C 
HETATM   21  C   UNK N   1      31.541  23.864  -3.802  0.00  0.00     0.024 C 
ENDROOT
BRANCH  17  22
HETATM   22  O   UNK N   1      25.895  25.802  -7.672  0.00  0.00    -0.357 OA
HETATM   23  H   UNK N   1      26.384  26.282  -8.311  0.00  0.00     0.218 HD
ENDBRANCH  17  22
TORSDOF 1
ENDMDL
MODEL 2
REMARK VINA RESULT:      -7.3      4.041      6.288
REMARK  1 active torsions:
REMARK  status: ('A' for Active; 'I' for Inactive)
REMARK    1  A    between atoms: C_17  and  O_20 
ROOT
HETATM    1  C   UNK N   1      27.648  28.502  -5.383  0.00  0.00     0.021 C 
HETATM    2  C   UNK N   1      26.203  28.059  -5.191  0.00  0.00     0.006 C 
HETATM    3  C   UNK N   1      25.890  28.338  -3.726  0.00  0.00     0.013 C 
HETATM    4  C   UNK N   1      26.575  29.692  -3.480  0.00  0.00     0.079 C 
HETATM    5  C   UNK N   1      27.666  29.693  -4.502  0.00  0.00     0.135 C 
HETATM    6  C   UNK N   1      27.808  28.755  -6.876  0.00  0.00     0.018 C 
HETATM    7  C   UNK N   1      27.684  27.420  -7.617  0.00  0.00     0.007 C 
HETATM    8  C   UNK N   1      26.465  26.513  -7.253  0.00  0.00     0.002 C 
HETATM    9  C   UNK N   1      25.894  26.674  -5.784  0.00  0.00    -0.004 C 
HETATM   10  C   UNK N   1      26.890  25.032  -7.578  0.00  0.00    -0.013 C 
HETATM   11  C   UNK N   1      25.939  24.034  -6.926  0.00  0.00    -0.034 C 
HETATM   12  C   UNK N   1      25.589  24.232  -5.464  0.00  0.00     0.038 C 
HETATM   13  C   UNK N   1      26.264  25.492  -4.887  0.00  0.00     0.010 C 
HETATM   14  C   UNK N   1      26.963  24.886  -9.111  0.00  0.00     0.022 C 
HETATM   15  C   UNK N   1      27.081  23.438  -9.550  0.00  0.00     0.087 C 
HETATM   16  C   UNK N   1      25.945  22.660  -8.970  0.00  0.00     0.182 C 
HETATM   17  C   UNK N   1      25.471  22.953  -7.596  0.00  0.00     0.114 C 
HETATM   18  O   UNK N   1      25.486  21.713  -9.591  0.00  0.00    -0.290 OA
HETATM   19  O   UNK N   1      28.569  30.515  -4.504  0.00  0.00    -0.297 OA
HETATM   20  C   UNK N   1      28.273  24.721  -6.988  0.00  0.00     0.020 C 
HETATM   21  C   UNK N   1      28.701  27.520  -4.862  0.00  0.00     0.024 C 
ENDROOT
BRANCH  17  22
HETATM   22  O   UNK N   1      24.612  22.104  -6.999  0.00  0.00    -0.357 OA
HETATM   23  H   UNK N   1      24.817  21.192  -6.931  0.00  0.00     0.218 HD
ENDBRANCH  17  22
TORSDOF 1
ENDMDL
MODEL 3
REMARK VINA RESULT:      -7.2     20.351     23.439
REMARK  1 active torsions:
REMARK  status: ('A' for Active; 'I' for Inactive)
REMARK    1  A    between atoms: C_17  and  O_20 
ROOT
HETATM    1  C   UNK N   1      35.487  10.918  15.888  0.00  0.00     0.021 C 
HETATM    2  C   UNK N   1      36.260  12.229  15.941  0.00  0.00     0.006 C 
HETATM    3  C   UNK N   1      35.520  13.090  16.957  0.00  0.00     0.013 C 
HETATM    4  C   UNK N   1      35.156  12.083  18.061  0.00  0.00     0.079 C 
HETATM    5  C   UNK N   1      35.110  10.789  17.315  0.00  0.00     0.135 C 
HETATM    6  C   UNK N   1      36.462   9.884  15.343  0.00  0.00     0.018 C 
HETATM    7  C   UNK N   1      36.785  10.231  13.887  0.00  0.00     0.007 C 
HETATM    8  C   UNK N   1      37.187  11.710  13.579  0.00  0.00     0.002 C 
HETATM    9  C   UNK N   1      36.598  12.808  14.556  0.00  0.00    -0.004 C 
HETATM   10  C   UNK N   1      36.813  11.976  12.073  0.00  0.00    -0.013 C 
HETATM   11  C   UNK N   1      36.811  13.469  11.765  0.00  0.00    -0.034 C 
HETATM   12  C   UNK N   1      36.081  14.395  12.720  0.00  0.00     0.038 C 
HETATM   13  C   UNK N   1      35.476  13.619  13.906  0.00  0.00     0.010 C 
HETATM   14  C   UNK N   1      37.794  11.177  11.192  0.00  0.00     0.022 C 
HETATM   15  C   UNK N   1      37.717  11.577   9.730  0.00  0.00     0.087 C 
HETATM   16  C   UNK N   1      37.939  13.049   9.616  0.00  0.00     0.182 C 
HETATM   17  C   UNK N   1      37.375  13.965  10.637  0.00  0.00     0.114 C 
HETATM   18  O   UNK N   1      38.490  13.500   8.623  0.00  0.00    -0.290 OA
HETATM   19  O   UNK N   1      34.657   9.763  17.799  0.00  0.00    -0.297 OA
HETATM   20  C   UNK N   1      35.384  11.499  11.775  0.00  0.00     0.020 C 
HETATM   21  C   UNK N   1      34.195  10.960  15.066  0.00  0.00     0.024 C 
ENDROOT
BRANCH  17  22
HETATM   22  O   UNK N   1      37.380  15.293  10.407  0.00  0.00    -0.357 OA
HETATM   23  H   UNK N   1      38.184  15.742  10.239  0.00  0.00     0.218 HD
ENDBRANCH  17  22
TORSDOF 1
ENDMDL
MODEL 4
REMARK VINA RESULT:      -7.2     22.112     25.661
REMARK  1 active torsions:
REMARK  status: ('A' for Active; 'I' for Inactive)
REMARK    1  A    between atoms: C_17  and  O_20 
ROOT
HETATM    1  C   UNK N   1      35.596  11.209  13.166  0.00  0.00     0.021 C 
HETATM    2  C   UNK N   1      34.824  12.356  13.804  0.00  0.00     0.006 C 
HETATM    3  C   UNK N   1      35.295  13.610  13.078  0.00  0.00     0.013 C 
HETATM    4  C   UNK N   1      35.392  13.144  11.616  0.00  0.00     0.079 C 
HETATM    5  C   UNK N   1      35.623  11.674  11.759  0.00  0.00     0.135 C 
HETATM    6  C   UNK N   1      34.785   9.953  13.454  0.00  0.00     0.018 C 
HETATM    7  C   UNK N   1      34.815   9.682  14.961  0.00  0.00     0.007 C 
HETATM    8  C   UNK N   1      34.489  10.881  15.908  0.00  0.00     0.002 C 
HETATM    9  C   UNK N   1      34.821  12.323  15.343  0.00  0.00    -0.004 C 
HETATM   10  C   UNK N   1      35.210  10.586  17.276  0.00  0.00    -0.013 C 
HETATM   11  C   UNK N   1      35.275  11.840  18.142  0.00  0.00    -0.034 C 
HETATM   12  C   UNK N   1      35.750  13.128  17.498  0.00  0.00     0.038 C 
HETATM   13  C   UNK N   1      36.060  12.931  16.001  0.00  0.00     0.010 C 
HETATM   14  C   UNK N   1      34.472   9.418  17.959  0.00  0.00     0.022 C 
HETATM   15  C   UNK N   1      34.892   9.233  19.405  0.00  0.00     0.087 C 
HETATM   16  C   UNK N   1      34.694  10.519  20.137  0.00  0.00     0.182 C 
HETATM   17  C   UNK N   1      34.993  11.807  19.467  0.00  0.00     0.114 C 
HETATM   18  O   UNK N   1      34.392  10.497  21.321  0.00  0.00    -0.290 OA
HETATM   19  O   UNK N   1      35.953  10.963  10.824  0.00  0.00    -0.297 OA
HETATM   20  C   UNK N   1      36.671  10.177  17.044  0.00  0.00     0.020 C 
HETATM   21  C   UNK N   1      37.046  11.062  13.637  0.00  0.00     0.024 C 
ENDROOT
BRANCH  17  22
HETATM   22  O   UNK N   1      35.034  12.938  20.198  0.00  0.00    -0.357 OA
HETATM   23  H   UNK N   1      35.253  12.906  21.109  0.00  0.00     0.218 HD
ENDBRANCH  17  22
TORSDOF 1
ENDMDL
MODEL 5
REMARK VINA RESULT:      -7.1     13.189     17.128
REMARK  1 active torsions:
REMARK  status: ('A' for Active; 'I' for Inactive)
REMARK    1  A    between atoms: C_17  and  O_20 
ROOT
HETATM    1  C   UNK N   1      30.985  16.384   6.619  0.00  0.00     0.021 C 
HETATM    2  C   UNK N   1      31.067  16.594   8.126  0.00  0.00     0.006 C 
HETATM    3  C   UNK N   1      30.428  17.954   8.377  0.00  0.00     0.013 C 
HETATM    4  C   UNK N   1      29.224  17.950   7.419  0.00  0.00     0.079 C 
HETATM    5  C   UNK N   1      29.665  17.003   6.350  0.00  0.00     0.135 C 
HETATM    6  C   UNK N   1      31.090  14.881   6.405  0.00  0.00     0.018 C 
HETATM    7  C   UNK N   1      32.495  14.423   6.808  0.00  0.00     0.007 C 
HETATM    8  C   UNK N   1      33.032  14.907   8.193  0.00  0.00     0.002 C 
HETATM    9  C   UNK N   1      32.451  16.283   8.721  0.00  0.00    -0.004 C 
HETATM   10  C   UNK N   1      34.603  14.912   8.092  0.00  0.00    -0.013 C 
HETATM   11  C   UNK N   1      35.223  15.709   9.235  0.00  0.00    -0.034 C 
HETATM   12  C   UNK N   1      34.654  17.081   9.539  0.00  0.00     0.038 C 
HETATM   13  C   UNK N   1      33.469  17.419   8.614  0.00  0.00     0.010 C 
HETATM   14  C   UNK N   1      35.080  13.447   8.047  0.00  0.00     0.022 C 
HETATM   15  C   UNK N   1      36.580  13.320   8.239  0.00  0.00     0.087 C 
HETATM   16  C   UNK N   1      36.966  13.992   9.516  0.00  0.00     0.182 C 
HETATM   17  C   UNK N   1      36.299  15.253   9.920  0.00  0.00     0.114 C 
HETATM   18  O   UNK N   1      37.906  13.557  10.165  0.00  0.00    -0.290 OA
HETATM   19  O   UNK N   1      29.068  16.875   5.293  0.00  0.00    -0.297 OA
HETATM   20  C   UNK N   1      35.063  15.618   6.809  0.00  0.00     0.020 C 
HETATM   21  C   UNK N   1      32.032  17.144   5.800  0.00  0.00     0.024 C 
ENDROOT
BRANCH  17  22
HETATM   22  O   UNK N   1      36.806  15.969  10.942  0.00  0.00    -0.357 OA
HETATM   23  H   UNK N   1      37.613  16.436  10.840  0.00  0.00     0.218 HD
ENDBRANCH  17  22
TORSDOF 1
ENDMDL
MODEL 6
REMARK VINA RESULT:      -7.1     20.170     23.891
REMARK  1 active torsions:
REMARK  status: ('A' for Active; 'I' for Inactive)
REMARK    1  A    between atoms: C_17  and  O_20 
ROOT
HETATM    1  C   UNK N   1      36.057  12.948  11.430  0.00  0.00     0.021 C 
HETATM    2  C   UNK N   1      35.311  13.921  12.333  0.00  0.00     0.006 C 
HETATM    3  C   UNK N   1      35.851  15.299  11.970  0.00  0.00     0.013 C 
HETATM    4  C   UNK N   1      35.973  15.228  10.439  0.00  0.00     0.079 C 
HETATM    5  C   UNK N   1      36.142  13.763  10.195  0.00  0.00     0.135 C 
HETATM    6  C   UNK N   1      35.190  11.698  11.363  0.00  0.00     0.018 C 
HETATM    7  C   UNK N   1      35.167  11.041  12.747  0.00  0.00     0.007 C 
HETATM    8  C   UNK N   1      34.859  11.964  13.969  0.00  0.00     0.002 C 
HETATM    9  C   UNK N   1      35.262  13.487  13.808  0.00  0.00    -0.004 C 
HETATM   10  C   UNK N   1      35.528  11.290  15.225  0.00  0.00    -0.013 C 
HETATM   11  C   UNK N   1      35.616  12.270  16.390  0.00  0.00    -0.034 C 
HETATM   12  C   UNK N   1      36.159  13.659  16.116  0.00  0.00     0.038 C 
HETATM   13  C   UNK N   1      36.504  13.846  14.625  0.00  0.00     0.010 C 
HETATM   14  C   UNK N   1      34.726  10.018  15.563  0.00  0.00     0.022 C 
HETATM   15  C   UNK N   1      35.097   9.443  16.917  0.00  0.00     0.087 C 
HETATM   16  C   UNK N   1      34.927  10.500  17.958  0.00  0.00     0.182 C 
HETATM   17  C   UNK N   1      35.294  11.904  17.655  0.00  0.00     0.114 C 
HETATM   18  O   UNK N   1      34.590  10.183  19.089  0.00  0.00    -0.290 OA
HETATM   19  O   UNK N   1      36.472  13.307   9.112  0.00  0.00    -0.297 OA
HETATM   20  C   UNK N   1      36.978  10.891  14.920  0.00  0.00     0.020 C 
HETATM   21  C   UNK N   1      37.486  12.619  11.871  0.00  0.00     0.024 C 
ENDROOT
BRANCH  17  22
HETATM   22  O   UNK N   1      35.358  12.801  18.658  0.00  0.00    -0.357 OA
HETATM   23  H   UNK N   1      35.049  13.677  18.532  0.00  0.00     0.218 HD
ENDBRANCH  17  22
TORSDOF 1
ENDMDL
MODEL 7
REMARK VINA RESULT:      -6.9     11.626     14.224
REMARK  1 active torsions:
REMARK  status: ('A' for Active; 'I' for Inactive)
REMARK    1  A    between atoms: C_17  and  O_20 
ROOT
HETATM    1  C   UNK N   1      33.746  15.510   7.123  0.00  0.00     0.021 C 
HETATM    2  C   UNK N   1      33.513  16.723   8.013  0.00  0.00     0.006 C 
HETATM    3  C   UNK N   1      34.069  16.332   9.378  0.00  0.00     0.013 C 
HETATM    4  C   UNK N   1      35.356  15.572   9.018  0.00  0.00     0.079 C 
HETATM    5  C   UNK N   1      35.058  15.062   7.645  0.00  0.00     0.135 C 
HETATM    6  C   UNK N   1      33.723  16.036   5.694  0.00  0.00     0.018 C 
HETATM    7  C   UNK N   1      32.307  16.518   5.369  0.00  0.00     0.007 C 
HETATM    8  C   UNK N   1      31.621  17.465   6.406  0.00  0.00     0.002 C 
HETATM    9  C   UNK N   1      32.092  17.306   7.910  0.00  0.00    -0.004 C 
HETATM   10  C   UNK N   1      30.068  17.275   6.235  0.00  0.00    -0.013 C 
HETATM   11  C   UNK N   1      29.311  17.855   7.425  0.00  0.00    -0.034 C 
HETATM   12  C   UNK N   1      29.791  17.500   8.819  0.00  0.00     0.038 C 
HETATM   13  C   UNK N   1      31.044  16.603   8.773  0.00  0.00     0.010 C 
HETATM   14  C   UNK N   1      29.658  17.907   4.890  0.00  0.00     0.022 C 
HETATM   15  C   UNK N   1      28.153  18.040   4.748  0.00  0.00     0.087 C 
HETATM   16  C   UNK N   1      27.621  18.812   5.910  0.00  0.00     0.182 C 
HETATM   17  C   UNK N   1      28.194  18.605   7.262  0.00  0.00     0.114 C 
HETATM   18  O   UNK N   1      26.642  19.529   5.760  0.00  0.00    -0.290 OA
HETATM   19  O   UNK N   1      35.758  14.235   7.081  0.00  0.00    -0.297 OA
HETATM   20  C   UNK N   1      29.703  15.784   6.209  0.00  0.00     0.020 C 
HETATM   21  C   UNK N   1      32.751  14.363   7.316  0.00  0.00     0.024 C 
ENDROOT
BRANCH  17  22
HETATM   22  O   UNK N   1      27.563  19.124   8.333  0.00  0.00    -0.357 OA
HETATM   23  H   UNK N   1      28.012  19.213   9.151  0.00  0.00     0.218 HD
ENDBRANCH  17  22
TORSDOF 1
ENDMDL
MODEL 8
REMARK VINA RESULT:      -6.8     21.667     24.695
REMARK  1 active torsions:
REMARK  status: ('A' for Active; 'I' for Inactive)
REMARK    1  A    between atoms: C_17  and  O_20 
ROOT
HETATM    1  C   UNK N   1      36.604  11.882  12.062  0.00  0.00     0.021 C 
HETATM    2  C   UNK N   1      37.479  11.016  12.960  0.00  0.00     0.006 C 
HETATM    3  C   UNK N   1      37.609   9.685  12.230  0.00  0.00     0.013 C 
HETATM    4  C   UNK N   1      37.775  10.112  10.762  0.00  0.00     0.079 C 
HETATM    5  C   UNK N   1      37.093  11.442  10.733  0.00  0.00     0.135 C 
HETATM    6  C   UNK N   1      36.903  13.321  12.457  0.00  0.00     0.018 C 
HETATM    7  C   UNK N   1      36.392  13.557  13.881  0.00  0.00     0.007 C 
HETATM    8  C   UNK N   1      36.790  12.504  14.965  0.00  0.00     0.002 C 
HETATM    9  C   UNK N   1      37.060  11.035  14.440  0.00  0.00    -0.004 C 
HETATM   10  C   UNK N   1      35.675  12.555  16.076  0.00  0.00    -0.013 C 
HETATM   11  C   UNK N   1      35.752  11.333  16.985  0.00  0.00    -0.034 C 
HETATM   12  C   UNK N   1      35.866   9.967  16.336  0.00  0.00     0.038 C 
HETATM   13  C   UNK N   1      35.925  10.074  14.799  0.00  0.00     0.010 C 
HETATM   14  C   UNK N   1      35.826  13.886  16.839  0.00  0.00     0.022 C 
HETATM   15  C   UNK N   1      34.999  13.922  18.110  0.00  0.00     0.087 C 
HETATM   16  C   UNK N   1      35.363  12.750  18.961  0.00  0.00     0.182 C 
HETATM   17  C   UNK N   1      35.646  11.438  18.331  0.00  0.00     0.114 C 
HETATM   18  O   UNK N   1      35.316  12.852  20.178  0.00  0.00    -0.290 OA
HETATM   19  O   UNK N   1      36.831  12.029   9.695  0.00  0.00    -0.297 OA
HETATM   20  C   UNK N   1      34.277  12.506  15.446  0.00  0.00     0.020 C 
HETATM   21  C   UNK N   1      35.105  11.579  12.131  0.00  0.00     0.024 C 
ENDROOT
BRANCH  17  22
HETATM   22  O   UNK N   1      35.744  10.341  19.108  0.00  0.00    -0.357 OA
HETATM   23  H   UNK N   1      35.050   9.712  19.131  0.00  0.00     0.218 HD
ENDBRANCH  17  22
TORSDOF 1
ENDMDL
MODEL 9
REMARK VINA RESULT:      -6.7     12.954     17.037
REMARK  1 active torsions:
REMARK  status: ('A' for Active; 'I' for Inactive)
REMARK    1  A    between atoms: C_17  and  O_20 
ROOT
HETATM    1  C   UNK N   1      31.672  16.691   6.273  0.00  0.00     0.021 C 
HETATM    2  C   UNK N   1      33.116  17.113   6.035  0.00  0.00     0.006 C 
HETATM    3  C   UNK N   1      33.282  17.140   4.521  0.00  0.00     0.013 C 
HETATM    4  C   UNK N   1      31.956  17.753   4.041  0.00  0.00     0.079 C 
HETATM    5  C   UNK N   1      31.015  17.394   5.145  0.00  0.00     0.135 C 
HETATM    6  C   UNK N   1      31.325  17.176   7.674  0.00  0.00     0.018 C 
HETATM    7  C   UNK N   1      32.157  16.386   8.688  0.00  0.00     0.007 C 
HETATM    8  C   UNK N   1      33.691  16.272   8.417  0.00  0.00     0.002 C 
HETATM    9  C   UNK N   1      34.136  16.351   6.899  0.00  0.00    -0.004 C 
HETATM   10  C   UNK N   1      34.179  14.951   9.123  0.00  0.00    -0.013 C 
HETATM   11  C   UNK N   1      35.560  14.541   8.623  0.00  0.00    -0.034 C 
HETATM   12  C   UNK N   1      35.802  14.526   7.126  0.00  0.00     0.038 C 
HETATM   13  C   UNK N   1      34.555  14.988   6.347  0.00  0.00     0.010 C 
HETATM   14  C   UNK N   1      34.129  15.182  10.646  0.00  0.00     0.022 C 
HETATM   15  C   UNK N   1      34.843  14.090  11.420  0.00  0.00     0.087 C 
HETATM   16  C   UNK N   1      36.246  13.976  10.920  0.00  0.00     0.182 C 
HETATM   17  C   UNK N   1      36.531  14.127   9.472  0.00  0.00     0.114 C 
HETATM   18  O   UNK N   1      37.136  13.649  11.691  0.00  0.00    -0.290 OA
HETATM   19  O   UNK N   1      29.805  17.528   5.052  0.00  0.00    -0.297 OA
HETATM   20  C   UNK N   1      33.255  13.776   8.773  0.00  0.00     0.020 C 
HETATM   21  C   UNK N   1      31.399  15.193   6.112  0.00  0.00     0.024 C 
ENDROOT
BRANCH  17  22
HETATM   22  O   UNK N   1      37.749  13.796   9.002  0.00  0.00    -0.357 OA
HETATM   23  H   UNK N   1      38.183  14.348   8.381  0.00  0.00     0.218 HD
ENDBRANCH  17  22
TORSDOF 1
ENDMDL
