MODEL 1
REMARK VINA RESULT:      -8.7      0.000      0.000
REMARK  30 active torsions:
REMARK  status: ('A' for Active; 'I' for Inactive)
REMARK    1  A    between atoms: C_1  and  C_3 
REMARK       I    between atoms: N_2  and  C_6 
REMARK       I    between atoms: C_3  and  N_7 
REMARK    2  A    between atoms: C_6  and  C_10 
REMARK    3  A    between atoms: C_10  and  C_14 
REMARK    4  A    between atoms: C_10  and  N_15 
REMARK    5  A    between atoms: C_12  and  C_17 
REMARK    6  A    between atoms: C_14  and  C_19 
REMARK       I    between atoms: C_17  and  N_20 
REMARK    7  A    between atoms: C_19  and  C_22 
REMARK    8  A    between atoms: N_20  and  C_23 
REMARK    9  A    between atoms: C_22  and  N_24 
REMARK   10  A    between atoms: C_23  and  C_25 
REMARK       I    between atoms: N_24  and  C_26 
REMARK       I    between atoms: C_25  and  N_27 
REMARK       I    between atoms: C_26  and  N_29 
REMARK   11  A    between atoms: N_27  and  C_32 
REMARK   12  A    between atoms: C_32  and  C_33 
REMARK   13  A    between atoms: C_32  and  C_34 
REMARK   14  A    between atoms: C_33  and  C_35 
REMARK       I    between atoms: C_34  and  N_36 
REMARK   15  A    between atoms: N_36  and  C_40 
REMARK   16  A    between atoms: C_40  and  C_43 
REMARK   17  A    between atoms: C_40  and  C_44 
REMARK       I    between atoms: C_43  and  N_46 
REMARK   18  A    between atoms: C_44  and  O_48 
REMARK   19  A    between atoms: C_49  and  C_51 
REMARK       I    between atoms: C_51  and  N_54 
REMARK   20  A    between atoms: N_54  and  C_56 
REMARK   21  A    between atoms: C_56  and  C_57 
REMARK   22  A    between atoms: C_56  and  C_58 
REMARK   23  A    between atoms: C_57  and  C_59 
REMARK       I    between atoms: C_58  and  N_60 
REMARK   24  A    between atoms: N_60  and  C_64 
REMARK   25  A    between atoms: C_64  and  C_67 
REMARK   26  A    between atoms: C_64  and  C_68 
REMARK   27  A    between atoms: C_67  and  C_70 
REMARK   28  A    between atoms: C_68  and  O_71 
REMARK   29  A    between atoms: C_70  and  C_73 
REMARK   30  A    between atoms: C_73  and  N_74 
REMARK       I    between atoms: N_74  and  C_75 
REMARK       I    between atoms: C_75  and  N_76 
ROOT
HETATM    1  C   UNK N   1      26.590  15.252   4.766  0.00  0.00     0.241 C 
HETATM    2  N   UNK N   1      26.008  14.713   3.669  0.00  0.00    -0.344 N 
HETATM    3  O   UNK N   1      26.527  14.678   5.842  0.00  0.00    -0.271 OA
HETATM    4  H   UNK N   1      26.027  15.228   2.830  0.00  0.00     0.163 HD
ENDROOT
BRANCH   1   5
HETATM    5  C   UNK N   1      27.380  16.522   4.602  0.00  0.00     0.180 C 
BRANCH   5   6
HETATM    6  N   UNK N   1      28.823  16.459   4.438  0.00  0.00    -0.346 N 
HETATM    7  C   UNK N   1      29.478  15.981   3.349  0.00  0.00     0.236 C 
HETATM    8  O   UNK N   1      28.872  15.504   2.403  0.00  0.00    -0.272 OA
HETATM    9  H   UNK N   1      29.374  16.791   5.182  0.00  0.00     0.163 HD
BRANCH   7  10
HETATM   10  C   UNK N   1      30.973  16.036   3.315  0.00  0.00     0.225 C 
BRANCH  10  11
HETATM   11  N   UNK N   1      31.581  14.937   4.033  0.00  0.00    -0.351 N 
HETATM   12  C   UNK N   1      32.769  15.042   4.673  0.00  0.00     0.241 C 
HETATM   13  O   UNK N   1      33.398  16.092   4.640  0.00  0.00    -0.271 OA
HETATM   14  H   UNK N   1      31.110  14.074   4.057  0.00  0.00     0.163 HD
BRANCH  12  15
HETATM   15  C   UNK N   1      33.298  13.864   5.453  0.00  0.00     0.179 C 
HETATM   16  N   UNK N   1      34.656  14.122   5.851  0.00  0.00    -0.337 N 
HETATM   17  C   UNK N   1      35.027  14.430   7.129  0.00  0.00     0.243 C 
HETATM   18  C   UNK N   1      35.626  13.727   4.867  0.00  0.00     0.127 C 
HETATM   19  O   UNK N   1      36.215  14.540   7.404  0.00  0.00    -0.271 OA
HETATM   20  C   UNK N   1      34.846  12.835   3.904  0.00  0.00     0.022 C 
HETATM   21  C   UNK N   1      33.447  12.682   4.512  0.00  0.00     0.037 C 
BRANCH  17  22
HETATM   22  C   UNK N   1      34.001  14.552   8.239  0.00  0.00     0.179 C 
HETATM   23  N   UNK N   1      34.497  15.268   9.393  0.00  0.00    -0.337 N 
HETATM   24  C   UNK N   1      34.826  14.427  10.514  0.00  0.00     0.127 C 
HETATM   25  C   UNK N   1      34.529  16.631   9.508  0.00  0.00     0.242 C 
HETATM   26  C   UNK N   1      34.607  13.011  10.018  0.00  0.00     0.022 C 
HETATM   27  C   UNK N   1      33.730  13.153   8.778  0.00  0.00     0.037 C 
HETATM   28  O   UNK N   1      34.864  17.141  10.567  0.00  0.00    -0.271 OA
BRANCH  25  29
HETATM   29  C   UNK N   1      34.141  17.521   8.350  0.00  0.00     0.167 C 
BRANCH  29  30
HETATM   30  C   UNK N   1      32.689  17.986   8.394  0.00  0.00     0.036 C 
BRANCH  30  31
HETATM   31  C   UNK N   1      31.850  17.512   7.219  0.00  0.00     0.023 C 
BRANCH  31  32
HETATM   32  C   UNK N   1      30.859  16.521   7.792  0.00  0.00     0.138 C 
BRANCH  32  33
HETATM   33  N   UNK N   1      29.547  17.101   7.928  0.00  0.00    -0.227 N 
HETATM   34  C   UNK N   1      29.025  17.443   9.201  0.00  0.00     0.665 C 
HETATM   35  N   UNK N   1      27.831  18.189   9.287  0.00  0.00    -0.235 N 
HETATM   36  N   UNK N   1      29.676  17.162  10.271  0.00  0.00    -0.235 N 
HETATM   37  H   UNK N   1      27.222  18.205  10.062  0.00  0.00     0.174 HD
HETATM   38  H   UNK N   1      27.584  18.738   8.508  0.00  0.00     0.174 HD
HETATM   39  H   UNK N   1      30.504  16.632  10.314  0.00  0.00     0.174 HD
ATOM     40  HN  UNK N   1      29.303  17.518  11.151  1.00  0.00     0.174 HD
HETATM   41  H   UNK N   1      29.006  17.264   7.122  0.00  0.00     0.177 HD
ENDBRANCH  32  33
ENDBRANCH  31  32
ENDBRANCH  30  31
ENDBRANCH  29  30
BRANCH  29  42
HETATM   42  N   UNK N   1      34.969  18.710   8.398  0.00  0.00    -0.418 N 
HETATM   43  H   UNK N   1      35.956  18.959   8.353  0.00  0.00     0.150 HD
HETATM   44  H   UNK N   1      34.392  19.544   8.507  0.00  0.00     0.150 HD
ENDBRANCH  29  42
ENDBRANCH  25  29
ENDBRANCH  17  22
ENDBRANCH  12  15
ENDBRANCH  10  11
ENDBRANCH   7  10
ENDBRANCH   5   6
BRANCH   5  45
HETATM   45  C   UNK N   1      26.677  17.678   3.891  0.00  0.00     0.073 C 
BRANCH  45  46
HETATM   46  C   UNK N   1      26.761  18.968   4.638  0.00  0.00    -0.056 A 
HETATM   47  C   UNK N   1      26.169  20.126   4.125  0.00  0.00     0.007 A 
HETATM   48  C   UNK N   1      26.264  21.332   4.822  0.00  0.00     0.001 A 
HETATM   49  C   UNK N   1      26.960  21.386   6.032  0.00  0.00     0.000 A 
HETATM   50  C   UNK N   1      27.562  20.233   6.544  0.00  0.00     0.001 A 
HETATM   51  C   UNK N   1      27.466  19.025   5.846  0.00  0.00     0.007 A 
ENDBRANCH  45  46
ENDBRANCH   5  45
ENDBRANCH   1   5
BRANCH   2  52
HETATM   52  C   UNK N   1      25.359  13.422   3.665  0.00  0.00     0.200 C 
BRANCH  52  53
HETATM   53  C   UNK N   1      24.206  13.457   2.702  0.00  0.00     0.245 C 
HETATM   54  N   UNK N   1      23.152  12.604   2.837  0.00  0.00    -0.337 N 
HETATM   55  C   UNK N   1      23.097  11.570   3.842  0.00  0.00     0.179 A 
HETATM   56  C   UNK N   1      22.057  12.607   1.911  0.00  0.00     0.127 A 
HETATM   57  C   UNK N   1      21.854  10.759   3.500  0.00  0.00     0.037 A 
HETATM   58  C   UNK N   1      21.146  11.477   2.352  0.00  0.00     0.022 A 
HETATM   59  O   UNK N   1      24.223  14.263   1.778  0.00  0.00    -0.271 OA
BRANCH  55  60
HETATM   60  C   UNK N   1      22.981  12.077   5.260  0.00  0.00     0.241 C 
HETATM   61  N   UNK N   1      22.234  13.180   5.556  0.00  0.00    -0.346 N 
HETATM   62  H   UNK N   1      21.896  13.712   4.798  0.00  0.00     0.163 HD
HETATM   63  O   UNK N   1      23.548  11.453   6.145  0.00  0.00    -0.271 OA
BRANCH  61  64
HETATM   64  C   UNK N   1      21.890  13.638   6.899  0.00  0.00     0.180 C 
BRANCH  64  65
HETATM   65  C   UNK N   1      23.095  13.968   7.793  0.00  0.00     0.073 C 
BRANCH  65  66
HETATM   66  C   UNK N   1      23.206  13.266   9.098  0.00  0.00    -0.056 A 
HETATM   67  C   UNK N   1      22.087  12.965   9.883  0.00  0.00     0.007 A 
HETATM   68  C   UNK N   1      22.250  12.287  11.092  0.00  0.00     0.001 A 
HETATM   69  C   UNK N   1      23.527  11.907  11.516  0.00  0.00     0.000 A 
HETATM   70  C   UNK N   1      24.644  12.208  10.733  0.00  0.00     0.001 A 
HETATM   71  C   UNK N   1      24.481  12.887   9.525  0.00  0.00     0.007 A 
ENDBRANCH  65  66
ENDBRANCH  64  65
BRANCH  64  72
HETATM   72  C   UNK N   1      21.054  14.872   6.942  0.00  0.00     0.241 C 
HETATM   73  N   UNK N   1      21.744  16.029   7.064  0.00  0.00    -0.345 N 
HETATM   74  H   UNK N   1      22.238  16.216   7.894  0.00  0.00     0.163 HD
HETATM   75  O   UNK N   1      19.969  14.868   6.376  0.00  0.00    -0.271 OA
BRANCH  73  76
HETATM   76  C   UNK N   1      21.761  16.987   5.988  0.00  0.00     0.182 C 
BRANCH  76  77
HETATM   77  C   UNK N   1      23.182  17.033   5.436  0.00  0.00     0.038 C 
BRANCH  77  78
HETATM   78  C   UNK N   1      23.181  17.051   3.918  0.00  0.00     0.023 C 
BRANCH  78  79
HETATM   79  C   UNK N   1      21.917  16.410   3.360  0.00  0.00     0.138 C 
BRANCH  79  80
HETATM   80  N   UNK N   1      21.060  17.407   2.762  0.00  0.00    -0.227 N 
HETATM   81  C   UNK N   1      19.665  17.448   3.017  0.00  0.00     0.665 C 
HETATM   82  N   UNK N   1      18.861  18.400   2.355  0.00  0.00    -0.235 N 
HETATM   83  N   UNK N   1      19.129  16.634   3.851  0.00  0.00    -0.235 N 
HETATM   84  H   UNK N   1      17.977  18.730   2.633  0.00  0.00     0.174 HD
HETATM   85  H   UNK N   1      19.226  18.776   1.521  0.00  0.00     0.174 HD
HETATM   86  H   UNK N   1      19.651  16.067   4.463  0.00  0.00     0.174 HD
ATOM     87  HN  UNK N   1      18.111  16.572   3.882  1.00  0.00     0.174 HD
HETATM   88  H   UNK N   1      21.456  18.077   2.160  0.00  0.00     0.177 HD
ENDBRANCH  79  80
ENDBRANCH  78  79
ENDBRANCH  77  78
ENDBRANCH  76  77
BRANCH  76  89
HETATM   89  C   UNK N   1      21.226  18.322   6.385  0.00  0.00     0.163 C 
HETATM   90  O   UNK N   1      20.931  18.559   7.545  0.00  0.00    -0.648 OA
BRANCH  89  91
HETATM   91  O   UNK N   1      21.170  19.302   5.469  0.00  0.00    -0.775 OA
HETATM   92  H   UNK N   1      21.685  20.041   5.210  0.00  0.00     0.167 HD
ENDBRANCH  89  91
ENDBRANCH  76  89
ENDBRANCH  73  76
ENDBRANCH  64  72
ENDBRANCH  61  64
ENDBRANCH  55  60
ENDBRANCH  52  53
BRANCH  52  93
HETATM   93  C   UNK N   1      26.355  12.319   3.301  0.00  0.00     0.199 C 
BRANCH  93  94
HETATM   94  O   UNK N   1      26.459  12.173   1.916  0.00  0.00    -0.398 OA
HETATM   95  H   UNK N   1      26.151  12.707   1.168  0.00  0.00     0.209 HD
ENDBRANCH  93  94
ENDBRANCH  52  93
ENDBRANCH   2  52
TORSDOF 30
ENDMDL
MODEL 2
REMARK VINA RESULT:      -8.6      2.914     11.102
REMARK  30 active torsions:
REMARK  status: ('A' for Active; 'I' for Inactive)
REMARK    1  A    between atoms: C_1  and  C_3 
REMARK       I    between atoms: N_2  and  C_6 
REMARK       I    between atoms: C_3  and  N_7 
REMARK    2  A    between atoms: C_6  and  C_10 
REMARK    3  A    between atoms: C_10  and  C_14 
REMARK    4  A    between atoms: C_10  and  N_15 
REMARK    5  A    between atoms: C_12  and  C_17 
REMARK    6  A    between atoms: C_14  and  C_19 
REMARK       I    between atoms: C_17  and  N_20 
REMARK    7  A    between atoms: C_19  and  C_22 
REMARK    8  A    between atoms: N_20  and  C_23 
REMARK    9  A    between atoms: C_22  and  N_24 
REMARK   10  A    between atoms: C_23  and  C_25 
REMARK       I    between atoms: N_24  and  C_26 
REMARK       I    between atoms: C_25  and  N_27 
REMARK       I    between atoms: C_26  and  N_29 
REMARK   11  A    between atoms: N_27  and  C_32 
REMARK   12  A    between atoms: C_32  and  C_33 
REMARK   13  A    between atoms: C_32  and  C_34 
REMARK   14  A    between atoms: C_33  and  C_35 
REMARK       I    between atoms: C_34  and  N_36 
REMARK   15  A    between atoms: N_36  and  C_40 
REMARK   16  A    between atoms: C_40  and  C_43 
REMARK   17  A    between atoms: C_40  and  C_44 
REMARK       I    between atoms: C_43  and  N_46 
REMARK   18  A    between atoms: C_44  and  O_48 
REMARK   19  A    between atoms: C_49  and  C_51 
REMARK       I    between atoms: C_51  and  N_54 
REMARK   20  A    between atoms: N_54  and  C_56 
REMARK   21  A    between atoms: C_56  and  C_57 
REMARK   22  A    between atoms: C_56  and  C_58 
REMARK   23  A    between atoms: C_57  and  C_59 
REMARK       I    between atoms: C_58  and  N_60 
REMARK   24  A    between atoms: N_60  and  C_64 
REMARK   25  A    between atoms: C_64  and  C_67 
REMARK   26  A    between atoms: C_64  and  C_68 
REMARK   27  A    between atoms: C_67  and  C_70 
REMARK   28  A    between atoms: C_68  and  O_71 
REMARK   29  A    between atoms: C_70  and  C_73 
REMARK   30  A    between atoms: C_73  and  N_74 
REMARK       I    between atoms: N_74  and  C_75 
REMARK       I    between atoms: C_75  and  N_76 
ROOT
HETATM    1  C   UNK N   1      23.094  14.951   6.569  0.00  0.00     0.241 C 
HETATM    2  N   UNK N   1      21.834  15.426   6.434  0.00  0.00    -0.344 N 
HETATM    3  O   UNK N   1      24.052  15.699   6.450  0.00  0.00    -0.271 OA
HETATM    4  H   UNK N   1      21.086  14.788   6.478  0.00  0.00     0.163 HD
ENDROOT
BRANCH   1   5
HETATM    5  C   UNK N   1      23.273  13.506   6.952  0.00  0.00     0.180 C 
BRANCH   5   6
HETATM    6  N   UNK N   1      23.078  12.466   5.956  0.00  0.00    -0.346 N 
HETATM    7  C   UNK N   1      23.894  12.215   4.900  0.00  0.00     0.236 C 
HETATM    8  O   UNK N   1      24.871  12.910   4.675  0.00  0.00    -0.272 OA
HETATM    9  H   UNK N   1      22.285  11.892   6.055  0.00  0.00     0.163 HD
BRANCH   7  10
HETATM   10  C   UNK N   1      23.581  11.067   3.993  0.00  0.00     0.225 C 
BRANCH  10  11
HETATM   11  N   UNK N   1      22.213  11.094   3.522  0.00  0.00    -0.351 N 
HETATM   12  C   UNK N   1      21.578  10.000   3.041  0.00  0.00     0.241 C 
HETATM   13  O   UNK N   1      22.166   8.929   2.961  0.00  0.00    -0.271 OA
HETATM   14  H   UNK N   1      21.722  11.946   3.553  0.00  0.00     0.163 HD
BRANCH  12  15
HETATM   15  C   UNK N   1      20.129  10.104   2.633  0.00  0.00     0.179 C 
HETATM   16  N   UNK N   1      19.529  11.241   3.277  0.00  0.00    -0.337 N 
HETATM   17  C   UNK N   1      19.221  12.405   2.631  0.00  0.00     0.243 C 
HETATM   18  C   UNK N   1      18.995  10.948   4.578  0.00  0.00     0.127 C 
HETATM   19  O   UNK N   1      18.623  13.290   3.229  0.00  0.00    -0.271 OA
HETATM   20  C   UNK N   1      18.949   9.422   4.632  0.00  0.00     0.022 C 
HETATM   21  C   UNK N   1      19.366   8.940   3.238  0.00  0.00     0.037 C 
BRANCH  17  22
HETATM   22  C   UNK N   1      19.526  12.592   1.157  0.00  0.00     0.179 C 
HETATM   23  N   UNK N   1      19.747  13.973   0.794  0.00  0.00    -0.337 N 
HETATM   24  C   UNK N   1      18.646  14.586   0.098  0.00  0.00     0.127 C 
HETATM   25  C   UNK N   1      20.934  14.638   0.946  0.00  0.00     0.242 C 
HETATM   26  C   UNK N   1      17.559  13.528   0.078  0.00  0.00     0.022 C 
HETATM   27  C   UNK N   1      18.276  12.214   0.371  0.00  0.00     0.037 C 
HETATM   28  O   UNK N   1      21.052  15.772   0.508  0.00  0.00    -0.271 OA
BRANCH  25  29
HETATM   29  C   UNK N   1      22.110  13.985   1.635  0.00  0.00     0.167 C 
BRANCH  29  30
HETATM   30  C   UNK N   1      23.390  13.997   0.807  0.00  0.00     0.036 C 
BRANCH  30  31
HETATM   31  C   UNK N   1      23.405  12.986  -0.327  0.00  0.00     0.023 C 
BRANCH  31  32
HETATM   32  C   UNK N   1      23.888  11.687   0.284  0.00  0.00     0.138 C 
BRANCH  32  33
HETATM   33  N   UNK N   1      25.197  11.831   0.868  0.00  0.00    -0.227 N 
HETATM   34  C   UNK N   1      26.024  10.703   1.104  0.00  0.00     0.665 C 
HETATM   35  N   UNK N   1      27.368  10.892   1.487  0.00  0.00    -0.235 N 
HETATM   36  N   UNK N   1      25.588   9.516   0.881  0.00  0.00    -0.235 N 
HETATM   37  H   UNK N   1      27.921  10.237   1.973  0.00  0.00     0.174 HD
HETATM   38  H   UNK N   1      27.790  11.750   1.249  0.00  0.00     0.174 HD
HETATM   39  H   UNK N   1      24.665   9.284   0.630  0.00  0.00     0.174 HD
ATOM     40  HN  UNK N   1      26.255   8.750   0.972  1.00  0.00     0.174 HD
HETATM   41  H   UNK N   1      25.523  12.729   1.107  0.00  0.00     0.177 HD
ENDBRANCH  32  33
ENDBRANCH  31  32
ENDBRANCH  30  31
ENDBRANCH  29  30
BRANCH  29  42
HETATM   42  N   UNK N   1      22.385  14.722   2.853  0.00  0.00    -0.418 N 
HETATM   43  H   UNK N   1      22.173  15.631   3.263  0.00  0.00     0.150 HD
HETATM   44  H   UNK N   1      22.959  14.166   3.487  0.00  0.00     0.150 HD
ENDBRANCH  29  42
ENDBRANCH  25  29
ENDBRANCH  17  22
ENDBRANCH  12  15
ENDBRANCH  10  11
ENDBRANCH   7  10
ENDBRANCH   5   6
BRANCH   5  45
HETATM   45  C   UNK N   1      24.310  13.210   8.034  0.00  0.00     0.073 C 
BRANCH  45  46
HETATM   46  C   UNK N   1      23.703  12.804   9.337  0.00  0.00    -0.056 A 
HETATM   47  C   UNK N   1      24.511  12.368  10.392  0.00  0.00     0.007 A 
HETATM   48  C   UNK N   1      23.936  11.976  11.602  0.00  0.00     0.001 A 
HETATM   49  C   UNK N   1      22.548  12.012  11.759  0.00  0.00     0.000 A 
HETATM   50  C   UNK N   1      21.736  12.439  10.704  0.00  0.00     0.001 A 
HETATM   51  C   UNK N   1      22.313  12.831   9.492  0.00  0.00     0.007 A 
ENDBRANCH  45  46
ENDBRANCH   5  45
ENDBRANCH   1   5
BRANCH   2  52
HETATM   52  C   UNK N   1      21.529  16.823   6.224  0.00  0.00     0.200 C 
BRANCH  52  53
HETATM   53  C   UNK N   1      20.672  16.959   4.998  0.00  0.00     0.245 C 
HETATM   54  N   UNK N   1      20.941  17.905   4.054  0.00  0.00    -0.337 N 
HETATM   55  C   UNK N   1      21.994  18.882   4.193  0.00  0.00     0.179 A 
HETATM   56  C   UNK N   1      20.118  18.064   2.890  0.00  0.00     0.127 A 
HETATM   57  C   UNK N   1      21.803  19.831   3.018  0.00  0.00     0.037 A 
HETATM   58  C   UNK N   1      20.691  19.253   2.144  0.00  0.00     0.022 A 
HETATM   59  O   UNK N   1      19.715  16.207   4.851  0.00  0.00    -0.271 OA
BRANCH  55  60
HETATM   60  C   UNK N   1      23.391  18.311   4.144  0.00  0.00     0.241 C 
HETATM   61  N   UNK N   1      24.468  19.045   4.549  0.00  0.00    -0.346 N 
HETATM   62  H   UNK N   1      24.318  20.001   4.733  0.00  0.00     0.163 HD
HETATM   63  O   UNK N   1      23.531  17.158   3.763  0.00  0.00    -0.271 OA
BRANCH  61  64
HETATM   64  C   UNK N   1      25.823  18.535   4.733  0.00  0.00     0.180 C 
BRANCH  64  65
HETATM   65  C   UNK N   1      26.619  18.339   3.434  0.00  0.00     0.073 C 
BRANCH  65  66
HETATM   66  C   UNK N   1      27.050  16.961   3.083  0.00  0.00    -0.056 A 
HETATM   67  C   UNK N   1      26.136  15.951   2.758  0.00  0.00     0.007 A 
HETATM   68  C   UNK N   1      26.600  14.679   2.418  0.00  0.00     0.001 A 
HETATM   69  C   UNK N   1      27.973  14.416   2.399  0.00  0.00     0.000 A 
HETATM   70  C   UNK N   1      28.885  15.424   2.724  0.00  0.00     0.001 A 
HETATM   71  C   UNK N   1      28.421  16.694   3.065  0.00  0.00     0.007 A 
ENDBRANCH  65  66
ENDBRANCH  64  65
BRANCH  64  72
HETATM   72  C   UNK N   1      26.705  19.395   5.575  0.00  0.00     0.241 C 
HETATM   73  N   UNK N   1      26.932  18.934   6.825  0.00  0.00    -0.345 N 
HETATM   74  H   UNK N   1      26.191  18.892   7.471  0.00  0.00     0.163 HD
HETATM   75  O   UNK N   1      27.543  20.096   5.024  0.00  0.00    -0.271 OA
BRANCH  73  76
HETATM   76  C   UNK N   1      28.250  18.503   7.218  0.00  0.00     0.182 C 
BRANCH  76  77
HETATM   77  C   UNK N   1      28.519  17.166   6.536  0.00  0.00     0.038 C 
BRANCH  77  78
HETATM   78  C   UNK N   1      29.905  17.134   5.916  0.00  0.00     0.023 C 
BRANCH  78  79
HETATM   79  C   UNK N   1      30.872  16.326   6.771  0.00  0.00     0.138 C 
BRANCH  79  80
HETATM   80  N   UNK N   1      32.177  16.945   6.790  0.00  0.00    -0.227 N 
HETATM   81  C   UNK N   1      32.690  17.581   7.949  0.00  0.00     0.665 C 
HETATM   82  N   UNK N   1      33.942  18.230   7.895  0.00  0.00    -0.235 N 
HETATM   83  N   UNK N   1      32.031  17.563   9.050  0.00  0.00    -0.235 N 
HETATM   84  H   UNK N   1      34.534  18.448   8.651  0.00  0.00     0.174 HD
HETATM   85  H   UNK N   1      34.258  18.495   7.001  0.00  0.00     0.174 HD
HETATM   86  H   UNK N   1      31.243  16.992   9.197  0.00  0.00     0.174 HD
ATOM     87  HN  UNK N   1      32.339  18.171   9.809  1.00  0.00     0.174 HD
HETATM   88  H   UNK N   1      32.726  16.925   5.973  0.00  0.00     0.177 HD
ENDBRANCH  79  80
ENDBRANCH  78  79
ENDBRANCH  77  78
ENDBRANCH  76  77
BRANCH  76  89
HETATM   89  C   UNK N   1      28.439  18.473   8.698  0.00  0.00     0.163 C 
HETATM   90  O   UNK N   1      29.458  18.908   9.208  0.00  0.00    -0.648 OA
BRANCH  89  91
HETATM   91  O   UNK N   1      27.428  18.057   9.477  0.00  0.00    -0.775 OA
HETATM   92  H   UNK N   1      26.915  18.391  10.186  0.00  0.00     0.167 HD
ENDBRANCH  89  91
ENDBRANCH  76  89
ENDBRANCH  73  76
ENDBRANCH  64  72
ENDBRANCH  61  64
ENDBRANCH  55  60
ENDBRANCH  52  53
BRANCH  52  93
HETATM   93  C   UNK N   1      20.836  17.414   7.455  0.00  0.00     0.199 C 
BRANCH  93  94
HETATM   94  O   UNK N   1      19.673  16.706   7.763  0.00  0.00    -0.398 OA
HETATM   95  H   UNK N   1      19.044  16.751   8.500  0.00  0.00     0.209 HD
ENDBRANCH  93  94
ENDBRANCH  52  93
ENDBRANCH   2  52
TORSDOF 30
ENDMDL
MODEL 3
REMARK VINA RESULT:      -8.5      3.482      9.205
REMARK  30 active torsions:
REMARK  status: ('A' for Active; 'I' for Inactive)
REMARK    1  A    between atoms: C_1  and  C_3 
REMARK       I    between atoms: N_2  and  C_6 
REMARK       I    between atoms: C_3  and  N_7 
REMARK    2  A    between atoms: C_6  and  C_10 
REMARK    3  A    between atoms: C_10  and  C_14 
REMARK    4  A    between atoms: C_10  and  N_15 
REMARK    5  A    between atoms: C_12  and  C_17 
REMARK    6  A    between atoms: C_14  and  C_19 
REMARK       I    between atoms: C_17  and  N_20 
REMARK    7  A    between atoms: C_19  and  C_22 
REMARK    8  A    between atoms: N_20  and  C_23 
REMARK    9  A    between atoms: C_22  and  N_24 
REMARK   10  A    between atoms: C_23  and  C_25 
REMARK       I    between atoms: N_24  and  C_26 
REMARK       I    between atoms: C_25  and  N_27 
REMARK       I    between atoms: C_26  and  N_29 
REMARK   11  A    between atoms: N_27  and  C_32 
REMARK   12  A    between atoms: C_32  and  C_33 
REMARK   13  A    between atoms: C_32  and  C_34 
REMARK   14  A    between atoms: C_33  and  C_35 
REMARK       I    between atoms: C_34  and  N_36 
REMARK   15  A    between atoms: N_36  and  C_40 
REMARK   16  A    between atoms: C_40  and  C_43 
REMARK   17  A    between atoms: C_40  and  C_44 
REMARK       I    between atoms: C_43  and  N_46 
REMARK   18  A    between atoms: C_44  and  O_48 
REMARK   19  A    between atoms: C_49  and  C_51 
REMARK       I    between atoms: C_51  and  N_54 
REMARK   20  A    between atoms: N_54  and  C_56 
REMARK   21  A    between atoms: C_56  and  C_57 
REMARK   22  A    between atoms: C_56  and  C_58 
REMARK   23  A    between atoms: C_57  and  C_59 
REMARK       I    between atoms: C_58  and  N_60 
REMARK   24  A    between atoms: N_60  and  C_64 
REMARK   25  A    between atoms: C_64  and  C_67 
REMARK   26  A    between atoms: C_64  and  C_68 
REMARK   27  A    between atoms: C_67  and  C_70 
REMARK   28  A    between atoms: C_68  and  O_71 
REMARK   29  A    between atoms: C_70  and  C_73 
REMARK   30  A    between atoms: C_73  and  N_74 
REMARK       I    between atoms: N_74  and  C_75 
REMARK       I    between atoms: C_75  and  N_76 
ROOT
HETATM    1  C   UNK N   1      21.951  14.314   6.549  0.00  0.00     0.241 C 
HETATM    2  N   UNK N   1      20.648  14.672   6.615  0.00  0.00    -0.344 N 
HETATM    3  O   UNK N   1      22.742  14.981   5.899  0.00  0.00    -0.271 OA
HETATM    4  H   UNK N   1      20.026  14.082   7.100  0.00  0.00     0.163 HD
ENDROOT
BRANCH   1   5
HETATM    5  C   UNK N   1      22.408  13.131   7.360  0.00  0.00     0.180 C 
BRANCH   5   6
HETATM    6  N   UNK N   1      22.443  11.811   6.755  0.00  0.00    -0.346 N 
HETATM    7  C   UNK N   1      21.396  11.179   6.164  0.00  0.00     0.236 C 
HETATM    8  O   UNK N   1      20.284  11.682   6.142  0.00  0.00    -0.272 OA
HETATM    9  H   UNK N   1      23.302  11.331   6.774  0.00  0.00     0.163 HD
BRANCH   7  10
HETATM   10  C   UNK N   1      21.612   9.838   5.537  0.00  0.00     0.225 C 
BRANCH  10  11
HETATM   11  N   UNK N   1      22.920   9.296   5.832  0.00  0.00    -0.351 N 
HETATM   12  C   UNK N   1      23.929   9.273   4.930  0.00  0.00     0.241 C 
HETATM   13  O   UNK N   1      23.752   9.696   3.795  0.00  0.00    -0.271 OA
HETATM   14  H   UNK N   1      23.085   8.927   6.730  0.00  0.00     0.163 HD
BRANCH  12  15
HETATM   15  C   UNK N   1      25.282   8.749   5.344  0.00  0.00     0.179 C 
HETATM   16  N   UNK N   1      25.915   8.113   4.221  0.00  0.00    -0.337 N 
HETATM   17  C   UNK N   1      26.954   8.662   3.523  0.00  0.00     0.243 C 
HETATM   18  C   UNK N   1      25.576   6.723   4.083  0.00  0.00     0.127 C 
HETATM   19  O   UNK N   1      27.500   8.013   2.640  0.00  0.00    -0.271 OA
HETATM   20  C   UNK N   1      24.940   6.355   5.421  0.00  0.00     0.022 C 
HETATM   21  C   UNK N   1      25.085   7.596   6.311  0.00  0.00     0.037 C 
BRANCH  17  22
HETATM   22  C   UNK N   1      27.507  10.028   3.879  0.00  0.00     0.179 C 
HETATM   23  N   UNK N   1      28.054  10.732   2.742  0.00  0.00    -0.337 N 
HETATM   24  C   UNK N   1      29.493  10.752   2.693  0.00  0.00     0.127 C 
HETATM   25  C   UNK N   1      27.315  11.456   1.845  0.00  0.00     0.242 C 
HETATM   26  C   UNK N   1      29.934   9.902   3.869  0.00  0.00     0.022 C 
HETATM   27  C   UNK N   1      28.715   9.821   4.784  0.00  0.00     0.037 C 
HETATM   28  O   UNK N   1      27.881  12.106   0.980  0.00  0.00    -0.271 OA
BRANCH  25  29
HETATM   29  C   UNK N   1      25.806  11.478   1.917  0.00  0.00     0.167 C 
BRANCH  29  30
HETATM   30  C   UNK N   1      25.188  12.787   1.438  0.00  0.00     0.036 C 
BRANCH  30  31
HETATM   31  C   UNK N   1      24.152  12.619   0.339  0.00  0.00     0.023 C 
BRANCH  31  32
HETATM   32  C   UNK N   1      23.035  13.585   0.674  0.00  0.00     0.138 C 
BRANCH  32  33
HETATM   33  N   UNK N   1      21.858  12.895   1.138  0.00  0.00    -0.227 N 
HETATM   34  C   UNK N   1      21.586  12.759   2.522  0.00  0.00     0.665 C 
HETATM   35  N   UNK N   1      20.335  12.259   2.941  0.00  0.00    -0.235 N 
HETATM   36  N   UNK N   1      22.429  13.174   3.398  0.00  0.00    -0.235 N 
HETATM   37  H   UNK N   1      20.154  11.830   3.809  0.00  0.00     0.174 HD
HETATM   38  H   UNK N   1      19.581  12.345   2.314  0.00  0.00     0.174 HD
HETATM   39  H   UNK N   1      23.330  13.520   3.205  0.00  0.00     0.174 HD
ATOM     40  HN  UNK N   1      22.140  13.142   4.375  1.00  0.00     0.174 HD
HETATM   41  H   UNK N   1      21.233  12.512   0.481  0.00  0.00     0.177 HD
ENDBRANCH  32  33
ENDBRANCH  31  32
ENDBRANCH  30  31
ENDBRANCH  29  30
BRANCH  29  42
HETATM   42  N   UNK N   1      25.298  10.428   1.055  0.00  0.00    -0.418 N 
HETATM   43  H   UNK N   1      25.655   9.743   0.390  0.00  0.00     0.150 HD
HETATM   44  H   UNK N   1      24.284  10.352   1.142  0.00  0.00     0.150 HD
ENDBRANCH  29  42
ENDBRANCH  25  29
ENDBRANCH  17  22
ENDBRANCH  12  15
ENDBRANCH  10  11
ENDBRANCH   7  10
ENDBRANCH   5   6
BRANCH   5  45
HETATM   45  C   UNK N   1      23.464  13.404   8.430  0.00  0.00     0.073 C 
BRANCH  45  46
HETATM   46  C   UNK N   1      23.112  12.834   9.765  0.00  0.00    -0.056 A 
HETATM   47  C   UNK N   1      21.777  12.752  10.173  0.00  0.00     0.007 A 
HETATM   48  C   UNK N   1      21.457  12.232  11.428  0.00  0.00     0.001 A 
HETATM   49  C   UNK N   1      22.473  11.800  12.285  0.00  0.00     0.000 A 
HETATM   50  C   UNK N   1      23.809  11.890  11.885  0.00  0.00     0.001 A 
HETATM   51  C   UNK N   1      24.129  12.411  10.627  0.00  0.00     0.007 A 
ENDBRANCH  45  46
ENDBRANCH   5  45
ENDBRANCH   1   5
BRANCH   2  52
HETATM   52  C   UNK N   1      20.121  15.875   6.011  0.00  0.00     0.200 C 
BRANCH  52  53
HETATM   53  C   UNK N   1      19.796  15.597   4.571  0.00  0.00     0.245 C 
HETATM   54  N   UNK N   1      20.120  16.488   3.593  0.00  0.00    -0.337 N 
HETATM   55  C   UNK N   1      20.713  17.776   3.863  0.00  0.00     0.179 A 
HETATM   56  C   UNK N   1      19.793  16.249   2.217  0.00  0.00     0.127 A 
HETATM   57  C   UNK N   1      20.720  18.491   2.519  0.00  0.00     0.037 A 
HETATM   58  C   UNK N   1      20.240  17.491   1.470  0.00  0.00     0.022 A 
HETATM   59  O   UNK N   1      19.224  14.552   4.278  0.00  0.00    -0.271 OA
BRANCH  55  60
HETATM   60  C   UNK N   1      22.124  17.717   4.398  0.00  0.00     0.241 C 
HETATM   61  N   UNK N   1      23.123  17.113   3.691  0.00  0.00    -0.346 N 
HETATM   62  H   UNK N   1      22.861  16.595   2.895  0.00  0.00     0.163 HD
HETATM   63  O   UNK N   1      22.357  18.256   5.471  0.00  0.00    -0.271 OA
BRANCH  61  64
HETATM   64  C   UNK N   1      24.545  17.172   4.012  0.00  0.00     0.180 C 
BRANCH  64  65
HETATM   65  C   UNK N   1      25.459  16.430   3.024  0.00  0.00     0.073 C 
BRANCH  65  66
HETATM   66  C   UNK N   1      26.451  15.473   3.578  0.00  0.00    -0.056 A 
HETATM   67  C   UNK N   1      27.742  15.345   3.050  0.00  0.00     0.007 A 
HETATM   68  C   UNK N   1      28.638  14.441   3.623  0.00  0.00     0.001 A 
HETATM   69  C   UNK N   1      28.249  13.669   4.721  0.00  0.00     0.000 A 
HETATM   70  C   UNK N   1      26.961  13.796   5.247  0.00  0.00     0.001 A 
HETATM   71  C   UNK N   1      26.064  14.698   4.674  0.00  0.00     0.007 A 
ENDBRANCH  65  66
ENDBRANCH  64  65
BRANCH  64  72
HETATM   72  C   UNK N   1      25.115  18.549   4.074  0.00  0.00     0.241 C 
HETATM   73  N   UNK N   1      25.477  18.966   5.307  0.00  0.00    -0.345 N 
HETATM   74  H   UNK N   1      24.787  19.116   5.993  0.00  0.00     0.163 HD
HETATM   75  O   UNK N   1      25.692  18.991   3.089  0.00  0.00    -0.271 OA
BRANCH  73  76
HETATM   76  C   UNK N   1      26.864  19.194   5.626  0.00  0.00     0.182 C 
BRANCH  76  77
HETATM   77  C   UNK N   1      27.465  17.855   6.039  0.00  0.00     0.038 C 
BRANCH  77  78
HETATM   78  C   UNK N   1      28.883  17.704   5.516  0.00  0.00     0.023 C 
BRANCH  78  79
HETATM   79  C   UNK N   1      29.845  17.321   6.633  0.00  0.00     0.138 C 
BRANCH  79  80
HETATM   80  N   UNK N   1      29.415  17.884   7.891  0.00  0.00    -0.227 N 
HETATM   81  C   UNK N   1      30.324  18.131   8.953  0.00  0.00     0.665 C 
HETATM   82  N   UNK N   1      29.842  18.619  10.186  0.00  0.00    -0.235 N 
HETATM   83  N   UNK N   1      31.580  17.924   8.798  0.00  0.00    -0.235 N 
HETATM   84  H   UNK N   1      30.354  19.094  10.880  0.00  0.00     0.174 HD
HETATM   85  H   UNK N   1      28.888  18.467  10.374  0.00  0.00     0.174 HD
HETATM   86  H   UNK N   1      31.994  17.747   7.923  0.00  0.00     0.174 HD
ATOM     87  HN  UNK N   1      32.180  17.943   9.623  1.00  0.00     0.174 HD
HETATM   88  H   UNK N   1      28.464  18.102   8.016  0.00  0.00     0.177 HD
ENDBRANCH  79  80
ENDBRANCH  78  79
ENDBRANCH  77  78
ENDBRANCH  76  77
BRANCH  76  89
HETATM   89  C   UNK N   1      27.063  20.279   6.630  0.00  0.00     0.163 C 
HETATM   90  O   UNK N   1      27.135  21.447   6.285  0.00  0.00    -0.648 OA
BRANCH  89  91
HETATM   91  O   UNK N   1      27.059  19.969   7.936  0.00  0.00    -0.775 OA
HETATM   92  H   UNK N   1      26.616  19.373   8.507  0.00  0.00     0.167 HD
ENDBRANCH  89  91
ENDBRANCH  76  89
ENDBRANCH  73  76
ENDBRANCH  64  72
ENDBRANCH  61  64
ENDBRANCH  55  60
ENDBRANCH  52  53
BRANCH  52  93
HETATM   93  C   UNK N   1      18.890  16.366   6.775  0.00  0.00     0.199 C 
BRANCH  93  94
HETATM   94  O   UNK N   1      17.712  15.983   6.129  0.00  0.00    -0.398 OA
HETATM   95  H   UNK N   1      17.289  16.260   5.301  0.00  0.00     0.209 HD
ENDBRANCH  93  94
ENDBRANCH  52  93
ENDBRANCH   2  52
TORSDOF 30
ENDMDL
MODEL 4
REMARK VINA RESULT:      -8.5      3.211      6.297
REMARK  30 active torsions:
REMARK  status: ('A' for Active; 'I' for Inactive)
REMARK    1  A    between atoms: C_1  and  C_3 
REMARK       I    between atoms: N_2  and  C_6 
REMARK       I    between atoms: C_3  and  N_7 
REMARK    2  A    between atoms: C_6  and  C_10 
REMARK    3  A    between atoms: C_10  and  C_14 
REMARK    4  A    between atoms: C_10  and  N_15 
REMARK    5  A    between atoms: C_12  and  C_17 
REMARK    6  A    between atoms: C_14  and  C_19 
REMARK       I    between atoms: C_17  and  N_20 
REMARK    7  A    between atoms: C_19  and  C_22 
REMARK    8  A    between atoms: N_20  and  C_23 
REMARK    9  A    between atoms: C_22  and  N_24 
REMARK   10  A    between atoms: C_23  and  C_25 
REMARK       I    between atoms: N_24  and  C_26 
REMARK       I    between atoms: C_25  and  N_27 
REMARK       I    between atoms: C_26  and  N_29 
REMARK   11  A    between atoms: N_27  and  C_32 
REMARK   12  A    between atoms: C_32  and  C_33 
REMARK   13  A    between atoms: C_32  and  C_34 
REMARK   14  A    between atoms: C_33  and  C_35 
REMARK       I    between atoms: C_34  and  N_36 
REMARK   15  A    between atoms: N_36  and  C_40 
REMARK   16  A    between atoms: C_40  and  C_43 
REMARK   17  A    between atoms: C_40  and  C_44 
REMARK       I    between atoms: C_43  and  N_46 
REMARK   18  A    between atoms: C_44  and  O_48 
REMARK   19  A    between atoms: C_49  and  C_51 
REMARK       I    between atoms: C_51  and  N_54 
REMARK   20  A    between atoms: N_54  and  C_56 
REMARK   21  A    between atoms: C_56  and  C_57 
REMARK   22  A    between atoms: C_56  and  C_58 
REMARK   23  A    between atoms: C_57  and  C_59 
REMARK       I    between atoms: C_58  and  N_60 
REMARK   24  A    between atoms: N_60  and  C_64 
REMARK   25  A    between atoms: C_64  and  C_67 
REMARK   26  A    between atoms: C_64  and  C_68 
REMARK   27  A    between atoms: C_67  and  C_70 
REMARK   28  A    between atoms: C_68  and  O_71 
REMARK   29  A    between atoms: C_70  and  C_73 
REMARK   30  A    between atoms: C_73  and  N_74 
REMARK       I    between atoms: N_74  and  C_75 
REMARK       I    between atoms: C_75  and  N_76 
ROOT
HETATM    1  C   UNK N   1      27.278  15.585   5.660  0.00  0.00     0.241 C 
HETATM    2  N   UNK N   1      27.000  15.028   4.459  0.00  0.00    -0.344 N 
HETATM    3  O   UNK N   1      26.710  15.193   6.668  0.00  0.00    -0.271 OA
HETATM    4  H   UNK N   1      27.431  15.405   3.658  0.00  0.00     0.163 HD
ENDROOT
BRANCH   1   5
HETATM    5  C   UNK N   1      28.358  16.632   5.728  0.00  0.00     0.180 C 
BRANCH   5   6
HETATM    6  N   UNK N   1      29.281  16.644   6.849  0.00  0.00    -0.346 N 
HETATM    7  C   UNK N   1      29.160  17.402   7.970  0.00  0.00     0.236 C 
HETATM    8  O   UNK N   1      28.248  18.202   8.099  0.00  0.00    -0.272 OA
HETATM    9  H   UNK N   1      30.064  16.050   6.793  0.00  0.00     0.163 HD
BRANCH   7  10
HETATM   10  C   UNK N   1      30.174  17.256   9.062  0.00  0.00     0.225 C 
BRANCH  10  11
HETATM   11  N   UNK N   1      31.510  17.046   8.549  0.00  0.00    -0.351 N 
HETATM   12  C   UNK N   1      32.303  16.028   8.956  0.00  0.00     0.241 C 
HETATM   13  O   UNK N   1      31.915  15.248   9.816  0.00  0.00    -0.271 OA
HETATM   14  H   UNK N   1      31.858  17.671   7.874  0.00  0.00     0.163 HD
BRANCH  12  15
HETATM   15  C   UNK N   1      33.659  15.844   8.320  0.00  0.00     0.179 C 
HETATM   16  N   UNK N   1      34.675  16.357   9.198  0.00  0.00    -0.337 N 
HETATM   17  C   UNK N   1      35.521  15.567   9.925  0.00  0.00     0.243 C 
HETATM   18  C   UNK N   1      34.937  17.759   9.017  0.00  0.00     0.127 C 
HETATM   19  O   UNK N   1      36.422  16.082  10.574  0.00  0.00    -0.271 OA
HETATM   20  C   UNK N   1      34.273  18.097   7.684  0.00  0.00     0.022 C 
HETATM   21  C   UNK N   1      33.764  16.765   7.118  0.00  0.00     0.037 C 
BRANCH  17  22
HETATM   22  C   UNK N   1      35.424  14.054   9.873  0.00  0.00     0.179 C 
HETATM   23  N   UNK N   1      36.568  13.393  10.459  0.00  0.00    -0.337 N 
HETATM   24  C   UNK N   1      37.485  12.835   9.501  0.00  0.00     0.127 C 
HETATM   25  C   UNK N   1      36.731  13.163  11.799  0.00  0.00     0.242 C 
HETATM   26  C   UNK N   1      36.935  13.246   8.149  0.00  0.00     0.022 C 
HETATM   27  C   UNK N   1      35.482  13.633   8.409  0.00  0.00     0.037 C 
HETATM   28  O   UNK N   1      37.680  12.499  12.187  0.00  0.00    -0.271 OA
BRANCH  25  29
HETATM   29  C   UNK N   1      35.748  13.707  12.809  0.00  0.00     0.167 C 
BRANCH  29  30
HETATM   30  C   UNK N   1      35.350  12.699  13.882  0.00  0.00     0.036 C 
BRANCH  30  31
HETATM   31  C   UNK N   1      35.951  12.980  15.249  0.00  0.00     0.023 C 
BRANCH  31  32
HETATM   32  C   UNK N   1      34.775  13.160  16.187  0.00  0.00     0.138 C 
BRANCH  32  33
HETATM   33  N   UNK N   1      35.046  12.604  17.489  0.00  0.00    -0.227 N 
HETATM   34  C   UNK N   1      35.258  13.440  18.614  0.00  0.00     0.665 C 
HETATM   35  N   UNK N   1      35.320  12.872  19.903  0.00  0.00    -0.235 N 
HETATM   36  N   UNK N   1      35.299  14.716  18.480  0.00  0.00    -0.235 N 
HETATM   37  H   UNK N   1      35.766  13.275  20.684  0.00  0.00     0.174 HD
HETATM   38  H   UNK N   1      34.882  11.999  20.034  0.00  0.00     0.174 HD
HETATM   39  H   UNK N   1      35.282  15.203  17.625  0.00  0.00     0.174 HD
ATOM     40  HN  UNK N   1      35.354  15.273  19.333  1.00  0.00     0.174 HD
HETATM   41  H   UNK N   1      35.084  11.626  17.598  0.00  0.00     0.177 HD
ENDBRANCH  32  33
ENDBRANCH  31  32
ENDBRANCH  30  31
ENDBRANCH  29  30
BRANCH  29  42
HETATM   42  N   UNK N   1      36.370  14.827  13.487  0.00  0.00    -0.418 N 
HETATM   43  H   UNK N   1      36.754  15.744  13.261  0.00  0.00     0.150 HD
HETATM   44  H   UNK N   1      36.445  14.643  14.488  0.00  0.00     0.150 HD
ENDBRANCH  29  42
ENDBRANCH  25  29
ENDBRANCH  17  22
ENDBRANCH  12  15
ENDBRANCH  10  11
ENDBRANCH   7  10
ENDBRANCH   5   6
BRANCH   5  45
HETATM   45  C   UNK N   1      28.920  17.121   4.394  0.00  0.00     0.073 C 
BRANCH  45  46
HETATM   46  C   UNK N   1      30.313  16.652   4.133  0.00  0.00    -0.056 A 
HETATM   47  C   UNK N   1      30.581  15.294   3.935  0.00  0.00     0.007 A 
HETATM   48  C   UNK N   1      31.889  14.862   3.707  0.00  0.00     0.001 A 
HETATM   49  C   UNK N   1      32.936  15.787   3.684  0.00  0.00     0.000 A 
HETATM   50  C   UNK N   1      32.674  17.144   3.892  0.00  0.00     0.001 A 
HETATM   51  C   UNK N   1      31.364  17.576   4.121  0.00  0.00     0.007 A 
ENDBRANCH  45  46
ENDBRANCH   5  45
ENDBRANCH   1   5
BRANCH   2  52
HETATM   52  C   UNK N   1      26.101  13.909   4.289  0.00  0.00     0.200 C 
BRANCH  52  53
HETATM   53  C   UNK N   1      25.458  13.999   2.934  0.00  0.00     0.245 C 
HETATM   54  N   UNK N   1      24.105  14.101   2.803  0.00  0.00    -0.337 N 
HETATM   55  C   UNK N   1      23.197  14.049   3.924  0.00  0.00     0.179 A 
HETATM   56  C   UNK N   1      23.475  14.161   1.517  0.00  0.00     0.127 A 
HETATM   57  C   UNK N   1      21.809  14.007   3.300  0.00  0.00     0.037 A 
HETATM   58  C   UNK N   1      21.984  14.185   1.793  0.00  0.00     0.022 A 
HETATM   59  O   UNK N   1      26.166  13.974   1.933  0.00  0.00    -0.271 OA
BRANCH  55  60
HETATM   60  C   UNK N   1      23.284  15.232   4.858  0.00  0.00     0.241 C 
HETATM   61  N   UNK N   1      22.904  16.479   4.454  0.00  0.00    -0.346 N 
HETATM   62  H   UNK N   1      22.711  16.603   3.495  0.00  0.00     0.163 HD
HETATM   63  O   UNK N   1      23.674  15.039   6.000  0.00  0.00    -0.271 OA
BRANCH  61  64
HETATM   64  C   UNK N   1      22.756  17.644   5.320  0.00  0.00     0.180 C 
BRANCH  64  65
HETATM   65  C   UNK N   1      22.894  18.998   4.607  0.00  0.00     0.073 C 
BRANCH  65  66
HETATM   66  C   UNK N   1      24.260  19.464   4.257  0.00  0.00    -0.056 A 
HETATM   67  C   UNK N   1      25.375  19.181   5.056  0.00  0.00     0.007 A 
HETATM   68  C   UNK N   1      26.638  19.630   4.668  0.00  0.00     0.001 A 
HETATM   69  C   UNK N   1      26.790  20.358   3.483  0.00  0.00     0.000 A 
HETATM   70  C   UNK N   1      25.678  20.641   2.687  0.00  0.00     0.001 A 
HETATM   71  C   UNK N   1      24.415  20.194   3.076  0.00  0.00     0.007 A 
ENDBRANCH  65  66
ENDBRANCH  64  65
BRANCH  64  72
HETATM   72  C   UNK N   1      21.444  17.735   6.025  0.00  0.00     0.241 C 
HETATM   73  N   UNK N   1      20.936  16.556   6.447  0.00  0.00    -0.345 N 
HETATM   74  H   UNK N   1      20.645  15.887   5.787  0.00  0.00     0.163 HD
HETATM   75  O   UNK N   1      21.170  18.765   6.627  0.00  0.00    -0.271 OA
BRANCH  73  76
HETATM   76  C   UNK N   1      20.817  16.272   7.855  0.00  0.00     0.182 C 
BRANCH  76  77
HETATM   77  C   UNK N   1      20.822  14.755   8.019  0.00  0.00     0.038 C 
BRANCH  77  78
HETATM   78  C   UNK N   1      21.135  14.359   9.451  0.00  0.00     0.023 C 
BRANCH  78  79
HETATM   79  C   UNK N   1      21.655  12.929   9.525  0.00  0.00     0.138 C 
BRANCH  79  80
HETATM   80  N   UNK N   1      23.067  12.915   9.830  0.00  0.00    -0.227 N 
HETATM   81  C   UNK N   1      23.585  12.227  10.958  0.00  0.00     0.665 C 
HETATM   82  N   UNK N   1      24.964  12.302  11.250  0.00  0.00    -0.235 N 
HETATM   83  N   UNK N   1      22.813  11.531  11.710  0.00  0.00    -0.235 N 
HETATM   84  H   UNK N   1      25.492  11.674  11.794  0.00  0.00     0.174 HD
HETATM   85  H   UNK N   1      25.451  13.066  10.866  0.00  0.00     0.174 HD
HETATM   86  H   UNK N   1      21.886  11.305  11.469  0.00  0.00     0.174 HD
ATOM     87  HN  UNK N   1      23.178  11.196  12.601  1.00  0.00     0.174 HD
HETATM   88  H   UNK N   1      23.687  13.397   9.238  0.00  0.00     0.177 HD
ENDBRANCH  79  80
ENDBRANCH  78  79
ENDBRANCH  77  78
ENDBRANCH  76  77
BRANCH  76  89
HETATM   89  C   UNK N   1      19.646  16.942   8.491  0.00  0.00     0.163 C 
HETATM   90  O   UNK N   1      18.546  16.416   8.488  0.00  0.00    -0.648 OA
BRANCH  89  91
HETATM   91  O   UNK N   1      19.835  18.089   9.162  0.00  0.00    -0.775 OA
HETATM   92  H   UNK N   1      20.353  18.397   9.880  0.00  0.00     0.167 HD
ENDBRANCH  89  91
ENDBRANCH  76  89
ENDBRANCH  73  76
ENDBRANCH  64  72
ENDBRANCH  61  64
ENDBRANCH  55  60
ENDBRANCH  52  53
BRANCH  52  93
HETATM   93  C   UNK N   1      26.849  12.585   4.463  0.00  0.00     0.199 C 
BRANCH  93  94
HETATM   94  O   UNK N   1      27.919  12.492   3.571  0.00  0.00    -0.398 OA
HETATM   95  H   UNK N   1      28.339  13.127   2.969  0.00  0.00     0.209 HD
ENDBRANCH  93  94
ENDBRANCH  52  93
ENDBRANCH   2  52
TORSDOF 30
ENDMDL
MODEL 5
REMARK VINA RESULT:      -8.4      2.259     11.708
REMARK  30 active torsions:
REMARK  status: ('A' for Active; 'I' for Inactive)
REMARK    1  A    between atoms: C_1  and  C_3 
REMARK       I    between atoms: N_2  and  C_6 
REMARK       I    between atoms: C_3  and  N_7 
REMARK    2  A    between atoms: C_6  and  C_10 
REMARK    3  A    between atoms: C_10  and  C_14 
REMARK    4  A    between atoms: C_10  and  N_15 
REMARK    5  A    between atoms: C_12  and  C_17 
REMARK    6  A    between atoms: C_14  and  C_19 
REMARK       I    between atoms: C_17  and  N_20 
REMARK    7  A    between atoms: C_19  and  C_22 
REMARK    8  A    between atoms: N_20  and  C_23 
REMARK    9  A    between atoms: C_22  and  N_24 
REMARK   10  A    between atoms: C_23  and  C_25 
REMARK       I    between atoms: N_24  and  C_26 
REMARK       I    between atoms: C_25  and  N_27 
REMARK       I    between atoms: C_26  and  N_29 
REMARK   11  A    between atoms: N_27  and  C_32 
REMARK   12  A    between atoms: C_32  and  C_33 
REMARK   13  A    between atoms: C_32  and  C_34 
REMARK   14  A    between atoms: C_33  and  C_35 
REMARK       I    between atoms: C_34  and  N_36 
REMARK   15  A    between atoms: N_36  and  C_40 
REMARK   16  A    between atoms: C_40  and  C_43 
REMARK   17  A    between atoms: C_40  and  C_44 
REMARK       I    between atoms: C_43  and  N_46 
REMARK   18  A    between atoms: C_44  and  O_48 
REMARK   19  A    between atoms: C_49  and  C_51 
REMARK       I    between atoms: C_51  and  N_54 
REMARK   20  A    between atoms: N_54  and  C_56 
REMARK   21  A    between atoms: C_56  and  C_57 
REMARK   22  A    between atoms: C_56  and  C_58 
REMARK   23  A    between atoms: C_57  and  C_59 
REMARK       I    between atoms: C_58  and  N_60 
REMARK   24  A    between atoms: N_60  and  C_64 
REMARK   25  A    between atoms: C_64  and  C_67 
REMARK   26  A    between atoms: C_64  and  C_68 
REMARK   27  A    between atoms: C_67  and  C_70 
REMARK   28  A    between atoms: C_68  and  O_71 
REMARK   29  A    between atoms: C_70  and  C_73 
REMARK   30  A    between atoms: C_73  and  N_74 
REMARK       I    between atoms: N_74  and  C_75 
REMARK       I    between atoms: C_75  and  N_76 
ROOT
HETATM    1  C   UNK N   1      29.862  14.805   4.593  0.00  0.00     0.241 C 
HETATM    2  N   UNK N   1      30.714  15.357   3.699  0.00  0.00    -0.344 N 
HETATM    3  O   UNK N   1      30.282  14.344   5.644  0.00  0.00    -0.271 OA
HETATM    4  H   UNK N   1      30.351  15.667   2.838  0.00  0.00     0.163 HD
ENDROOT
BRANCH   1   5
HETATM    5  C   UNK N   1      28.387  14.853   4.296  0.00  0.00     0.180 C 
BRANCH   5   6
HETATM    6  N   UNK N   1      27.451  15.223   5.345  0.00  0.00    -0.346 N 
HETATM    7  C   UNK N   1      26.616  14.376   6.000  0.00  0.00     0.236 C 
HETATM    8  O   UNK N   1      26.555  13.193   5.706  0.00  0.00    -0.272 OA
HETATM    9  H   UNK N   1      27.420  16.172   5.604  0.00  0.00     0.163 HD
BRANCH   7  10
HETATM   10  C   UNK N   1      25.749  14.910   7.097  0.00  0.00     0.225 C 
BRANCH  10  11
HETATM   11  N   UNK N   1      24.387  14.432   7.005  0.00  0.00    -0.351 N 
HETATM   12  C   UNK N   1      23.828  13.618   7.930  0.00  0.00     0.241 C 
HETATM   13  O   UNK N   1      24.485  13.226   8.886  0.00  0.00    -0.271 OA
HETATM   14  H   UNK N   1      23.842  14.712   6.235  0.00  0.00     0.163 HD
BRANCH  12  15
HETATM   15  C   UNK N   1      22.379  13.221   7.789  0.00  0.00     0.179 C 
HETATM   16  N   UNK N   1      21.543  14.372   7.999  0.00  0.00    -0.337 N 
HETATM   17  C   UNK N   1      20.888  15.028   6.995  0.00  0.00     0.243 C 
HETATM   18  C   UNK N   1      21.203  14.591   9.378  0.00  0.00     0.127 C 
HETATM   19  O   UNK N   1      20.119  15.941   7.269  0.00  0.00    -0.271 OA
HETATM   20  C   UNK N   1      21.573  13.280  10.070  0.00  0.00     0.022 C 
HETATM   21  C   UNK N   1      22.003  12.322   8.953  0.00  0.00     0.037 C 
BRANCH  17  22
HETATM   22  C   UNK N   1      21.024  14.592   5.549  0.00  0.00     0.179 C 
HETATM   23  N   UNK N   1      20.637  15.618   4.608  0.00  0.00    -0.337 N 
HETATM   24  C   UNK N   1      19.352  15.406   3.995  0.00  0.00     0.127 C 
HETATM   25  C   UNK N   1      21.448  16.641   4.195  0.00  0.00     0.242 C 
HETATM   26  C   UNK N   1      18.802  14.161   4.665  0.00  0.00     0.022 C 
HETATM   27  C   UNK N   1      20.010  13.481   5.300  0.00  0.00     0.037 C 
HETATM   28  O   UNK N   1      21.067  17.396   3.313  0.00  0.00    -0.271 OA
BRANCH  25  29
HETATM   29  C   UNK N   1      22.817  16.843   4.801  0.00  0.00     0.167 C 
BRANCH  29  30
HETATM   30  C   UNK N   1      23.787  17.589   3.890  0.00  0.00     0.036 C 
BRANCH  30  31
HETATM   31  C   UNK N   1      25.213  17.638   4.411  0.00  0.00     0.023 C 
BRANCH  31  32
HETATM   32  C   UNK N   1      25.577  19.107   4.479  0.00  0.00     0.138 C 
BRANCH  32  33
HETATM   33  N   UNK N   1      25.492  19.612   5.825  0.00  0.00    -0.227 N 
HETATM   34  C   UNK N   1      26.308  20.687   6.259  0.00  0.00     0.665 C 
HETATM   35  N   UNK N   1      26.063  21.289   7.511  0.00  0.00    -0.235 N 
HETATM   36  N   UNK N   1      27.205  21.180   5.483  0.00  0.00    -0.235 N 
HETATM   37  H   UNK N   1      26.723  21.792   8.042  0.00  0.00     0.174 HD
HETATM   38  H   UNK N   1      25.157  21.197   7.886  0.00  0.00     0.174 HD
HETATM   39  H   UNK N   1      27.461  20.820   4.603  0.00  0.00     0.174 HD
ATOM     40  HN  UNK N   1      27.695  22.014   5.807  1.00  0.00     0.174 HD
HETATM   41  H   UNK N   1      24.855  19.203   6.455  0.00  0.00     0.177 HD
ENDBRANCH  32  33
ENDBRANCH  31  32
ENDBRANCH  30  31
ENDBRANCH  29  30
BRANCH  29  42
HETATM   42  N   UNK N   1      22.665  17.641   6.002  0.00  0.00    -0.418 N 
HETATM   43  H   UNK N   1      21.984  18.273   6.421  0.00  0.00     0.150 HD
HETATM   44  H   UNK N   1      23.479  17.537   6.607  0.00  0.00     0.150 HD
ENDBRANCH  29  42
ENDBRANCH  25  29
ENDBRANCH  17  22
ENDBRANCH  12  15
ENDBRANCH  10  11
ENDBRANCH   7  10
ENDBRANCH   5   6
BRANCH   5  45
HETATM   45  C   UNK N   1      27.989  15.249   2.875  0.00  0.00     0.073 C 
BRANCH  45  46
HETATM   46  C   UNK N   1      26.886  14.411   2.316  0.00  0.00    -0.056 A 
HETATM   47  C   UNK N   1      25.680  14.996   1.919  0.00  0.00     0.007 A 
HETATM   48  C   UNK N   1      24.648  14.204   1.411  0.00  0.00     0.001 A 
HETATM   49  C   UNK N   1      24.818  12.821   1.307  0.00  0.00     0.000 A 
HETATM   50  C   UNK N   1      26.018  12.231   1.712  0.00  0.00     0.001 A 
HETATM   51  C   UNK N   1      27.051  13.025   2.220  0.00  0.00     0.007 A 
ENDBRANCH  45  46
ENDBRANCH   5  45
ENDBRANCH   1   5
BRANCH   2  52
HETATM   52  C   UNK N   1      32.130  15.513   3.941  0.00  0.00     0.200 C 
BRANCH  52  53
HETATM   53  C   UNK N   1      32.809  14.186   3.748  0.00  0.00     0.245 C 
HETATM   54  N   UNK N   1      34.024  13.930   4.310  0.00  0.00    -0.337 N 
HETATM   55  C   UNK N   1      34.776  14.917   5.047  0.00  0.00     0.179 A 
HETATM   56  C   UNK N   1      34.696  12.679   4.114  0.00  0.00     0.127 A 
HETATM   57  C   UNK N   1      36.124  14.260   5.314  0.00  0.00     0.037 A 
HETATM   58  C   UNK N   1      36.031  12.818   4.819  0.00  0.00     0.022 A 
HETATM   59  O   UNK N   1      32.258  13.325   3.070  0.00  0.00    -0.271 OA
BRANCH  55  60
HETATM   60  C   UNK N   1      34.157  15.325   6.362  0.00  0.00     0.241 C 
HETATM   61  N   UNK N   1      34.049  16.639   6.714  0.00  0.00    -0.346 N 
HETATM   62  H   UNK N   1      34.518  17.296   6.149  0.00  0.00     0.163 HD
HETATM   63  O   UNK N   1      33.722  14.446   7.093  0.00  0.00    -0.271 OA
BRANCH  61  64
HETATM   64  C   UNK N   1      33.297  17.154   7.854  0.00  0.00     0.180 C 
BRANCH  64  65
HETATM   65  C   UNK N   1      32.001  16.391   8.167  0.00  0.00     0.073 C 
BRANCH  65  66
HETATM   66  C   UNK N   1      30.725  17.153   8.159  0.00  0.00    -0.056 A 
HETATM   67  C   UNK N   1      30.019  17.417   6.979  0.00  0.00     0.007 A 
HETATM   68  C   UNK N   1      28.816  18.123   7.035  0.00  0.00     0.001 A 
HETATM   69  C   UNK N   1      28.317  18.561   8.265  0.00  0.00     0.000 A 
HETATM   70  C   UNK N   1      29.022  18.298   9.442  0.00  0.00     0.001 A 
HETATM   71  C   UNK N   1      30.225  17.595   9.387  0.00  0.00     0.007 A 
ENDBRANCH  65  66
ENDBRANCH  64  65
BRANCH  64  72
HETATM   72  C   UNK N   1      34.043  17.151   9.146  0.00  0.00     0.241 C 
HETATM   73  N   UNK N   1      33.897  16.033   9.891  0.00  0.00    -0.345 N 
HETATM   74  H   UNK N   1      33.020  15.821  10.285  0.00  0.00     0.163 HD
HETATM   75  O   UNK N   1      35.071  17.811   9.233  0.00  0.00    -0.271 OA
BRANCH  73  76
HETATM   76  C   UNK N   1      35.014  15.151  10.114  0.00  0.00     0.182 C 
BRANCH  76  77
HETATM   77  C   UNK N   1      34.453  13.758  10.381  0.00  0.00     0.038 C 
BRANCH  77  78
HETATM   78  C   UNK N   1      35.529  12.696  10.241  0.00  0.00     0.023 C 
BRANCH  78  79
HETATM   79  C   UNK N   1      35.503  11.728  11.417  0.00  0.00     0.138 C 
BRANCH  79  80
HETATM   80  N   UNK N   1      35.036  12.389  12.612  0.00  0.00    -0.227 N 
HETATM   81  C   UNK N   1      35.930  12.857  13.610  0.00  0.00     0.665 C 
HETATM   82  N   UNK N   1      35.418  13.435  14.791  0.00  0.00    -0.235 N 
HETATM   83  N   UNK N   1      37.198  12.766  13.445  0.00  0.00    -0.235 N 
HETATM   84  H   UNK N   1      35.887  14.042  15.409  0.00  0.00     0.174 HD
HETATM   85  H   UNK N   1      34.489  13.208  15.023  0.00  0.00     0.174 HD
HETATM   86  H   UNK N   1      37.615  12.531  12.584  0.00  0.00     0.174 HD
ATOM     87  HN  UNK N   1      37.806  12.947  14.244  1.00  0.00     0.174 HD
HETATM   88  H   UNK N   1      34.069  12.520  12.738  0.00  0.00     0.177 HD
ENDBRANCH  79  80
ENDBRANCH  78  79
ENDBRANCH  77  78
ENDBRANCH  76  77
BRANCH  76  89
HETATM   89  C   UNK N   1      35.944  15.639  11.173  0.00  0.00     0.163 C 
HETATM   90  O   UNK N   1      35.659  15.532  12.355  0.00  0.00    -0.648 OA
BRANCH  89  91
HETATM   91  O   UNK N   1      37.152  16.105  10.818  0.00  0.00    -0.775 OA
HETATM   92  H   UNK N   1      37.760  15.994  10.114  0.00  0.00     0.167 HD
ENDBRANCH  89  91
ENDBRANCH  76  89
ENDBRANCH  73  76
ENDBRANCH  64  72
ENDBRANCH  61  64
ENDBRANCH  55  60
ENDBRANCH  52  53
BRANCH  52  93
HETATM   93  C   UNK N   1      32.721  16.579   3.015  0.00  0.00     0.199 C 
BRANCH  93  94
HETATM   94  O   UNK N   1      31.733  17.462   2.573  0.00  0.00    -0.398 OA
HETATM   95  H   UNK N   1      31.764  18.328   2.136  0.00  0.00     0.209 HD
ENDBRANCH  93  94
ENDBRANCH  52  93
ENDBRANCH   2  52
TORSDOF 30
ENDMDL
MODEL 6
REMARK VINA RESULT:      -8.3      2.001      4.443
REMARK  30 active torsions:
REMARK  status: ('A' for Active; 'I' for Inactive)
REMARK    1  A    between atoms: C_1  and  C_3 
REMARK       I    between atoms: N_2  and  C_6 
REMARK       I    between atoms: C_3  and  N_7 
REMARK    2  A    between atoms: C_6  and  C_10 
REMARK    3  A    between atoms: C_10  and  C_14 
REMARK    4  A    between atoms: C_10  and  N_15 
REMARK    5  A    between atoms: C_12  and  C_17 
REMARK    6  A    between atoms: C_14  and  C_19 
REMARK       I    between atoms: C_17  and  N_20 
REMARK    7  A    between atoms: C_19  and  C_22 
REMARK    8  A    between atoms: N_20  and  C_23 
REMARK    9  A    between atoms: C_22  and  N_24 
REMARK   10  A    between atoms: C_23  and  C_25 
REMARK       I    between atoms: N_24  and  C_26 
REMARK       I    between atoms: C_25  and  N_27 
REMARK       I    between atoms: C_26  and  N_29 
REMARK   11  A    between atoms: N_27  and  C_32 
REMARK   12  A    between atoms: C_32  and  C_33 
REMARK   13  A    between atoms: C_32  and  C_34 
REMARK   14  A    between atoms: C_33  and  C_35 
REMARK       I    between atoms: C_34  and  N_36 
REMARK   15  A    between atoms: N_36  and  C_40 
REMARK   16  A    between atoms: C_40  and  C_43 
REMARK   17  A    between atoms: C_40  and  C_44 
REMARK       I    between atoms: C_43  and  N_46 
REMARK   18  A    between atoms: C_44  and  O_48 
REMARK   19  A    between atoms: C_49  and  C_51 
REMARK       I    between atoms: C_51  and  N_54 
REMARK   20  A    between atoms: N_54  and  C_56 
REMARK   21  A    between atoms: C_56  and  C_57 
REMARK   22  A    between atoms: C_56  and  C_58 
REMARK   23  A    between atoms: C_57  and  C_59 
REMARK       I    between atoms: C_58  and  N_60 
REMARK   24  A    between atoms: N_60  and  C_64 
REMARK   25  A    between atoms: C_64  and  C_67 
REMARK   26  A    between atoms: C_64  and  C_68 
REMARK   27  A    between atoms: C_67  and  C_70 
REMARK   28  A    between atoms: C_68  and  O_71 
REMARK   29  A    between atoms: C_70  and  C_73 
REMARK   30  A    between atoms: C_73  and  N_74 
REMARK       I    between atoms: N_74  and  C_75 
REMARK       I    between atoms: C_75  and  N_76 
ROOT
HETATM    1  C   UNK N   1      26.833  15.108   4.911  0.00  0.00     0.241 C 
HETATM    2  N   UNK N   1      26.228  14.419   3.916  0.00  0.00    -0.344 N 
HETATM    3  O   UNK N   1      26.513  14.920   6.075  0.00  0.00    -0.271 OA
HETATM    4  H   UNK N   1      26.467  14.636   2.985  0.00  0.00     0.163 HD
ENDROOT
BRANCH   1   5
HETATM    5  C   UNK N   1      27.958  16.042   4.551  0.00  0.00     0.180 C 
BRANCH   5   6
HETATM    6  N   UNK N   1      29.327  15.557   4.557  0.00  0.00    -0.346 N 
HETATM    7  C   UNK N   1      29.723  14.296   4.870  0.00  0.00     0.236 C 
HETATM    8  O   UNK N   1      28.920  13.452   5.233  0.00  0.00    -0.272 OA
HETATM    9  H   UNK N   1      30.032  16.199   4.312  0.00  0.00     0.163 HD
BRANCH   7  10
HETATM   10  C   UNK N   1      31.173  13.942   4.775  0.00  0.00     0.225 C 
BRANCH  10  11
HETATM   11  N   UNK N   1      31.669  13.320   5.983  0.00  0.00    -0.351 N 
HETATM   12  C   UNK N   1      32.957  13.419   6.388  0.00  0.00     0.241 C 
HETATM   13  O   UNK N   1      33.772  14.032   5.710  0.00  0.00    -0.271 OA
HETATM   14  H   UNK N   1      31.042  12.801   6.536  0.00  0.00     0.163 HD
BRANCH  12  15
HETATM   15  C   UNK N   1      33.373  12.794   7.697  0.00  0.00     0.179 C 
HETATM   16  N   UNK N   1      34.780  13.007   7.905  0.00  0.00    -0.337 N 
HETATM   17  C   UNK N   1      35.288  13.902   8.804  0.00  0.00     0.243 C 
HETATM   18  C   UNK N   1      35.607  11.989   7.317  0.00  0.00     0.127 C 
HETATM   19  O   UNK N   1      36.497  13.953   8.990  0.00  0.00    -0.271 OA
HETATM   20  C   UNK N   1      34.638  10.854   6.996  0.00  0.00     0.022 C 
HETATM   21  C   UNK N   1      33.282  11.285   7.569  0.00  0.00     0.037 C 
BRANCH  17  22
HETATM   22  C   UNK N   1      34.378  14.774   9.647  0.00  0.00     0.179 C 
HETATM   23  N   UNK N   1      34.805  16.153   9.702  0.00  0.00    -0.337 N 
HETATM   24  C   UNK N   1      35.431  16.530  10.942  0.00  0.00     0.127 C 
HETATM   25  C   UNK N   1      34.530  17.092   8.745  0.00  0.00     0.242 C 
HETATM   26  C   UNK N   1      35.500  15.248  11.750  0.00  0.00     0.022 C 
HETATM   27  C   UNK N   1      34.495  14.307  11.094  0.00  0.00     0.037 C 
HETATM   28  O   UNK N   1      34.841  18.258   8.934  0.00  0.00    -0.271 OA
BRANCH  25  29
HETATM   29  C   UNK N   1      33.832  16.712   7.460  0.00  0.00     0.167 C 
BRANCH  29  30
HETATM   30  C   UNK N   1      32.799  17.735   6.998  0.00  0.00     0.036 C 
BRANCH  30  31
HETATM   31  C   UNK N   1      31.449  17.136   6.642  0.00  0.00     0.023 C 
BRANCH  31  32
HETATM   32  C   UNK N   1      30.851  16.661   7.951  0.00  0.00     0.138 C 
BRANCH  32  33
HETATM   33  N   UNK N   1      29.477  17.073   8.086  0.00  0.00    -0.227 N 
HETATM   34  C   UNK N   1      29.102  18.082   9.009  0.00  0.00     0.665 C 
HETATM   35  N   UNK N   1      27.791  18.603   8.977  0.00  0.00    -0.235 N 
HETATM   36  N   UNK N   1      29.968  18.592   9.807  0.00  0.00    -0.235 N 
HETATM   37  H   UNK N   1      27.332  19.041   9.731  0.00  0.00     0.174 HD
HETATM   38  H   UNK N   1      27.293  18.521   8.131  0.00  0.00     0.174 HD
HETATM   39  H   UNK N   1      30.897  18.285   9.915  0.00  0.00     0.174 HD
ATOM     40  HN  UNK N   1      29.667  19.381  10.379  1.00  0.00     0.174 HD
HETATM   41  H   UNK N   1      28.788  16.647   7.527  0.00  0.00     0.177 HD
ENDBRANCH  32  33
ENDBRANCH  31  32
ENDBRANCH  30  31
ENDBRANCH  29  30
BRANCH  29  42
HETATM   42  N   UNK N   1      34.832  16.617   6.414  0.00  0.00    -0.418 N 
HETATM   43  H   UNK N   1      34.935  16.853   5.428  0.00  0.00     0.150 HD
HETATM   44  H   UNK N   1      35.686  16.188   6.773  0.00  0.00     0.150 HD
ENDBRANCH  29  42
ENDBRANCH  25  29
ENDBRANCH  17  22
ENDBRANCH  12  15
ENDBRANCH  10  11
ENDBRANCH   7  10
ENDBRANCH   5   6
BRANCH   5  45
HETATM   45  C   UNK N   1      27.639  17.133   3.530  0.00  0.00     0.073 C 
BRANCH  45  46
HETATM   46  C   UNK N   1      27.286  18.442   4.156  0.00  0.00    -0.056 A 
HETATM   47  C   UNK N   1      26.238  19.214   3.646  0.00  0.00     0.007 A 
HETATM   48  C   UNK N   1      25.923  20.443   4.228  0.00  0.00     0.001 A 
HETATM   49  C   UNK N   1      26.661  20.909   5.319  0.00  0.00     0.000 A 
HETATM   50  C   UNK N   1      27.716  20.145   5.826  0.00  0.00     0.001 A 
HETATM   51  C   UNK N   1      28.031  18.914   5.242  0.00  0.00     0.007 A 
ENDBRANCH  45  46
ENDBRANCH   5  45
ENDBRANCH   1   5
BRANCH   2  52
HETATM   52  C   UNK N   1      25.248  13.383   4.147  0.00  0.00     0.200 C 
BRANCH  52  53
HETATM   53  C   UNK N   1      24.237  13.408   3.035  0.00  0.00     0.245 C 
HETATM   54  N   UNK N   1      22.904  13.497   3.300  0.00  0.00    -0.337 N 
HETATM   55  C   UNK N   1      22.362  13.489   4.638  0.00  0.00     0.179 A 
HETATM   56  C   UNK N   1      21.925  13.496   2.252  0.00  0.00     0.127 A 
HETATM   57  C   UNK N   1      20.854  13.412   4.448  0.00  0.00     0.037 A 
HETATM   58  C   UNK N   1      20.579  13.524   2.950  0.00  0.00     0.022 A 
HETATM   59  O   UNK N   1      24.624  13.344   1.873  0.00  0.00    -0.271 OA
BRANCH  55  60
HETATM   60  C   UNK N   1      22.695  14.713   5.457  0.00  0.00     0.241 C 
HETATM   61  N   UNK N   1      22.423  15.968   4.993  0.00  0.00    -0.346 N 
HETATM   62  H   UNK N   1      22.139  16.048   4.053  0.00  0.00     0.163 HD
HETATM   63  O   UNK N   1      23.186  14.551   6.565  0.00  0.00    -0.271 OA
BRANCH  61  64
HETATM   64  C   UNK N   1      22.514  17.199   5.772  0.00  0.00     0.180 C 
BRANCH  64  65
HETATM   65  C   UNK N   1      22.952  18.435   4.971  0.00  0.00     0.073 C 
BRANCH  65  66
HETATM   66  C   UNK N   1      22.144  18.818   3.784  0.00  0.00    -0.056 A 
HETATM   67  C   UNK N   1      22.273  20.065   3.162  0.00  0.00     0.007 A 
HETATM   68  C   UNK N   1      21.500  20.363   2.038  0.00  0.00     0.001 A 
HETATM   69  C   UNK N   1      20.602  19.416   1.535  0.00  0.00     0.000 A 
HETATM   70  C   UNK N   1      20.473  18.172   2.156  0.00  0.00     0.001 A 
HETATM   71  C   UNK N   1      21.244  17.875   3.280  0.00  0.00     0.007 A 
ENDBRANCH  65  66
ENDBRANCH  64  65
BRANCH  64  72
HETATM   72  C   UNK N   1      21.241  17.620   6.426  0.00  0.00     0.241 C 
HETATM   73  N   UNK N   1      20.433  16.608   6.813  0.00  0.00    -0.345 N 
HETATM   74  H   UNK N   1      20.009  16.037   6.134  0.00  0.00     0.163 HD
HETATM   75  O   UNK N   1      21.214  18.685   7.028  0.00  0.00    -0.271 OA
BRANCH  73  76
HETATM   76  C   UNK N   1      20.188  16.361   8.211  0.00  0.00     0.182 C 
BRANCH  76  77
HETATM   77  C   UNK N   1      20.286  14.856   8.436  0.00  0.00     0.038 C 
BRANCH  77  78
HETATM   78  C   UNK N   1      21.321  14.524   9.496  0.00  0.00     0.023 C 
BRANCH  78  79
HETATM   79  C   UNK N   1      21.711  13.052   9.443  0.00  0.00     0.138 C 
BRANCH  79  80
HETATM   80  N   UNK N   1      22.765  12.770  10.389  0.00  0.00    -0.227 N 
HETATM   81  C   UNK N   1      24.135  12.810  10.020  0.00  0.00     0.665 C 
HETATM   82  N   UNK N   1      25.124  12.459  10.964  0.00  0.00    -0.235 N 
HETATM   83  N   UNK N   1      24.483  13.171   8.840  0.00  0.00    -0.235 N 
HETATM   84  H   UNK N   1      26.076  12.709  10.950  0.00  0.00     0.174 HD
HETATM   85  H   UNK N   1      24.828  11.903  11.720  0.00  0.00     0.174 HD
HETATM   86  H   UNK N   1      23.863  13.584   8.196  0.00  0.00     0.174 HD
ATOM     87  HN  UNK N   1      25.451  13.023   8.553  1.00  0.00     0.174 HD
HETATM   88  H   UNK N   1      22.527  12.543  11.316  0.00  0.00     0.177 HD
ENDBRANCH  79  80
ENDBRANCH  78  79
ENDBRANCH  77  78
ENDBRANCH  76  77
BRANCH  76  89
HETATM   89  C   UNK N   1      18.911  16.960   8.697  0.00  0.00     0.163 C 
HETATM   90  O   UNK N   1      18.915  17.944   9.418  0.00  0.00    -0.648 OA
BRANCH  89  91
HETATM   91  O   UNK N   1      17.746  16.468   8.247  0.00  0.00    -0.775 OA
HETATM   92  H   UNK N   1      16.960  16.106   8.606  0.00  0.00     0.167 HD
ENDBRANCH  89  91
ENDBRANCH  76  89
ENDBRANCH  73  76
ENDBRANCH  64  72
ENDBRANCH  61  64
ENDBRANCH  55  60
ENDBRANCH  52  53
BRANCH  52  93
HETATM   93  C   UNK N   1      25.925  12.014   4.251  0.00  0.00     0.199 C 
BRANCH  93  94
HETATM   94  O   UNK N   1      26.425  11.798   5.537  0.00  0.00    -0.398 OA
HETATM   95  H   UNK N   1      27.134  12.213   6.052  0.00  0.00     0.209 HD
ENDBRANCH  93  94
ENDBRANCH  52  93
ENDBRANCH   2  52
TORSDOF 30
ENDMDL
MODEL 7
REMARK VINA RESULT:      -8.3      1.960      2.747
REMARK  30 active torsions:
REMARK  status: ('A' for Active; 'I' for Inactive)
REMARK    1  A    between atoms: C_1  and  C_3 
REMARK       I    between atoms: N_2  and  C_6 
REMARK       I    between atoms: C_3  and  N_7 
REMARK    2  A    between atoms: C_6  and  C_10 
REMARK    3  A    between atoms: C_10  and  C_14 
REMARK    4  A    between atoms: C_10  and  N_15 
REMARK    5  A    between atoms: C_12  and  C_17 
REMARK    6  A    between atoms: C_14  and  C_19 
REMARK       I    between atoms: C_17  and  N_20 
REMARK    7  A    between atoms: C_19  and  C_22 
REMARK    8  A    between atoms: N_20  and  C_23 
REMARK    9  A    between atoms: C_22  and  N_24 
REMARK   10  A    between atoms: C_23  and  C_25 
REMARK       I    between atoms: N_24  and  C_26 
REMARK       I    between atoms: C_25  and  N_27 
REMARK       I    between atoms: C_26  and  N_29 
REMARK   11  A    between atoms: N_27  and  C_32 
REMARK   12  A    between atoms: C_32  and  C_33 
REMARK   13  A    between atoms: C_32  and  C_34 
REMARK   14  A    between atoms: C_33  and  C_35 
REMARK       I    between atoms: C_34  and  N_36 
REMARK   15  A    between atoms: N_36  and  C_40 
REMARK   16  A    between atoms: C_40  and  C_43 
REMARK   17  A    between atoms: C_40  and  C_44 
REMARK       I    between atoms: C_43  and  N_46 
REMARK   18  A    between atoms: C_44  and  O_48 
REMARK   19  A    between atoms: C_49  and  C_51 
REMARK       I    between atoms: C_51  and  N_54 
REMARK   20  A    between atoms: N_54  and  C_56 
REMARK   21  A    between atoms: C_56  and  C_57 
REMARK   22  A    between atoms: C_56  and  C_58 
REMARK   23  A    between atoms: C_57  and  C_59 
REMARK       I    between atoms: C_58  and  N_60 
REMARK   24  A    between atoms: N_60  and  C_64 
REMARK   25  A    between atoms: C_64  and  C_67 
REMARK   26  A    between atoms: C_64  and  C_68 
REMARK   27  A    between atoms: C_67  and  C_70 
REMARK   28  A    between atoms: C_68  and  O_71 
REMARK   29  A    between atoms: C_70  and  C_73 
REMARK   30  A    between atoms: C_73  and  N_74 
REMARK       I    between atoms: N_74  and  C_75 
REMARK       I    between atoms: C_75  and  N_76 
ROOT
HETATM    1  C   UNK N   1      28.165  15.363   4.872  0.00  0.00     0.241 C 
HETATM    2  N   UNK N   1      27.836  14.563   3.832  0.00  0.00    -0.344 N 
HETATM    3  O   UNK N   1      27.884  15.035   6.015  0.00  0.00    -0.271 OA
HETATM    4  H   UNK N   1      28.025  14.882   2.920  0.00  0.00     0.163 HD
ENDROOT
BRANCH   1   5
HETATM    5  C   UNK N   1      28.956  16.612   4.589  0.00  0.00     0.180 C 
BRANCH   5   6
HETATM    6  N   UNK N   1      30.406  16.582   4.671  0.00  0.00    -0.346 N 
HETATM    7  C   UNK N   1      31.221  15.717   4.014  0.00  0.00     0.236 C 
HETATM    8  O   UNK N   1      30.768  14.828   3.312  0.00  0.00    -0.272 OA
HETATM    9  H   UNK N   1      30.836  17.249   5.254  0.00  0.00     0.163 HD
BRANCH   7  10
HETATM   10  C   UNK N   1      32.704  15.855   4.165  0.00  0.00     0.225 C 
BRANCH  10  11
HETATM   11  N   UNK N   1      33.298  14.718   4.833  0.00  0.00    -0.351 N 
HETATM   12  C   UNK N   1      34.431  14.804   5.567  0.00  0.00     0.241 C 
HETATM   13  O   UNK N   1      35.022  15.872   5.669  0.00  0.00    -0.271 OA
HETATM   14  H   UNK N   1      32.859  13.841   4.749  0.00  0.00     0.163 HD
BRANCH  12  15
HETATM   15  C   UNK N   1      34.946  13.580   6.284  0.00  0.00     0.179 C 
HETATM   16  N   UNK N   1      36.246  13.855   6.832  0.00  0.00    -0.337 N 
HETATM   17  C   UNK N   1      36.482  14.056   8.163  0.00  0.00     0.243 C 
HETATM   18  C   UNK N   1      37.322  13.596   5.915  0.00  0.00     0.127 C 
HETATM   19  O   UNK N   1      37.633  14.188   8.560  0.00  0.00    -0.271 OA
HETATM   20  C   UNK N   1      36.679  12.769   4.804  0.00  0.00     0.022 C 
HETATM   21  C   UNK N   1      35.240  12.500   5.258  0.00  0.00     0.037 C 
BRANCH  17  22
HETATM   22  C   UNK N   1      35.354  14.028   9.176  0.00  0.00     0.179 C 
HETATM   23  N   UNK N   1      35.476  15.053  10.188  0.00  0.00    -0.337 N 
HETATM   24  C   UNK N   1      35.924  14.570  11.468  0.00  0.00     0.127 C 
HETATM   25  C   UNK N   1      35.073  16.352  10.033  0.00  0.00     0.242 C 
HETATM   26  C   UNK N   1      36.207  13.096  11.252  0.00  0.00     0.022 C 
HETATM   27  C   UNK N   1      35.470  12.731   9.967  0.00  0.00     0.037 C 
HETATM   28  O   UNK N   1      35.118  17.116  10.984  0.00  0.00    -0.271 OA
BRANCH  25  29
HETATM   29  C   UNK N   1      34.559  16.855   8.704  0.00  0.00     0.167 C 
BRANCH  29  30
HETATM   30  C   UNK N   1      33.067  16.616   8.493  0.00  0.00     0.036 C 
BRANCH  30  31
HETATM   31  C   UNK N   1      32.338  17.779   7.844  0.00  0.00     0.023 C 
BRANCH  31  32
HETATM   32  C   UNK N   1      31.102  18.014   8.687  0.00  0.00     0.138 C 
BRANCH  32  33
HETATM   33  N   UNK N   1      29.897  17.716   7.955  0.00  0.00    -0.227 N 
HETATM   34  C   UNK N   1      28.698  17.368   8.627  0.00  0.00     0.665 C 
HETATM   35  N   UNK N   1      27.492  17.279   7.901  0.00  0.00    -0.235 N 
HETATM   36  N   UNK N   1      28.681  17.228   9.903  0.00  0.00    -0.235 N 
HETATM   37  H   UNK N   1      26.701  16.756   8.169  0.00  0.00     0.174 HD
HETATM   38  H   UNK N   1      27.436  17.781   7.055  0.00  0.00     0.174 HD
HETATM   39  H   UNK N   1      29.470  17.254  10.492  0.00  0.00     0.174 HD
ATOM     40  HN  UNK N   1      27.774  17.076  10.344  1.00  0.00     0.174 HD
HETATM   41  H   UNK N   1      29.907  17.754   6.972  0.00  0.00     0.177 HD
ENDBRANCH  32  33
ENDBRANCH  31  32
ENDBRANCH  30  31
ENDBRANCH  29  30
BRANCH  29  42
HETATM   42  N   UNK N   1      34.770  18.288   8.652  0.00  0.00    -0.418 N 
HETATM   43  H   UNK N   1      34.849  19.027   7.953  0.00  0.00     0.150 HD
HETATM   44  H   UNK N   1      34.869  18.671   9.592  0.00  0.00     0.150 HD
ENDBRANCH  29  42
ENDBRANCH  25  29
ENDBRANCH  17  22
ENDBRANCH  12  15
ENDBRANCH  10  11
ENDBRANCH   7  10
ENDBRANCH   5   6
BRANCH   5  45
HETATM   45  C   UNK N   1      28.363  17.577   3.564  0.00  0.00     0.073 C 
BRANCH  45  46
HETATM   46  C   UNK N   1      27.622  18.715   4.184  0.00  0.00    -0.056 A 
HETATM   47  C   UNK N   1      28.233  19.520   5.149  0.00  0.00     0.007 A 
HETATM   48  C   UNK N   1      27.528  20.573   5.736  0.00  0.00     0.001 A 
HETATM   49  C   UNK N   1      26.204  20.820   5.363  0.00  0.00     0.000 A 
HETATM   50  C   UNK N   1      25.586  20.011   4.405  0.00  0.00     0.001 A 
HETATM   51  C   UNK N   1      26.293  18.956   3.819  0.00  0.00     0.007 A 
ENDBRANCH  45  46
ENDBRANCH   5  45
ENDBRANCH   1   5
BRANCH   2  52
HETATM   52  C   UNK N   1      27.219  13.265   3.989  0.00  0.00     0.200 C 
BRANCH  52  53
HETATM   53  C   UNK N   1      26.689  12.811   2.659  0.00  0.00     0.245 C 
HETATM   54  N   UNK N   1      25.701  11.877   2.578  0.00  0.00    -0.337 N 
HETATM   55  C   UNK N   1      25.154  11.204   3.733  0.00  0.00     0.179 A 
HETATM   56  C   UNK N   1      25.202  11.414   1.316  0.00  0.00     0.127 A 
HETATM   57  C   UNK N   1      24.236  10.132   3.161  0.00  0.00     0.037 A 
HETATM   58  C   UNK N   1      24.187  10.336   1.648  0.00  0.00     0.022 A 
HETATM   59  O   UNK N   1      27.161  13.288   1.632  0.00  0.00    -0.271 OA
BRANCH  55  60
HETATM   60  C   UNK N   1      24.359  12.092   4.659  0.00  0.00     0.241 C 
HETATM   61  N   UNK N   1      24.741  12.281   5.955  0.00  0.00    -0.346 N 
HETATM   62  H   UNK N   1      25.464  11.708   6.300  0.00  0.00     0.163 HD
HETATM   63  O   UNK N   1      23.378  12.666   4.208  0.00  0.00    -0.271 OA
BRANCH  61  64
HETATM   64  C   UNK N   1      24.172  13.263   6.874  0.00  0.00     0.180 C 
BRANCH  64  65
HETATM   65  C   UNK N   1      24.859  13.334   8.246  0.00  0.00     0.073 C 
BRANCH  65  66
HETATM   66  C   UNK N   1      24.089  12.883   9.434  0.00  0.00    -0.056 A 
HETATM   67  C   UNK N   1      24.707  12.312  10.553  0.00  0.00     0.007 A 
HETATM   68  C   UNK N   1      23.934  11.923  11.649  0.00  0.00     0.001 A 
HETATM   69  C   UNK N   1      22.548  12.106  11.629  0.00  0.00     0.000 A 
HETATM   70  C   UNK N   1      21.932  12.674  10.512  0.00  0.00     0.001 A 
HETATM   71  C   UNK N   1      22.703  13.062   9.416  0.00  0.00     0.007 A 
ENDBRANCH  65  66
ENDBRANCH  64  65
BRANCH  64  72
HETATM   72  C   UNK N   1      24.198  14.670   6.379  0.00  0.00     0.241 C 
HETATM   73  N   UNK N   1      23.034  15.118   5.859  0.00  0.00    -0.345 N 
HETATM   74  H   UNK N   1      22.692  14.727   5.023  0.00  0.00     0.163 HD
HETATM   75  O   UNK N   1      24.978  15.460   6.894  0.00  0.00    -0.271 OA
BRANCH  73  76
HETATM   76  C   UNK N   1      22.292  16.162   6.518  0.00  0.00     0.182 C 
BRANCH  76  77
HETATM   77  C   UNK N   1      20.864  15.660   6.709  0.00  0.00     0.038 C 
BRANCH  77  78
HETATM   78  C   UNK N   1      20.458  15.703   8.172  0.00  0.00     0.023 C 
BRANCH  78  79
HETATM   79  C   UNK N   1      19.245  16.601   8.380  0.00  0.00     0.138 C 
BRANCH  79  80
HETATM   80  N   UNK N   1      19.608  17.783   9.127  0.00  0.00    -0.227 N 
HETATM   81  C   UNK N   1      18.659  18.506   9.894  0.00  0.00     0.665 C 
HETATM   82  N   UNK N   1      19.049  19.693  10.550  0.00  0.00    -0.235 N 
HETATM   83  N   UNK N   1      17.452  18.087  10.005  0.00  0.00    -0.235 N 
HETATM   84  H   UNK N   1      18.608  20.122  11.319  0.00  0.00     0.174 HD
HETATM   85  H   UNK N   1      19.852  20.142  10.201  0.00  0.00     0.174 HD
HETATM   86  H   UNK N   1      17.163  17.191   9.715  0.00  0.00     0.174 HD
ATOM     87  HN  UNK N   1      16.757  18.712  10.412  1.00  0.00     0.174 HD
HETATM   88  H   UNK N   1      20.540  18.095   9.102  0.00  0.00     0.177 HD
ENDBRANCH  79  80
ENDBRANCH  78  79
ENDBRANCH  77  78
ENDBRANCH  76  77
BRANCH  76  89
HETATM   89  C   UNK N   1      22.378  17.475   5.815  0.00  0.00     0.163 C 
HETATM   90  O   UNK N   1      22.588  17.531   4.615  0.00  0.00    -0.648 OA
BRANCH  89  91
HETATM   91  O   UNK N   1      22.118  18.600   6.500  0.00  0.00    -0.775 OA
HETATM   92  H   UNK N   1      22.105  18.883   7.393  0.00  0.00     0.167 HD
ENDBRANCH  89  91
ENDBRANCH  76  89
ENDBRANCH  73  76
ENDBRANCH  64  72
ENDBRANCH  61  64
ENDBRANCH  55  60
ENDBRANCH  52  53
BRANCH  52  93
HETATM   93  C   UNK N   1      28.220  12.259   4.562  0.00  0.00     0.199 C 
BRANCH  93  94
HETATM   94  O   UNK N   1      29.336  12.133   3.733  0.00  0.00    -0.398 OA
HETATM   95  H   UNK N   1      29.608  11.469   3.080  0.00  0.00     0.209 HD
ENDBRANCH  93  94
ENDBRANCH  52  93
ENDBRANCH   2  52
TORSDOF 30
ENDMDL
MODEL 8
REMARK VINA RESULT:      -8.3      2.314      6.587
REMARK  30 active torsions:
REMARK  status: ('A' for Active; 'I' for Inactive)
REMARK    1  A    between atoms: C_1  and  C_3 
REMARK       I    between atoms: N_2  and  C_6 
REMARK       I    between atoms: C_3  and  N_7 
REMARK    2  A    between atoms: C_6  and  C_10 
REMARK    3  A    between atoms: C_10  and  C_14 
REMARK    4  A    between atoms: C_10  and  N_15 
REMARK    5  A    between atoms: C_12  and  C_17 
REMARK    6  A    between atoms: C_14  and  C_19 
REMARK       I    between atoms: C_17  and  N_20 
REMARK    7  A    between atoms: C_19  and  C_22 
REMARK    8  A    between atoms: N_20  and  C_23 
REMARK    9  A    between atoms: C_22  and  N_24 
REMARK   10  A    between atoms: C_23  and  C_25 
REMARK       I    between atoms: N_24  and  C_26 
REMARK       I    between atoms: C_25  and  N_27 
REMARK       I    between atoms: C_26  and  N_29 
REMARK   11  A    between atoms: N_27  and  C_32 
REMARK   12  A    between atoms: C_32  and  C_33 
REMARK   13  A    between atoms: C_32  and  C_34 
REMARK   14  A    between atoms: C_33  and  C_35 
REMARK       I    between atoms: C_34  and  N_36 
REMARK   15  A    between atoms: N_36  and  C_40 
REMARK   16  A    between atoms: C_40  and  C_43 
REMARK   17  A    between atoms: C_40  and  C_44 
REMARK       I    between atoms: C_43  and  N_46 
REMARK   18  A    between atoms: C_44  and  O_48 
REMARK   19  A    between atoms: C_49  and  C_51 
REMARK       I    between atoms: C_51  and  N_54 
REMARK   20  A    between atoms: N_54  and  C_56 
REMARK   21  A    between atoms: C_56  and  C_57 
REMARK   22  A    between atoms: C_56  and  C_58 
REMARK   23  A    between atoms: C_57  and  C_59 
REMARK       I    between atoms: C_58  and  N_60 
REMARK   24  A    between atoms: N_60  and  C_64 
REMARK   25  A    between atoms: C_64  and  C_67 
REMARK   26  A    between atoms: C_64  and  C_68 
REMARK   27  A    between atoms: C_67  and  C_70 
REMARK   28  A    between atoms: C_68  and  O_71 
REMARK   29  A    between atoms: C_70  and  C_73 
REMARK   30  A    between atoms: C_73  and  N_74 
REMARK       I    between atoms: N_74  and  C_75 
REMARK       I    between atoms: C_75  and  N_76 
ROOT
HETATM    1  C   UNK N   1      23.128  13.965   6.889  0.00  0.00     0.241 C 
HETATM    2  N   UNK N   1      22.014  13.803   7.639  0.00  0.00    -0.344 N 
HETATM    3  O   UNK N   1      24.058  14.640   7.302  0.00  0.00    -0.271 OA
HETATM    4  H   UNK N   1      21.260  13.301   7.254  0.00  0.00     0.163 HD
ENDROOT
BRANCH   1   5
HETATM    5  C   UNK N   1      23.220  13.226   5.581  0.00  0.00     0.180 C 
BRANCH   5   6
HETATM    6  N   UNK N   1      24.250  13.584   4.620  0.00  0.00    -0.346 N 
HETATM    7  C   UNK N   1      25.557  13.224   4.686  0.00  0.00     0.236 C 
HETATM    8  O   UNK N   1      25.991  12.583   5.630  0.00  0.00    -0.272 OA
HETATM    9  H   UNK N   1      23.975  14.136   3.853  0.00  0.00     0.163 HD
BRANCH   7  10
HETATM   10  C   UNK N   1      26.483  13.632   3.583  0.00  0.00     0.225 C 
BRANCH  10  11
HETATM   11  N   UNK N   1      27.693  12.840   3.558  0.00  0.00    -0.351 N 
HETATM   12  C   UNK N   1      28.924  13.370   3.748  0.00  0.00     0.241 C 
HETATM   13  O   UNK N   1      29.058  14.574   3.925  0.00  0.00    -0.271 OA
HETATM   14  H   UNK N   1      27.619  11.873   3.395  0.00  0.00     0.163 HD
BRANCH  12  15
HETATM   15  C   UNK N   1      30.127  12.460   3.772  0.00  0.00     0.179 C 
HETATM   16  N   UNK N   1      31.142  12.983   2.898  0.00  0.00    -0.337 N 
HETATM   17  C   UNK N   1      32.283  13.592   3.339  0.00  0.00     0.243 C 
HETATM   18  C   UNK N   1      31.011  12.542   1.537  0.00  0.00     0.127 C 
HETATM   19  O   UNK N   1      33.143  13.923   2.532  0.00  0.00    -0.271 OA
HETATM   20  C   UNK N   1      30.031  11.373   1.612  0.00  0.00     0.022 C 
HETATM   21  C   UNK N   1      29.761  11.147   3.105  0.00  0.00     0.037 C 
BRANCH  17  22
HETATM   22  C   UNK N   1      32.551  13.787   4.819  0.00  0.00     0.179 C 
HETATM   23  N   UNK N   1      33.498  14.845   5.090  0.00  0.00    -0.337 N 
HETATM   24  C   UNK N   1      34.811  14.384   5.456  0.00  0.00     0.127 C 
HETATM   25  C   UNK N   1      33.182  16.175   5.149  0.00  0.00     0.242 C 
HETATM   26  C   UNK N   1      34.745  12.875   5.329  0.00  0.00     0.022 C 
HETATM   27  C   UNK N   1      33.257  12.538   5.333  0.00  0.00     0.037 C 
HETATM   28  O   UNK N   1      34.031  16.983   5.492  0.00  0.00    -0.271 OA
BRANCH  25  29
HETATM   29  C   UNK N   1      31.792  16.662   4.809  0.00  0.00     0.167 C 
BRANCH  29  30
HETATM   30  C   UNK N   1      31.049  17.270   5.994  0.00  0.00     0.036 C 
BRANCH  30  31
HETATM   31  C   UNK N   1      30.750  16.285   7.111  0.00  0.00     0.023 C 
BRANCH  31  32
HETATM   32  C   UNK N   1      31.220  16.952   8.387  0.00  0.00     0.138 C 
BRANCH  32  33
HETATM   33  N   UNK N   1      32.291  17.882   8.135  0.00  0.00    -0.227 N 
HETATM   34  C   UNK N   1      33.572  17.701   8.717  0.00  0.00     0.665 C 
HETATM   35  N   UNK N   1      34.650  18.508   8.296  0.00  0.00    -0.235 N 
HETATM   36  N   UNK N   1      33.781  16.749   9.552  0.00  0.00    -0.235 N 
HETATM   37  H   UNK N   1      35.460  18.698   8.822  0.00  0.00     0.174 HD
HETATM   38  H   UNK N   1      34.586  18.916   7.402  0.00  0.00     0.174 HD
HETATM   39  H   UNK N   1      33.092  16.148   9.919  0.00  0.00     0.174 HD
ATOM     40  HN  UNK N   1      34.741  16.604   9.863  1.00  0.00     0.174 HD
HETATM   41  H   UNK N   1      32.131  18.656   7.548  0.00  0.00     0.177 HD
ENDBRANCH  32  33
ENDBRANCH  31  32
ENDBRANCH  30  31
ENDBRANCH  29  30
BRANCH  29  42
HETATM   42  N   UNK N   1      31.911  17.700   3.804  0.00  0.00    -0.418 N 
HETATM   43  H   UNK N   1      31.532  18.626   3.610  0.00  0.00     0.150 HD
HETATM   44  H   UNK N   1      32.569  17.421   3.076  0.00  0.00     0.150 HD
ENDBRANCH  29  42
ENDBRANCH  25  29
ENDBRANCH  17  22
ENDBRANCH  12  15
ENDBRANCH  10  11
ENDBRANCH   7  10
ENDBRANCH   5   6
BRANCH   5  45
HETATM   45  C   UNK N   1      22.802  11.756   5.595  0.00  0.00     0.073 C 
BRANCH  45  46
HETATM   46  C   UNK N   1      21.625  11.469   4.722  0.00  0.00    -0.056 A 
HETATM   47  C   UNK N   1      21.799  10.879   3.467  0.00  0.00     0.007 A 
HETATM   48  C   UNK N   1      20.695  10.626   2.650  0.00  0.00     0.001 A 
HETATM   49  C   UNK N   1      19.413  10.972   3.083  0.00  0.00     0.000 A 
HETATM   50  C   UNK N   1      19.235  11.572   4.333  0.00  0.00     0.001 A 
HETATM   51  C   UNK N   1      20.341  11.824   5.151  0.00  0.00     0.007 A 
ENDBRANCH  45  46
ENDBRANCH   5  45
ENDBRANCH   1   5
BRANCH   2  52
HETATM   52  C   UNK N   1      21.872  14.330   8.978  0.00  0.00     0.200 C 
BRANCH  52  53
HETATM   53  C   UNK N   1      20.411  14.460   9.300  0.00  0.00     0.245 C 
HETATM   54  N   UNK N   1      19.743  15.628   9.080  0.00  0.00    -0.337 N 
HETATM   55  C   UNK N   1      20.389  16.830   8.609  0.00  0.00     0.179 A 
HETATM   56  C   UNK N   1      18.355  15.776   9.407  0.00  0.00     0.127 A 
HETATM   57  C   UNK N   1      19.318  17.908   8.695  0.00  0.00     0.037 A 
HETATM   58  C   UNK N   1      18.014  17.220   9.095  0.00  0.00     0.022 A 
HETATM   59  O   UNK N   1      19.815  13.498   9.774  0.00  0.00    -0.271 OA
BRANCH  55  60
HETATM   60  C   UNK N   1      20.900  16.753   7.190  0.00  0.00     0.241 C 
HETATM   61  N   UNK N   1      20.102  16.309   6.176  0.00  0.00    -0.346 N 
HETATM   62  H   UNK N   1      19.238  15.907   6.426  0.00  0.00     0.163 HD
HETATM   63  O   UNK N   1      22.041  17.131   6.966  0.00  0.00    -0.271 OA
BRANCH  61  64
HETATM   64  C   UNK N   1      20.419  16.380   4.753  0.00  0.00     0.180 C 
BRANCH  64  65
HETATM   65  C   UNK N   1      19.575  15.460   3.859  0.00  0.00     0.073 C 
BRANCH  65  66
HETATM   66  C   UNK N   1      20.247  14.791   2.716  0.00  0.00    -0.056 A 
HETATM   67  C   UNK N   1      19.533  14.240   1.645  0.00  0.00     0.007 A 
HETATM   68  C   UNK N   1      20.220  13.640   0.589  0.00  0.00     0.001 A 
HETATM   69  C   UNK N   1      21.617  13.591   0.599  0.00  0.00     0.000 A 
HETATM   70  C   UNK N   1      22.330  14.140   1.667  0.00  0.00     0.001 A 
HETATM   71  C   UNK N   1      21.644  14.739   2.724  0.00  0.00     0.007 A 
ENDBRANCH  65  66
ENDBRANCH  64  65
BRANCH  64  72
HETATM   72  C   UNK N   1      20.254  17.732   4.144  0.00  0.00     0.241 C 
HETATM   73  N   UNK N   1      21.254  18.604   4.403  0.00  0.00    -0.345 N 
HETATM   74  H   UNK N   1      21.393  18.928   5.322  0.00  0.00     0.163 HD
HETATM   75  O   UNK N   1      19.609  17.836   3.110  0.00  0.00    -0.271 OA
BRANCH  73  76
HETATM   76  C   UNK N   1      22.117  19.063   3.344  0.00  0.00     0.182 C 
BRANCH  76  77
HETATM   77  C   UNK N   1      23.549  19.017   3.867  0.00  0.00     0.038 C 
BRANCH  77  78
HETATM   78  C   UNK N   1      23.980  17.591   4.166  0.00  0.00     0.023 C 
BRANCH  78  79
HETATM   79  C   UNK N   1      25.498  17.463   4.167  0.00  0.00     0.138 C 
BRANCH  79  80
HETATM   80  N   UNK N   1      26.054  17.995   5.388  0.00  0.00    -0.227 N 
HETATM   81  C   UNK N   1      27.004  17.274   6.157  0.00  0.00     0.665 C 
HETATM   82  N   UNK N   1      27.465  17.809   7.379  0.00  0.00    -0.235 N 
HETATM   83  N   UNK N   1      27.453  16.145   5.748  0.00  0.00    -0.235 N 
HETATM   84  H   UNK N   1      28.297  17.581   7.852  0.00  0.00     0.174 HD
HETATM   85  H   UNK N   1      26.891  18.486   7.805  0.00  0.00     0.174 HD
HETATM   86  H   UNK N   1      27.301  15.801   4.838  0.00  0.00     0.174 HD
ATOM     87  HN  UNK N   1      27.994  15.574   6.398  1.00  0.00     0.174 HD
HETATM   88  H   UNK N   1      25.766  18.884   5.696  0.00  0.00     0.177 HD
ENDBRANCH  79  80
ENDBRANCH  78  79
ENDBRANCH  77  78
ENDBRANCH  76  77
BRANCH  76  89
HETATM   89  C   UNK N   1      21.718  20.393   2.799  0.00  0.00     0.163 C 
HETATM   90  O   UNK N   1      22.458  21.358   2.897  0.00  0.00    -0.648 OA
BRANCH  89  91
HETATM   91  O   UNK N   1      20.576  20.497   2.101  0.00  0.00    -0.775 OA
HETATM   92  H   UNK N   1      19.842  19.955   1.885  0.00  0.00     0.167 HD
ENDBRANCH  89  91
ENDBRANCH  76  89
ENDBRANCH  73  76
ENDBRANCH  64  72
ENDBRANCH  61  64
ENDBRANCH  55  60
ENDBRANCH  52  53
BRANCH  52  93
HETATM   93  C   UNK N   1      22.587  13.432   9.990  0.00  0.00     0.199 C 
BRANCH  93  94
HETATM   94  O   UNK N   1      22.306  12.085   9.751  0.00  0.00    -0.398 OA
HETATM   95  H   UNK N   1      21.502  11.611   9.487  0.00  0.00     0.209 HD
ENDBRANCH  93  94
ENDBRANCH  52  93
ENDBRANCH   2  52
TORSDOF 30
ENDMDL
MODEL 9
REMARK VINA RESULT:      -8.2      2.377     11.961
REMARK  30 active torsions:
REMARK  status: ('A' for Active; 'I' for Inactive)
REMARK    1  A    between atoms: C_1  and  C_3 
REMARK       I    between atoms: N_2  and  C_6 
REMARK       I    between atoms: C_3  and  N_7 
REMARK    2  A    between atoms: C_6  and  C_10 
REMARK    3  A    between atoms: C_10  and  C_14 
REMARK    4  A    between atoms: C_10  and  N_15 
REMARK    5  A    between atoms: C_12  and  C_17 
REMARK    6  A    between atoms: C_14  and  C_19 
REMARK       I    between atoms: C_17  and  N_20 
REMARK    7  A    between atoms: C_19  and  C_22 
REMARK    8  A    between atoms: N_20  and  C_23 
REMARK    9  A    between atoms: C_22  and  N_24 
REMARK   10  A    between atoms: C_23  and  C_25 
REMARK       I    between atoms: N_24  and  C_26 
REMARK       I    between atoms: C_25  and  N_27 
REMARK       I    between atoms: C_26  and  N_29 
REMARK   11  A    between atoms: N_27  and  C_32 
REMARK   12  A    between atoms: C_32  and  C_33 
REMARK   13  A    between atoms: C_32  and  C_34 
REMARK   14  A    between atoms: C_33  and  C_35 
REMARK       I    between atoms: C_34  and  N_36 
REMARK   15  A    between atoms: N_36  and  C_40 
REMARK   16  A    between atoms: C_40  and  C_43 
REMARK   17  A    between atoms: C_40  and  C_44 
REMARK       I    between atoms: C_43  and  N_46 
REMARK   18  A    between atoms: C_44  and  O_48 
REMARK   19  A    between atoms: C_49  and  C_51 
REMARK       I    between atoms: C_51  and  N_54 
REMARK   20  A    between atoms: N_54  and  C_56 
REMARK   21  A    between atoms: C_56  and  C_57 
REMARK   22  A    between atoms: C_56  and  C_58 
REMARK   23  A    between atoms: C_57  and  C_59 
REMARK       I    between atoms: C_58  and  N_60 
REMARK   24  A    between atoms: N_60  and  C_64 
REMARK   25  A    between atoms: C_64  and  C_67 
REMARK   26  A    between atoms: C_64  and  C_68 
REMARK   27  A    between atoms: C_67  and  C_70 
REMARK   28  A    between atoms: C_68  and  O_71 
REMARK   29  A    between atoms: C_70  and  C_73 
REMARK   30  A    between atoms: C_73  and  N_74 
REMARK       I    between atoms: N_74  and  C_75 
REMARK       I    between atoms: C_75  and  N_76 
ROOT
HETATM    1  C   UNK N   1      30.026  16.163   4.806  0.00  0.00     0.241 C 
HETATM    2  N   UNK N   1      30.930  15.977   3.817  0.00  0.00    -0.344 N 
HETATM    3  O   UNK N   1      30.394  16.263   5.967  0.00  0.00    -0.271 OA
HETATM    4  H   UNK N   1      30.597  15.842   2.899  0.00  0.00     0.163 HD
ENDROOT
BRANCH   1   5
HETATM    5  C   UNK N   1      28.578  16.327   4.428  0.00  0.00     0.180 C 
BRANCH   5   6
HETATM    6  N   UNK N   1      27.543  16.111   5.425  0.00  0.00    -0.346 N 
HETATM    7  C   UNK N   1      26.574  15.161   5.370  0.00  0.00     0.236 C 
HETATM    8  O   UNK N   1      26.469  14.417   4.409  0.00  0.00    -0.272 OA
HETATM    9  H   UNK N   1      27.545  16.705   6.210  0.00  0.00     0.163 HD
BRANCH   7  10
HETATM   10  C   UNK N   1      25.612  15.035   6.510  0.00  0.00     0.225 C 
BRANCH  10  11
HETATM   11  N   UNK N   1      24.608  16.076   6.502  0.00  0.00    -0.351 N 
HETATM   12  C   UNK N   1      23.333  15.867   6.099  0.00  0.00     0.241 C 
HETATM   13  O   UNK N   1      22.987  14.765   5.691  0.00  0.00    -0.271 OA
HETATM   14  H   UNK N   1      24.863  16.977   6.802  0.00  0.00     0.163 HD
BRANCH  12  15
HETATM   15  C   UNK N   1      22.333  16.994   6.185  0.00  0.00     0.179 C 
HETATM   16  N   UNK N   1      21.023  16.500   5.858  0.00  0.00    -0.337 N 
HETATM   17  C   UNK N   1      20.037  16.291   6.781  0.00  0.00     0.243 C 
HETATM   18  C   UNK N   1      20.732  16.537   4.451  0.00  0.00     0.127 C 
HETATM   19  O   UNK N   1      18.919  15.961   6.407  0.00  0.00    -0.271 OA
HETATM   20  C   UNK N   1      21.814  17.441   3.865  0.00  0.00     0.022 C 
HETATM   21  C   UNK N   1      22.607  17.978   5.063  0.00  0.00     0.037 C 
BRANCH  17  22
HETATM   22  C   UNK N   1      20.274  16.546   8.257  0.00  0.00     0.179 C 
HETATM   23  N   UNK N   1      19.684  15.538   9.108  0.00  0.00    -0.337 N 
HETATM   24  C   UNK N   1      18.478  15.956   9.774  0.00  0.00     0.127 C 
HETATM   25  C   UNK N   1      20.263  14.332   9.401  0.00  0.00     0.242 C 
HETATM   26  C   UNK N   1      18.200  17.347   9.239  0.00  0.00     0.022 C 
HETATM   27  C   UNK N   1      19.521  17.816   8.636  0.00  0.00     0.037 C 
HETATM   28  O   UNK N   1      19.737  13.592  10.218  0.00  0.00    -0.271 OA
BRANCH  25  29
HETATM   29  C   UNK N   1      21.553  13.906   8.741  0.00  0.00     0.167 C 
BRANCH  29  30
HETATM   30  C   UNK N   1      22.531  13.221   9.690  0.00  0.00     0.036 C 
BRANCH  30  31
HETATM   31  C   UNK N   1      22.627  11.717   9.502  0.00  0.00     0.023 C 
BRANCH  31  32
HETATM   32  C   UNK N   1      23.966  11.468   8.839  0.00  0.00     0.138 C 
BRANCH  32  33
HETATM   33  N   UNK N   1      23.883  10.419   7.855  0.00  0.00    -0.227 N 
HETATM   34  C   UNK N   1      24.011  10.700   6.471  0.00  0.00     0.665 C 
HETATM   35  N   UNK N   1      24.127   9.637   5.551  0.00  0.00    -0.235 N 
HETATM   36  N   UNK N   1      24.118  11.911   6.058  0.00  0.00    -0.235 N 
HETATM   37  H   UNK N   1      23.902   9.684   4.593  0.00  0.00     0.174 HD
HETATM   38  H   UNK N   1      24.459   8.777   5.895  0.00  0.00     0.174 HD
HETATM   39  H   UNK N   1      24.033  12.716   6.618  0.00  0.00     0.174 HD
ATOM     40  HN  UNK N   1      24.307  12.050   5.065  1.00  0.00     0.174 HD
HETATM   41  H   UNK N   1      23.735   9.492   8.149  0.00  0.00     0.177 HD
ENDBRANCH  32  33
ENDBRANCH  31  32
ENDBRANCH  30  31
ENDBRANCH  29  30
BRANCH  29  42
HETATM   42  N   UNK N   1      21.232  12.950   7.699  0.00  0.00    -0.418 N 
HETATM   43  H   UNK N   1      21.179  11.939   7.576  0.00  0.00     0.150 HD
HETATM   44  H   UNK N   1      20.984  13.431   6.834  0.00  0.00     0.150 HD
ENDBRANCH  29  42
ENDBRANCH  25  29
ENDBRANCH  17  22
ENDBRANCH  12  15
ENDBRANCH  10  11
ENDBRANCH   7  10
ENDBRANCH   5   6
BRANCH   5  45
HETATM   45  C   UNK N   1      28.266  17.370   3.356  0.00  0.00     0.073 C 
BRANCH  45  46
HETATM   46  C   UNK N   1      27.582  18.583   3.894  0.00  0.00    -0.056 A 
HETATM   47  C   UNK N   1      28.242  19.437   4.782  0.00  0.00     0.007 A 
HETATM   48  C   UNK N   1      27.590  20.561   5.293  0.00  0.00     0.001 A 
HETATM   49  C   UNK N   1      26.270  20.830   4.923  0.00  0.00     0.000 A 
HETATM   50  C   UNK N   1      25.603  19.974   4.043  0.00  0.00     0.001 A 
HETATM   51  C   UNK N   1      26.256  18.848   3.532  0.00  0.00     0.007 A 
ENDBRANCH  45  46
ENDBRANCH   5  45
ENDBRANCH   1   5
BRANCH   2  52
HETATM   52  C   UNK N   1      32.358  15.962   4.035  0.00  0.00     0.200 C 
BRANCH  52  53
HETATM   53  C   UNK N   1      32.792  14.557   4.343  0.00  0.00     0.245 C 
HETATM   54  N   UNK N   1      33.940  14.313   5.036  0.00  0.00    -0.337 N 
HETATM   55  C   UNK N   1      34.851  15.354   5.448  0.00  0.00     0.179 A 
HETATM   56  C   UNK N   1      34.381  12.977   5.316  0.00  0.00     0.127 A 
HETATM   57  C   UNK N   1      36.060  14.615   6.007  0.00  0.00     0.037 A 
HETATM   58  C   UNK N   1      35.716  13.127   6.019  0.00  0.00     0.022 A 
HETATM   59  O   UNK N   1      32.102  13.620   3.958  0.00  0.00    -0.271 OA
BRANCH  55  60
HETATM   60  C   UNK N   1      34.306  16.282   6.507  0.00  0.00     0.241 C 
HETATM   61  N   UNK N   1      33.645  15.797   7.598  0.00  0.00    -0.346 N 
HETATM   62  H   UNK N   1      33.412  14.840   7.594  0.00  0.00     0.163 HD
HETATM   63  O   UNK N   1      34.502  17.482   6.379  0.00  0.00    -0.271 OA
BRANCH  61  64
HETATM   64  C   UNK N   1      33.256  16.575   8.770  0.00  0.00     0.180 C 
BRANCH  64  65
HETATM   65  C   UNK N   1      31.961  16.108   9.451  0.00  0.00     0.073 C 
BRANCH  65  66
HETATM   66  C   UNK N   1      30.738  16.930   9.260  0.00  0.00    -0.056 A 
HETATM   67  C   UNK N   1      29.472  16.493   9.667  0.00  0.00     0.007 A 
HETATM   68  C   UNK N   1      28.361  17.317   9.477  0.00  0.00     0.001 A 
HETATM   69  C   UNK N   1      28.513  18.575   8.886  0.00  0.00     0.000 A 
HETATM   70  C   UNK N   1      29.777  19.010   8.480  0.00  0.00     0.001 A 
HETATM   71  C   UNK N   1      30.887  18.187   8.667  0.00  0.00     0.007 A 
ENDBRANCH  65  66
ENDBRANCH  64  65
BRANCH  64  72
HETATM   72  C   UNK N   1      34.263  16.590   9.871  0.00  0.00     0.241 C 
HETATM   73  N   UNK N   1      34.064  15.672  10.843  0.00  0.00    -0.345 N 
HETATM   74  H   UNK N   1      33.277  15.746  11.430  0.00  0.00     0.163 HD
HETATM   75  O   UNK N   1      35.397  16.980   9.627  0.00  0.00    -0.271 OA
BRANCH  73  76
HETATM   76  C   UNK N   1      34.994  14.587  11.027  0.00  0.00     0.182 C 
BRANCH  76  77
HETATM   77  C   UNK N   1      34.355  13.330  10.446  0.00  0.00     0.038 C 
BRANCH  77  78
HETATM   78  C   UNK N   1      35.269  12.669   9.429  0.00  0.00     0.023 C 
BRANCH  78  79
HETATM   79  C   UNK N   1      36.704  12.607   9.937  0.00  0.00     0.138 C 
BRANCH  79  80
HETATM   80  N   UNK N   1      36.964  11.338  10.576  0.00  0.00    -0.227 N 
HETATM   81  C   UNK N   1      37.545  11.253  11.867  0.00  0.00     0.665 C 
HETATM   82  N   UNK N   1      37.842   9.988  12.418  0.00  0.00    -0.235 N 
HETATM   83  N   UNK N   1      37.795  12.315  12.542  0.00  0.00    -0.235 N 
HETATM   84  H   UNK N   1      37.965   9.767  13.370  0.00  0.00     0.174 HD
HETATM   85  H   UNK N   1      37.936   9.245  11.781  0.00  0.00     0.174 HD
HETATM   86  H   UNK N   1      37.462  13.206  12.289  0.00  0.00     0.174 HD
ATOM     87  HN  UNK N   1      38.367  12.232  13.382  1.00  0.00     0.174 HD
HETATM   88  H   UNK N   1      36.731  10.508  10.101  0.00  0.00     0.177 HD
ENDBRANCH  79  80
ENDBRANCH  78  79
ENDBRANCH  77  78
ENDBRANCH  76  77
BRANCH  76  89
HETATM   89  C   UNK N   1      35.443  14.434  12.442  0.00  0.00     0.163 C 
HETATM   90  O   UNK N   1      34.929  13.607  13.177  0.00  0.00    -0.648 OA
BRANCH  89  91
HETATM   91  O   UNK N   1      36.496  15.146  12.873  0.00  0.00    -0.775 OA
HETATM   92  H   UNK N   1      36.652  15.955  13.321  0.00  0.00     0.167 HD
ENDBRANCH  89  91
ENDBRANCH  76  89
ENDBRANCH  73  76
ENDBRANCH  64  72
ENDBRANCH  61  64
ENDBRANCH  55  60
ENDBRANCH  52  53
BRANCH  52  93
HETATM   93  C   UNK N   1      33.096  16.518   2.814  0.00  0.00     0.199 C 
BRANCH  93  94
HETATM   94  O   UNK N   1      33.767  15.502   2.129  0.00  0.00    -0.398 OA
HETATM   95  H   UNK N   1      33.757  14.535   2.200  0.00  0.00     0.209 HD
ENDBRANCH  93  94
ENDBRANCH  52  93
ENDBRANCH   2  52
TORSDOF 30
ENDMDL
