MODEL 1
REMARK VINA RESULT:      -6.1      0.000      0.000
REMARK  4 active torsions:
REMARK  status: ('A' for Active; 'I' for Inactive)
REMARK       I    between atoms: C_9  and  N_13 
REMARK    1  A    between atoms: C_10  and  C_14 
REMARK    2  A    between atoms: C_14  and  C_15 
REMARK    3  A    between atoms: C_14  and  O_16 
REMARK    4  A    between atoms: C_15  and  O_18 
ROOT
HETATM    1  C   UNK N   1      35.331  15.866  10.907  0.00  0.00     0.149 A 
HETATM    2  C   UNK N   1      34.346  14.936  10.566  0.00  0.00     0.142 A 
HETATM    3  N   UNK N   1      36.265  15.544  11.922  0.00  0.00    -0.372 N 
HETATM    4  N   UNK N   1      35.417  17.046  10.240  0.00  0.00    -0.175 N 
ATOM      5  HN  UNK N   1      36.127  17.727  10.507  1.00  0.00     0.186 HD
HETATM    6  N   UNK N   1      34.244  13.724  11.301  0.00  0.00    -0.374 N 
HETATM    7  C   UNK N   1      33.494  15.225   9.499  0.00  0.00     0.289 A 
HETATM    8  C   UNK N   1      36.384  14.171  12.374  0.00  0.00     0.149 C 
HETATM    9  C   UNK N   1      34.561  17.329   9.219  0.00  0.00     0.680 A 
HETATM   10  C   UNK N   1      34.986  13.561  12.541  0.00  0.00     0.131 C 
HETATM   11  N   UNK N   1      33.619  16.423   8.843  0.00  0.00    -0.154 N 
HETATM   12  O   UNK N   1      32.643  14.427   9.150  0.00  0.00    -0.265 OA
HETATM   13  N   UNK N   1      34.664  18.559   8.540  0.00  0.00    -0.234 N 
HETATM   14  H   UNK N   1      36.830  16.248  12.317  0.00  0.00     0.161 HD
HETATM   15  H   UNK N   1      33.673  12.993  10.970  0.00  0.00     0.160 HD
HETATM   16  H   UNK N   1      33.020  16.630   8.090  0.00  0.00     0.187 HD
HETATM   17  H   UNK N   1      35.328  19.227   8.828  0.00  0.00     0.174 HD
HETATM   18  H   UNK N   1      34.073  18.750   7.777  0.00  0.00     0.174 HD
ENDROOT
BRANCH  10  19
HETATM   19  C   UNK N   1      35.015  12.078  12.957  0.00  0.00     0.170 C 
BRANCH  19  20
HETATM   20  C   UNK N   1      34.721  11.860  14.448  0.00  0.00     0.145 C 
HETATM   21  C   UNK N   1      33.638  10.813  14.632  0.00  0.00     0.042 C 
BRANCH  20  22
HETATM   22  O   UNK N   1      34.330  13.044  15.072  0.00  0.00    -0.393 OA
HETATM   23  H   UNK N   1      34.406  13.559  15.891  0.00  0.00     0.210 HD
ENDBRANCH  20  22
ENDBRANCH  19  20
BRANCH  19  24
HETATM   24  O   UNK N   1      36.252  11.506  12.647  0.00  0.00    -0.391 OA
HETATM   25  H   UNK N   1      36.751  10.841  12.147  0.00  0.00     0.210 HD
ENDBRANCH  19  24
ENDBRANCH  10  19
TORSDOF 4
ENDMDL
MODEL 2
REMARK VINA RESULT:      -6.1      3.207      6.040
REMARK  4 active torsions:
REMARK  status: ('A' for Active; 'I' for Inactive)
REMARK       I    between atoms: C_9  and  N_13 
REMARK    1  A    between atoms: C_10  and  C_14 
REMARK    2  A    between atoms: C_14  and  C_15 
REMARK    3  A    between atoms: C_14  and  O_16 
REMARK    4  A    between atoms: C_15  and  O_18 
ROOT
HETATM    1  C   UNK N   1      34.345  14.275  10.141  0.00  0.00     0.149 A 
HETATM    2  C   UNK N   1      34.416  15.665  10.016  0.00  0.00     0.142 A 
HETATM    3  N   UNK N   1      33.292  13.575   9.504  0.00  0.00    -0.372 N 
HETATM    4  N   UNK N   1      35.302  13.603  10.831  0.00  0.00    -0.175 N 
ATOM      5  HN  UNK N   1      35.233  12.591  10.933  1.00  0.00     0.186 HD
HETATM    6  N   UNK N   1      33.384  16.358   9.325  0.00  0.00    -0.374 N 
HETATM    7  C   UNK N   1      35.511  16.332  10.567  0.00  0.00     0.289 A 
HETATM    8  C   UNK N   1      32.493  14.248   8.497  0.00  0.00     0.149 C 
HETATM    9  C   UNK N   1      36.351  14.267  11.389  0.00  0.00     0.680 A 
HETATM   10  C   UNK N   1      32.154  15.667   8.973  0.00  0.00     0.131 C 
HETATM   11  N   UNK N   1      36.463  15.615  11.247  0.00  0.00    -0.154 N 
HETATM   12  O   UNK N   1      35.626  17.539  10.451  0.00  0.00    -0.265 OA
HETATM   13  N   UNK N   1      37.333  13.552  12.103  0.00  0.00    -0.234 N 
HETATM   14  H   UNK N   1      33.104  12.638   9.741  0.00  0.00     0.161 HD
HETATM   15  H   UNK N   1      33.503  17.305   9.084  0.00  0.00     0.160 HD
HETATM   16  H   UNK N   1      37.236  16.083  11.636  0.00  0.00     0.187 HD
HETATM   17  H   UNK N   1      37.240  12.581  12.230  0.00  0.00     0.174 HD
HETATM   18  H   UNK N   1      38.113  14.025  12.473  0.00  0.00     0.174 HD
ENDROOT
BRANCH  10  19
HETATM   19  C   UNK N   1      31.361  16.484   7.935  0.00  0.00     0.170 C 
BRANCH  19  20
HETATM   20  C   UNK N   1      30.183  17.259   8.544  0.00  0.00     0.145 C 
HETATM   21  C   UNK N   1      29.343  17.899   7.455  0.00  0.00     0.042 C 
BRANCH  20  22
HETATM   22  O   UNK N   1      30.620  18.242   9.430  0.00  0.00    -0.393 OA
HETATM   23  H   UNK N   1      30.903  18.403  10.345  0.00  0.00     0.210 HD
ENDBRANCH  20  22
ENDBRANCH  19  20
BRANCH  19  24
HETATM   24  O   UNK N   1      30.883  15.653   6.918  0.00  0.00    -0.391 OA
HETATM   25  H   UNK N   1      30.454  14.820   6.666  0.00  0.00     0.210 HD
ENDBRANCH  19  24
ENDBRANCH  10  19
TORSDOF 4
ENDMDL
MODEL 3
REMARK VINA RESULT:      -6.0     12.780     15.627
REMARK  4 active torsions:
REMARK  status: ('A' for Active; 'I' for Inactive)
REMARK       I    between atoms: C_9  and  N_13 
REMARK    1  A    between atoms: C_10  and  C_14 
REMARK    2  A    between atoms: C_14  and  C_15 
REMARK    3  A    between atoms: C_14  and  O_16 
REMARK    4  A    between atoms: C_15  and  O_18 
ROOT
HETATM    1  C   UNK N   1      24.135  18.914   4.640  0.00  0.00     0.149 A 
HETATM    2  C   UNK N   1      24.093  19.744   3.517  0.00  0.00     0.142 A 
HETATM    3  N   UNK N   1      22.946  18.282   5.080  0.00  0.00    -0.372 N 
HETATM    4  N   UNK N   1      25.314  18.683   5.274  0.00  0.00    -0.175 N 
ATOM      5  HN  UNK N   1      25.334  18.091   6.103  1.00  0.00     0.186 HD
HETATM    6  N   UNK N   1      22.844  20.007   2.890  0.00  0.00    -0.374 N 
HETATM    7  C   UNK N   1      25.287  20.282   3.037  0.00  0.00     0.289 A 
HETATM    8  C   UNK N   1      21.788  18.253   4.207  0.00  0.00     0.149 C 
HETATM    9  C   UNK N   1      26.469  19.236   4.813  0.00  0.00     0.680 A 
HETATM   10  C   UNK N   1      21.605  19.626   3.548  0.00  0.00     0.131 C 
HETATM   11  N   UNK N   1      26.459  20.016   3.698  0.00  0.00    -0.154 N 
HETATM   12  O   UNK N   1      25.297  20.984   2.041  0.00  0.00    -0.265 OA
HETATM   13  N   UNK N   1      27.682  18.987   5.485  0.00  0.00    -0.234 N 
HETATM   14  H   UNK N   1      22.906  17.865   5.971  0.00  0.00     0.161 HD
HETATM   15  H   UNK N   1      22.819  20.447   2.009  0.00  0.00     0.160 HD
HETATM   16  H   UNK N   1      27.303  20.394   3.362  0.00  0.00     0.187 HD
HETATM   17  H   UNK N   1      27.687  18.445   6.307  0.00  0.00     0.174 HD
HETATM   18  H   UNK N   1      28.524  19.353   5.132  0.00  0.00     0.174 HD
ENDROOT
BRANCH  10  19
HETATM   19  C   UNK N   1      20.434  19.670   2.549  0.00  0.00     0.170 C 
BRANCH  19  20
HETATM   20  C   UNK N   1      19.666  18.343   2.455  0.00  0.00     0.145 C 
HETATM   21  C   UNK N   1      20.089  17.566   1.222  0.00  0.00     0.042 C 
BRANCH  20  22
HETATM   22  O   UNK N   1      18.288  18.549   2.423  0.00  0.00    -0.393 OA
HETATM   23  H   UNK N   1      17.572  19.109   2.763  0.00  0.00     0.210 HD
ENDBRANCH  20  22
ENDBRANCH  19  20
BRANCH  19  24
HETATM   24  O   UNK N   1      20.887  20.026   1.276  0.00  0.00    -0.391 OA
HETATM   25  H   UNK N   1      21.322  19.759   0.450  0.00  0.00     0.210 HD
ENDBRANCH  19  24
ENDBRANCH  10  19
TORSDOF 4
ENDMDL
MODEL 4
REMARK VINA RESULT:      -6.0      2.919      6.242
REMARK  4 active torsions:
REMARK  status: ('A' for Active; 'I' for Inactive)
REMARK       I    between atoms: C_9  and  N_13 
REMARK    1  A    between atoms: C_10  and  C_14 
REMARK    2  A    between atoms: C_14  and  C_15 
REMARK    3  A    between atoms: C_14  and  O_16 
REMARK    4  A    between atoms: C_15  and  O_18 
ROOT
HETATM    1  C   UNK N   1      34.843  14.630  11.129  0.00  0.00     0.149 A 
HETATM    2  C   UNK N   1      35.767  14.691  10.083  0.00  0.00     0.142 A 
HETATM    3  N   UNK N   1      33.493  14.984  10.883  0.00  0.00    -0.372 N 
HETATM    4  N   UNK N   1      35.229  14.194  12.356  0.00  0.00    -0.175 N 
ATOM      5  HN  UNK N   1      34.552  14.170  13.118  1.00  0.00     0.186 HD
HETATM    6  N   UNK N   1      35.356  15.188   8.816  0.00  0.00    -0.374 N 
HETATM    7  C   UNK N   1      37.070  14.247  10.314  0.00  0.00     0.289 A 
HETATM    8  C   UNK N   1      33.025  15.106   9.515  0.00  0.00     0.149 C 
HETATM    9  C   UNK N   1      36.510  13.791  12.577  0.00  0.00     0.680 A 
HETATM   10  C   UNK N   1      34.071  15.854   8.678  0.00  0.00     0.131 C 
HETATM   11  N   UNK N   1      37.417  13.803  11.564  0.00  0.00    -0.154 N 
HETATM   12  O   UNK N   1      37.896  14.254   9.419  0.00  0.00    -0.265 OA
HETATM   13  N   UNK N   1      36.892  13.343  13.857  0.00  0.00    -0.234 N 
HETATM   14  H   UNK N   1      32.878  15.145  11.634  0.00  0.00     0.161 HD
HETATM   15  H   UNK N   1      35.941  15.081   8.031  0.00  0.00     0.160 HD
HETATM   16  H   UNK N   1      38.335  13.490  11.730  0.00  0.00     0.187 HD
HETATM   17  H   UNK N   1      36.243  13.359  14.598  0.00  0.00     0.174 HD
HETATM   18  H   UNK N   1      37.806  13.014  14.010  0.00  0.00     0.174 HD
ENDROOT
BRANCH  10  19
HETATM   19  C   UNK N   1      33.687  15.972   7.190  0.00  0.00     0.170 C 
BRANCH  19  20
HETATM   20  C   UNK N   1      33.499  17.424   6.727  0.00  0.00     0.145 C 
HETATM   21  C   UNK N   1      33.303  17.485   5.223  0.00  0.00     0.042 C 
BRANCH  20  22
HETATM   22  O   UNK N   1      34.584  18.222   7.085  0.00  0.00    -0.393 OA
HETATM   23  H   UNK N   1      35.016  19.075   6.921  0.00  0.00     0.210 HD
ENDBRANCH  20  22
ENDBRANCH  19  20
BRANCH  19  24
HETATM   24  O   UNK N   1      32.518  15.253   6.926  0.00  0.00    -0.391 OA
HETATM   25  H   UNK N   1      31.573  15.266   6.707  0.00  0.00     0.210 HD
ENDBRANCH  19  24
ENDBRANCH  10  19
TORSDOF 4
ENDMDL
MODEL 5
REMARK VINA RESULT:      -5.9      3.166      6.464
REMARK  4 active torsions:
REMARK  status: ('A' for Active; 'I' for Inactive)
REMARK       I    between atoms: C_9  and  N_13 
REMARK    1  A    between atoms: C_10  and  C_14 
REMARK    2  A    between atoms: C_14  and  C_15 
REMARK    3  A    between atoms: C_14  and  O_16 
REMARK    4  A    between atoms: C_15  and  O_18 
ROOT
HETATM    1  C   UNK N   1      33.908  14.545  10.217  0.00  0.00     0.149 A 
HETATM    2  C   UNK N   1      34.281  15.824   9.798  0.00  0.00     0.142 A 
HETATM    3  N   UNK N   1      33.012  13.789   9.421  0.00  0.00    -0.372 N 
HETATM    4  N   UNK N   1      34.434  14.018  11.353  0.00  0.00    -0.175 N 
ATOM      5  HN  UNK N   1      34.142  13.091  11.662  1.00  0.00     0.186 HD
HETATM    6  N   UNK N   1      33.690  16.376   8.629  0.00  0.00    -0.374 N 
HETATM    7  C   UNK N   1      35.237  16.519  10.540  0.00  0.00     0.289 A 
HETATM    8  C   UNK N   1      32.738  14.208   8.060  0.00  0.00     0.149 C 
HETATM    9  C   UNK N   1      35.344  14.717  12.085  0.00  0.00     0.680 A 
HETATM   10  C   UNK N   1      32.538  15.729   8.021  0.00  0.00     0.131 C 
HETATM   11  N   UNK N   1      35.753  15.948  11.675  0.00  0.00    -0.154 N 
HETATM   12  O   UNK N   1      35.613  17.623  10.189  0.00  0.00    -0.265 OA
HETATM   13  N   UNK N   1      35.878  14.155  13.261  0.00  0.00    -0.234 N 
HETATM   14  H   UNK N   1      32.581  12.984   9.789  0.00  0.00     0.161 HD
HETATM   15  H   UNK N   1      34.061  17.196   8.230  0.00  0.00     0.160 HD
HETATM   16  H   UNK N   1      36.428  16.436  12.200  0.00  0.00     0.187 HD
HETATM   17  H   UNK N   1      35.563  13.276  13.573  0.00  0.00     0.174 HD
HETATM   18  H   UNK N   1      36.565  14.641  13.770  0.00  0.00     0.174 HD
ENDROOT
BRANCH  10  19
HETATM   19  C   UNK N   1      32.307  16.275   6.599  0.00  0.00     0.170 C 
BRANCH  19  20
HETATM   20  C   UNK N   1      33.475  17.125   6.078  0.00  0.00     0.145 C 
HETATM   21  C   UNK N   1      33.148  17.706   4.715  0.00  0.00     0.042 C 
BRANCH  20  22
HETATM   22  O   UNK N   1      34.652  16.381   5.994  0.00  0.00    -0.393 OA
HETATM   23  H   UNK N   1      35.358  16.099   5.392  0.00  0.00     0.210 HD
ENDBRANCH  20  22
ENDBRANCH  19  20
BRANCH  19  24
HETATM   24  O   UNK N   1      31.133  17.033   6.549  0.00  0.00    -0.391 OA
HETATM   25  H   UNK N   1      30.221  17.162   6.853  0.00  0.00     0.210 HD
ENDBRANCH  19  24
ENDBRANCH  10  19
TORSDOF 4
ENDMDL
MODEL 6
REMARK VINA RESULT:      -5.9      1.614      2.167
REMARK  4 active torsions:
REMARK  status: ('A' for Active; 'I' for Inactive)
REMARK       I    between atoms: C_9  and  N_13 
REMARK    1  A    between atoms: C_10  and  C_14 
REMARK    2  A    between atoms: C_14  and  C_15 
REMARK    3  A    between atoms: C_14  and  O_16 
REMARK    4  A    between atoms: C_15  and  O_18 
ROOT
HETATM    1  C   UNK N   1      33.879  16.290   9.738  0.00  0.00     0.149 A 
HETATM    2  C   UNK N   1      33.587  14.924   9.768  0.00  0.00     0.142 A 
HETATM    3  N   UNK N   1      34.867  16.806  10.612  0.00  0.00    -0.372 N 
HETATM    4  N   UNK N   1      33.251  17.103   8.849  0.00  0.00    -0.175 N 
ATOM      5  HN  UNK N   1      33.457  18.102   8.846  1.00  0.00     0.186 HD
HETATM    6  N   UNK N   1      34.222  14.095  10.732  0.00  0.00    -0.374 N 
HETATM    7  C   UNK N   1      32.682  14.413   8.837  0.00  0.00     0.289 A 
HETATM    8  C   UNK N   1      35.764  15.894  11.294  0.00  0.00     0.149 C 
HETATM    9  C   UNK N   1      32.349  16.598   7.964  0.00  0.00     0.680 A 
HETATM   10  C   UNK N   1      34.970  14.693  11.826  0.00  0.00     0.131 C 
HETATM   11  N   UNK N   1      32.078  15.265   7.947  0.00  0.00    -0.154 N 
HETATM   12  O   UNK N   1      32.425  13.222   8.809  0.00  0.00    -0.265 OA
HETATM   13  N   UNK N   1      31.707  17.457   7.050  0.00  0.00    -0.234 N 
HETATM   14  H   UNK N   1      34.945  17.778  10.753  0.00  0.00     0.161 HD
HETATM   15  H   UNK N   1      34.157  13.115  10.658  0.00  0.00     0.160 HD
HETATM   16  H   UNK N   1      31.440  14.907   7.289  0.00  0.00     0.187 HD
HETATM   17  H   UNK N   1      31.882  18.425   7.079  0.00  0.00     0.174 HD
HETATM   18  H   UNK N   1      31.084  17.088   6.384  0.00  0.00     0.174 HD
ENDROOT
BRANCH  10  19
HETATM   19  C   UNK N   1      35.855  13.634  12.511  0.00  0.00     0.170 C 
BRANCH  19  20
HETATM   20  C   UNK N   1      35.678  13.590  14.035  0.00  0.00     0.145 C 
HETATM   21  C   UNK N   1      36.856  12.892  14.691  0.00  0.00     0.042 C 
BRANCH  20  22
HETATM   22  O   UNK N   1      34.497  12.941  14.396  0.00  0.00    -0.393 OA
HETATM   23  H   UNK N   1      33.797  12.353  14.071  0.00  0.00     0.210 HD
ENDBRANCH  20  22
ENDBRANCH  19  20
BRANCH  19  24
HETATM   24  O   UNK N   1      37.203  13.854  12.214  0.00  0.00    -0.391 OA
HETATM   25  H   UNK N   1      38.113  13.517  12.211  0.00  0.00     0.210 HD
ENDBRANCH  19  24
ENDBRANCH  10  19
TORSDOF 4
ENDMDL
MODEL 7
REMARK VINA RESULT:      -5.8     14.568     16.027
REMARK  4 active torsions:
REMARK  status: ('A' for Active; 'I' for Inactive)
REMARK       I    between atoms: C_9  and  N_13 
REMARK    1  A    between atoms: C_10  and  C_14 
REMARK    2  A    between atoms: C_14  and  C_15 
REMARK    3  A    between atoms: C_14  and  O_16 
REMARK    4  A    between atoms: C_15  and  O_18 
ROOT
HETATM    1  C   UNK N   1      20.262  18.282   2.876  0.00  0.00     0.149 A 
HETATM    2  C   UNK N   1      21.462  18.456   3.570  0.00  0.00     0.142 A 
HETATM    3  N   UNK N   1      19.407  17.210   3.228  0.00  0.00    -0.372 N 
HETATM    4  N   UNK N   1      19.904  19.159   1.903  0.00  0.00    -0.175 N 
ATOM      5  HN  UNK N   1      19.035  19.015   1.388  1.00  0.00     0.186 HD
HETATM    6  N   UNK N   1      21.842  17.506   4.557  0.00  0.00    -0.374 N 
HETATM    7  C   UNK N   1      22.248  19.571   3.279  0.00  0.00     0.289 A 
HETATM    8  C   UNK N   1      19.624  16.503   4.477  0.00  0.00     0.149 C 
HETATM    9  C   UNK N   1      20.693  20.228   1.607  0.00  0.00     0.680 A 
HETATM   10  C   UNK N   1      21.125  16.246   4.668  0.00  0.00     0.131 C 
HETATM   11  N   UNK N   1      21.846  20.441   2.297  0.00  0.00    -0.154 N 
HETATM   12  O   UNK N   1      23.285  19.776   3.885  0.00  0.00    -0.265 OA
HETATM   13  N   UNK N   1      20.305  21.127   0.594  0.00  0.00    -0.234 N 
HETATM   14  H   UNK N   1      18.669  16.946   2.631  0.00  0.00     0.161 HD
HETATM   15  H   UNK N   1      22.590  17.701   5.167  0.00  0.00     0.160 HD
HETATM   16  H   UNK N   1      22.398  21.228   2.090  0.00  0.00     0.187 HD
HETATM   17  H   UNK N   1      19.485  20.960   0.076  0.00  0.00     0.174 HD
HETATM   18  H   UNK N   1      20.854  21.921   0.405  0.00  0.00     0.174 HD
ENDROOT
BRANCH  10  19
HETATM   19  C   UNK N   1      21.458  15.557   6.005  0.00  0.00     0.170 C 
BRANCH  19  20
HETATM   20  C   UNK N   1      20.255  15.463   6.955  0.00  0.00     0.145 C 
HETATM   21  C   UNK N   1      20.481  16.316   8.190  0.00  0.00     0.042 C 
BRANCH  20  22
HETATM   22  O   UNK N   1      20.007  14.147   7.340  0.00  0.00    -0.393 OA
HETATM   23  H   UNK N   1      19.646  13.298   7.040  0.00  0.00     0.210 HD
ENDBRANCH  20  22
ENDBRANCH  19  20
BRANCH  19  24
HETATM   24  O   UNK N   1      22.502  16.221   6.653  0.00  0.00    -0.391 OA
HETATM   25  H   UNK N   1      23.285  16.790   6.587  0.00  0.00     0.210 HD
ENDBRANCH  19  24
ENDBRANCH  10  19
TORSDOF 4
ENDMDL
MODEL 8
REMARK VINA RESULT:      -5.7     16.775     19.435
REMARK  4 active torsions:
REMARK  status: ('A' for Active; 'I' for Inactive)
REMARK       I    between atoms: C_9  and  N_13 
REMARK    1  A    between atoms: C_10  and  C_14 
REMARK    2  A    between atoms: C_14  and  C_15 
REMARK    3  A    between atoms: C_14  and  O_16 
REMARK    4  A    between atoms: C_15  and  O_18 
ROOT
HETATM    1  C   UNK N   1      30.225  21.806  -5.090  0.00  0.00     0.149 A 
HETATM    2  C   UNK N   1      30.101  22.567  -3.926  0.00  0.00     0.142 A 
HETATM    3  N   UNK N   1      29.479  22.169  -6.238  0.00  0.00    -0.372 N 
HETATM    4  N   UNK N   1      31.086  20.756  -5.131  0.00  0.00    -0.175 N 
ATOM      5  HN  UNK N   1      31.157  20.194  -5.979  1.00  0.00     0.186 HD
HETATM    6  N   UNK N   1      29.167  23.638  -3.887  0.00  0.00    -0.374 N 
HETATM    7  C   UNK N   1      30.914  22.258  -2.834  0.00  0.00     0.289 A 
HETATM    8  C   UNK N   1      28.845  23.473  -6.295  0.00  0.00     0.149 C 
HETATM    9  C   UNK N   1      31.852  20.445  -4.050  0.00  0.00     0.680 A 
HETATM   10  C   UNK N   1      28.181  23.782  -4.946  0.00  0.00     0.131 C 
HETATM   11  N   UNK N   1      31.779  21.196  -2.918  0.00  0.00    -0.154 N 
HETATM   12  O   UNK N   1      30.859  22.918  -1.812  0.00  0.00    -0.265 OA
HETATM   13  N   UNK N   1      32.738  19.351  -4.111  0.00  0.00    -0.234 N 
HETATM   14  H   UNK N   1      29.392  21.542  -6.992  0.00  0.00     0.161 HD
HETATM   15  H   UNK N   1      29.187  24.282  -3.143  0.00  0.00     0.160 HD
HETATM   16  H   UNK N   1      32.353  20.975  -2.150  0.00  0.00     0.187 HD
HETATM   17  H   UNK N   1      32.773  18.790  -4.919  0.00  0.00     0.174 HD
HETATM   18  H   UNK N   1      33.322  19.148  -3.345  0.00  0.00     0.174 HD
ENDROOT
BRANCH  10  19
HETATM   19  C   UNK N   1      27.538  25.180  -4.892  0.00  0.00     0.170 C 
BRANCH  19  20
HETATM   20  C   UNK N   1      26.401  25.285  -3.864  0.00  0.00     0.145 C 
HETATM   21  C   UNK N   1      26.347  26.679  -3.267  0.00  0.00     0.042 C 
BRANCH  20  22
HETATM   22  O   UNK N   1      26.546  24.349  -2.842  0.00  0.00    -0.393 OA
HETATM   23  H   UNK N   1      26.512  23.401  -2.638  0.00  0.00     0.210 HD
ENDBRANCH  20  22
ENDBRANCH  19  20
BRANCH  19  24
HETATM   24  O   UNK N   1      27.052  25.547  -6.150  0.00  0.00    -0.391 OA
HETATM   25  H   UNK N   1      26.717  26.246  -6.733  0.00  0.00     0.210 HD
ENDBRANCH  19  24
ENDBRANCH  10  19
TORSDOF 4
ENDMDL
MODEL 9
REMARK VINA RESULT:      -5.6     15.432     16.520
REMARK  4 active torsions:
REMARK  status: ('A' for Active; 'I' for Inactive)
REMARK       I    between atoms: C_9  and  N_13 
REMARK    1  A    between atoms: C_10  and  C_14 
REMARK    2  A    between atoms: C_14  and  C_15 
REMARK    3  A    between atoms: C_14  and  O_16 
REMARK    4  A    between atoms: C_15  and  O_18 
ROOT
HETATM    1  C   UNK N   1      19.864  16.669   3.621  0.00  0.00     0.149 A 
HETATM    2  C   UNK N   1      20.481  17.770   4.221  0.00  0.00     0.142 A 
HETATM    3  N   UNK N   1      19.354  15.631   4.438  0.00  0.00    -0.372 N 
HETATM    4  N   UNK N   1      19.720  16.620   2.272  0.00  0.00    -0.175 N 
ATOM      5  HN  UNK N   1      19.285  15.805   1.840  1.00  0.00     0.186 HD
HETATM    6  N   UNK N   1      20.661  17.788   5.631  0.00  0.00    -0.374 N 
HETATM    7  C   UNK N   1      20.892  18.830   3.412  0.00  0.00     0.289 A 
HETATM    8  C   UNK N   1      19.199  15.854   5.863  0.00  0.00     0.149 C 
HETATM    9  C   UNK N   1      20.151  17.647   1.489  0.00  0.00     0.680 A 
HETATM   10  C   UNK N   1      20.437  16.579   6.408  0.00  0.00     0.131 C 
HETATM   11  N   UNK N   1      20.718  18.747   2.054  0.00  0.00    -0.154 N 
HETATM   12  O   UNK N   1      21.404  19.822   3.900  0.00  0.00    -0.265 OA
HETATM   13  N   UNK N   1      19.993  17.577   0.091  0.00  0.00    -0.234 N 
HETATM   14  H   UNK N   1      19.104  14.765   4.041  0.00  0.00     0.161 HD
HETATM   15  H   UNK N   1      20.936  18.618   6.082  0.00  0.00     0.160 HD
HETATM   16  H   UNK N   1      21.007  19.493   1.481  0.00  0.00     0.187 HD
HETATM   17  H   UNK N   1      19.608  16.770  -0.321  0.00  0.00     0.174 HD
HETATM   18  H   UNK N   1      20.269  18.335  -0.473  0.00  0.00     0.174 HD
ENDROOT
BRANCH  10  19
HETATM   19  C   UNK N   1      20.332  16.918   7.907  0.00  0.00     0.170 C 
BRANCH  19  20
HETATM   20  C   UNK N   1      19.000  16.482   8.536  0.00  0.00     0.145 C 
HETATM   21  C   UNK N   1      18.407  17.606   9.365  0.00  0.00     0.042 C 
BRANCH  20  22
HETATM   22  O   UNK N   1      19.157  15.350   9.335  0.00  0.00    -0.393 OA
HETATM   23  H   UNK N   1      19.787  14.867   9.893  0.00  0.00     0.210 HD
ENDBRANCH  20  22
ENDBRANCH  19  20
BRANCH  19  24
HETATM   24  O   UNK N   1      20.507  18.289   8.114  0.00  0.00    -0.391 OA
HETATM   25  H   UNK N   1      20.926  19.119   7.834  0.00  0.00     0.210 HD
ENDBRANCH  19  24
ENDBRANCH  10  19
TORSDOF 4
ENDMDL
