REMARK  2 active torsions:
REMARK  status: ('A' for Active; 'I' for Inactive)
REMARK    1  A    between atoms: C_1  and  C_2 
REMARK    2  A    between atoms: C_2  and  C_5 
REMARK       I    between atoms: C_5  and  N_10 
REMARK       I    between atoms: N_10  and  C_13 
REMARK       I    between atoms: C_13  and  N_14 
ROOT
HETATM    1  C   UNK N   1      12.810  -9.065  -0.000  0.00  0.00     0.240 C 
HETATM    2  N   UNK N   1      11.806  -8.147   0.000  0.00  0.00    -0.160 N 
HETATM    3  O   UNK N   1      12.544 -10.249  -0.000  0.00  0.00    -0.272 OA
HETATM    4  C   UNK N   1      10.411  -8.463   0.000  0.00  0.00     0.672 C 
HETATM    5  N   UNK N   1       9.462  -7.421   0.000  0.00  0.00    -0.235 N 
HETATM    6  N   UNK N   1      10.003  -9.682  -0.000  0.00  0.00    -0.235 N 
ATOM      7  HN  UNK N   1      10.679 -10.446  -0.000  1.00  0.00     0.174 HD
HETATM    8  H   UNK N   1      12.058  -7.196   0.000  0.00  0.00     0.187 HD
HETATM    9  H   UNK N   1       9.761  -6.483   0.000  0.00  0.00     0.174 HD
HETATM   10  H   UNK N   1       8.500  -7.630   0.000  0.00  0.00     0.174 HD
HETATM   11  H   UNK N   1       9.038  -9.878  -0.000  0.00  0.00     0.174 HD
ENDROOT
BRANCH   1  12
HETATM   12  C   UNK N   1      14.239  -8.577   0.000  0.00  0.00     0.145 C 
BRANCH  12  13
HETATM   13  C   UNK N   1      15.562  -9.357   0.000  0.00  0.00    -0.006 A 
HETATM   14  C   UNK N   1      15.745 -10.784   0.000  0.00  0.00     0.042 A 
HETATM   15  C   UNK N   1      17.037 -11.316   0.000  0.00  0.00     0.024 A 
HETATM   16 Cl   UNK N   1      14.493 -12.006   0.000  0.00  0.00    -0.084 Cl
HETATM   17  C   UNK N   1      18.157 -10.499  -0.000  0.00  0.00     0.003 A 
HETATM   18  C   UNK N   1      18.003  -9.122  -0.000  0.00  0.00     0.024 A 
HETATM   19  C   UNK N   1      16.731  -8.550  -0.000  0.00  0.00     0.042 A 
HETATM   20 Cl   UNK N   1      16.643  -6.790  -0.000  0.00  0.00    -0.084 Cl
ENDBRANCH  12  13
ENDBRANCH   1  12
TORSDOF 2
