MODEL 1
REMARK VINA RESULT:      -6.1      0.000      0.000
REMARK  1 active torsions:
REMARK  status: ('A' for Active; 'I' for Inactive)
REMARK    1  A    between atoms: O_2  and  C_3 
ROOT
HETATM    1  C   UNK N   1      26.128  25.014  -4.408  0.00  0.00     0.094 A 
HETATM    2  C   UNK N   1      25.923  24.506  -5.734  0.00  0.00     0.032 A 
HETATM    3  C   UNK N   1      25.945  23.141  -6.040  0.00  0.00     0.023 A 
HETATM    4  C   UNK N   1      25.737  22.719  -7.352  0.00  0.00     0.083 A 
HETATM    5  C   UNK N   1      25.508  23.670  -8.348  0.00  0.00     0.288 A 
HETATM    6  O   UNK N   1      25.325  23.314  -9.497  0.00  0.00    -0.260 OA
HETATM    7  O   UNK N   1      25.488  24.966  -8.049  0.00  0.00    -0.275 OA
HETATM    8  C   UNK N   1      25.681  25.417  -6.814  0.00  0.00     0.095 A 
HETATM    9  C   UNK N   1      25.645  26.800  -6.582  0.00  0.00     0.076 A 
HETATM   10  C   UNK N   1      25.848  27.248  -5.288  0.00  0.00     0.090 A 
HETATM   11  C   UNK N   1      26.079  26.400  -4.249  0.00  0.00     0.034 A 
HETATM   12  C   UNK N   1      26.235  27.173  -3.121  0.00  0.00     0.041 A 
HETATM   13  C   UNK N   1      26.083  28.487  -3.565  0.00  0.00     0.143 A 
HETATM   14  O   UNK N   1      25.854  28.484  -4.867  0.00  0.00    -0.322 OA
ENDROOT
BRANCH   1  15
HETATM   15  O   UNK N   1      26.366  24.253  -3.302  0.00  0.00    -0.354 OA
HETATM   16  C   UNK N   1      27.595  23.843  -2.843  0.00  0.00     0.210 C 
ENDBRANCH   1  15
TORSDOF 1
ENDMDL
MODEL 2
REMARK VINA RESULT:      -6.0     13.366     15.972
REMARK  1 active torsions:
REMARK  status: ('A' for Active; 'I' for Inactive)
REMARK    1  A    between atoms: O_2  and  C_3 
ROOT
HETATM    1  C   UNK N   1      30.688  16.773   6.168  0.00  0.00     0.094 A 
HETATM    2  C   UNK N   1      31.894  17.287   6.754  0.00  0.00     0.032 A 
HETATM    3  C   UNK N   1      32.048  17.487   8.129  0.00  0.00     0.023 A 
HETATM    4  C   UNK N   1      33.249  17.990   8.629  0.00  0.00     0.083 A 
HETATM    5  C   UNK N   1      34.286  18.288   7.743  0.00  0.00     0.288 A 
HETATM    6  O   UNK N   1      35.338  18.727   8.167  0.00  0.00    -0.260 OA
HETATM    7  O   UNK N   1      34.131  18.094   6.437  0.00  0.00    -0.275 OA
HETATM    8  C   UNK N   1      33.007  17.617   5.913  0.00  0.00     0.095 A 
HETATM    9  C   UNK N   1      32.924  17.443   4.524  0.00  0.00     0.076 A 
HETATM   10  C   UNK N   1      31.744  16.945   4.000  0.00  0.00     0.090 A 
HETATM   11  C   UNK N   1      30.676  16.625   4.780  0.00  0.00     0.034 A 
HETATM   12  C   UNK N   1      29.684  16.165   3.943  0.00  0.00     0.041 A 
HETATM   13  C   UNK N   1      30.235  16.240   2.663  0.00  0.00     0.143 A 
HETATM   14  O   UNK N   1      31.468  16.711   2.745  0.00  0.00    -0.322 OA
ENDROOT
BRANCH   1  15
HETATM   15  O   UNK N   1      29.566  16.423   6.857  0.00  0.00    -0.354 OA
HETATM   16  C   UNK N   1      28.533  17.258   7.213  0.00  0.00     0.210 C 
ENDBRANCH   1  15
TORSDOF 1
ENDMDL
MODEL 3
REMARK VINA RESULT:      -5.9     13.450     15.556
REMARK  1 active torsions:
REMARK  status: ('A' for Active; 'I' for Inactive)
REMARK    1  A    between atoms: O_2  and  C_3 
ROOT
HETATM    1  C   UNK N   1      31.178  17.238   7.478  0.00  0.00     0.094 A 
HETATM    2  C   UNK N   1      30.637  16.958   6.178  0.00  0.00     0.032 A 
HETATM    3  C   UNK N   1      29.299  16.613   5.966  0.00  0.00     0.023 A 
HETATM    4  C   UNK N   1      28.843  16.354   4.675  0.00  0.00     0.083 A 
HETATM    5  C   UNK N   1      29.735  16.445   3.604  0.00  0.00     0.288 A 
HETATM    6  O   UNK N   1      29.348  16.221   2.473  0.00  0.00    -0.260 OA
HETATM    7  O   UNK N   1      31.006  16.774   3.813  0.00  0.00    -0.275 OA
HETATM    8  C   UNK N   1      31.487  17.029   5.026  0.00  0.00     0.095 A 
HETATM    9  C   UNK N   1      32.841  17.370   5.161  0.00  0.00     0.076 A 
HETATM   10  C   UNK N   1      33.322  17.632   6.432  0.00  0.00     0.090 A 
HETATM   11  C   UNK N   1      32.532  17.570   7.539  0.00  0.00     0.034 A 
HETATM   12  C   UNK N   1      33.323  17.885   8.621  0.00  0.00     0.041 A 
HETATM   13  C   UNK N   1      34.587  18.126   8.080  0.00  0.00     0.143 A 
HETATM   14  O   UNK N   1      34.539  17.963   6.769  0.00  0.00    -0.322 OA
ENDROOT
BRANCH   1  15
HETATM   15  O   UNK N   1      30.475  17.205   8.645  0.00  0.00    -0.354 OA
HETATM   16  C   UNK N   1      29.816  18.259   9.231  0.00  0.00     0.210 C 
ENDBRANCH   1  15
TORSDOF 1
ENDMDL
MODEL 4
REMARK VINA RESULT:      -5.8     15.076     17.498
REMARK  1 active torsions:
REMARK  status: ('A' for Active; 'I' for Inactive)
REMARK    1  A    between atoms: O_2  and  C_3 
ROOT
HETATM    1  C   UNK N   1      32.745  14.939   6.730  0.00  0.00     0.094 A 
HETATM    2  C   UNK N   1      33.437  16.068   7.283  0.00  0.00     0.032 A 
HETATM    3  C   UNK N   1      33.861  16.125   8.614  0.00  0.00     0.023 A 
HETATM    4  C   UNK N   1      34.528  17.256   9.084  0.00  0.00     0.083 A 
HETATM    5  C   UNK N   1      34.765  18.321   8.212  0.00  0.00     0.288 A 
HETATM    6  O   UNK N   1      35.346  19.312   8.610  0.00  0.00    -0.260 OA
HETATM    7  O   UNK N   1      34.359  18.258   6.948  0.00  0.00    -0.275 OA
HETATM    8  C   UNK N   1      33.719  17.203   6.454  0.00  0.00     0.095 A 
HETATM    9  C   UNK N   1      33.324  17.216   5.108  0.00  0.00     0.076 A 
HETATM   10  C   UNK N   1      32.659  16.107   4.615  0.00  0.00     0.090 A 
HETATM   11  C   UNK N   1      32.381  15.020   5.384  0.00  0.00     0.034 A 
HETATM   12  C   UNK N   1      31.720  14.114   4.585  0.00  0.00     0.041 A 
HETATM   13  C   UNK N   1      31.638  14.734   3.337  0.00  0.00     0.143 A 
HETATM   14  O   UNK N   1      32.212  15.923   3.402  0.00  0.00    -0.322 OA
ENDROOT
BRANCH   1  15
HETATM   15  O   UNK N   1      32.419  13.805   7.411  0.00  0.00    -0.354 OA
HETATM   16  C   UNK N   1      33.252  12.743   7.674  0.00  0.00     0.210 C 
ENDBRANCH   1  15
TORSDOF 1
ENDMDL
MODEL 5
REMARK VINA RESULT:      -5.8     17.989     21.224
REMARK  1 active torsions:
REMARK  status: ('A' for Active; 'I' for Inactive)
REMARK    1  A    between atoms: O_2  and  C_3 
ROOT
HETATM    1  C   UNK N   1      34.472  14.100  10.072  0.00  0.00     0.094 A 
HETATM    2  C   UNK N   1      34.573  15.430   9.544  0.00  0.00     0.032 A 
HETATM    3  C   UNK N   1      34.080  15.790   8.286  0.00  0.00     0.023 A 
HETATM    4  C   UNK N   1      34.212  17.103   7.836  0.00  0.00     0.083 A 
HETATM    5  C   UNK N   1      34.840  18.046   8.654  0.00  0.00     0.288 A 
HETATM    6  O   UNK N   1      34.961  19.194   8.273  0.00  0.00    -0.260 OA
HETATM    7  O   UNK N   1      35.306  17.695   9.849  0.00  0.00    -0.275 OA
HETATM    8  C   UNK N   1      35.203  16.457  10.321  0.00  0.00     0.095 A 
HETATM    9  C   UNK N   1      35.721  16.169  11.592  0.00  0.00     0.076 A 
HETATM   10  C   UNK N   1      35.603  14.873  12.064  0.00  0.00     0.090 A 
HETATM   11  C   UNK N   1      35.009  13.884  11.343  0.00  0.00     0.034 A 
HETATM   12  C   UNK N   1      35.064  12.737  12.103  0.00  0.00     0.041 A 
HETATM   13  C   UNK N   1      35.712  13.120  13.279  0.00  0.00     0.143 A 
HETATM   14  O   UNK N   1      36.016  14.405  13.211  0.00  0.00    -0.322 OA
ENDROOT
BRANCH   1  15
HETATM   15  O   UNK N   1      33.899  13.041   9.434  0.00  0.00    -0.354 OA
HETATM   16  C   UNK N   1      34.519  12.183   8.557  0.00  0.00     0.210 C 
ENDBRANCH   1  15
TORSDOF 1
ENDMDL
MODEL 6
REMARK VINA RESULT:      -5.7     16.921     19.664
REMARK  1 active torsions:
REMARK  status: ('A' for Active; 'I' for Inactive)
REMARK    1  A    between atoms: O_2  and  C_3 
ROOT
HETATM    1  C   UNK N   1      23.208  13.761   8.049  0.00  0.00     0.094 A 
HETATM    2  C   UNK N   1      23.256  13.173   9.358  0.00  0.00     0.032 A 
HETATM    3  C   UNK N   1      24.414  12.601   9.895  0.00  0.00     0.023 A 
HETATM    4  C   UNK N   1      24.387  12.047  11.174  0.00  0.00     0.083 A 
HETATM    5  C   UNK N   1      23.198  12.072  11.905  0.00  0.00     0.288 A 
HETATM    6  O   UNK N   1      23.162  11.593  13.022  0.00  0.00    -0.260 OA
HETATM    7  O   UNK N   1      22.101  12.618  11.387  0.00  0.00    -0.275 OA
HETATM    8  C   UNK N   1      22.077  13.158  10.173  0.00  0.00     0.095 A 
HETATM    9  C   UNK N   1      20.879  13.713   9.700  0.00  0.00     0.076 A 
HETATM   10  C   UNK N   1      20.876  14.270   8.433  0.00  0.00     0.090 A 
HETATM   11  C   UNK N   1      21.984  14.295   7.643  0.00  0.00     0.034 A 
HETATM   12  C   UNK N   1      21.630  14.914   6.465  0.00  0.00     0.041 A 
HETATM   13  C   UNK N   1      20.281  15.236   6.624  0.00  0.00     0.143 A 
HETATM   14  O   UNK N   1      19.873  14.833   7.815  0.00  0.00    -0.322 OA
ENDROOT
BRANCH   1  15
HETATM   15  O   UNK N   1      24.256  13.836   7.182  0.00  0.00    -0.354 OA
HETATM   16  C   UNK N   1      25.205  14.831   7.133  0.00  0.00     0.210 C 
ENDBRANCH   1  15
TORSDOF 1
ENDMDL
MODEL 7
REMARK VINA RESULT:      -5.7      2.044      3.346
REMARK  1 active torsions:
REMARK  status: ('A' for Active; 'I' for Inactive)
REMARK    1  A    between atoms: O_2  and  C_3 
ROOT
HETATM    1  C   UNK N   1      27.339  28.359  -6.473  0.00  0.00     0.094 A 
HETATM    2  C   UNK N   1      26.781  27.115  -6.921  0.00  0.00     0.032 A 
HETATM    3  C   UNK N   1      27.095  26.538  -8.155  0.00  0.00     0.023 A 
HETATM    4  C   UNK N   1      26.514  25.326  -8.526  0.00  0.00     0.083 A 
HETATM    5  C   UNK N   1      25.620  24.702  -7.653  0.00  0.00     0.288 A 
HETATM    6  O   UNK N   1      25.107  23.645  -7.965  0.00  0.00    -0.260 OA
HETATM    7  O   UNK N   1      25.326  25.257  -6.481  0.00  0.00    -0.275 OA
HETATM    8  C   UNK N   1      25.854  26.410  -6.084  0.00  0.00     0.095 A 
HETATM    9  C   UNK N   1      25.492  26.928  -4.832  0.00  0.00     0.076 A 
HETATM   10  C   UNK N   1      26.053  28.130  -4.438  0.00  0.00     0.090 A 
HETATM   11  C   UNK N   1      26.934  28.815  -5.217  0.00  0.00     0.034 A 
HETATM   12  C   UNK N   1      27.289  29.953  -4.527  0.00  0.00     0.041 A 
HETATM   13  C   UNK N   1      26.573  29.881  -3.331  0.00  0.00     0.143 A 
HETATM   14  O   UNK N   1      25.848  28.775  -3.322  0.00  0.00    -0.322 OA
ENDROOT
BRANCH   1  15
HETATM   15  O   UNK N   1      28.226  29.120  -7.173  0.00  0.00    -0.354 OA
HETATM   16  C   UNK N   1      29.594  28.980  -7.181  0.00  0.00     0.210 C 
ENDBRANCH   1  15
TORSDOF 1
ENDMDL
MODEL 8
REMARK VINA RESULT:      -5.6     10.099     11.702
REMARK  1 active torsions:
REMARK  status: ('A' for Active; 'I' for Inactive)
REMARK    1  A    between atoms: O_2  and  C_3 
ROOT
HETATM    1  C   UNK N   1      24.260  18.350   4.541  0.00  0.00     0.094 A 
HETATM    2  C   UNK N   1      23.301  19.123   3.803  0.00  0.00     0.032 A 
HETATM    3  C   UNK N   1      21.925  18.877   3.850  0.00  0.00     0.023 A 
HETATM    4  C   UNK N   1      21.052  19.669   3.106  0.00  0.00     0.083 A 
HETATM    5  C   UNK N   1      21.567  20.702   2.319  0.00  0.00     0.288 A 
HETATM    6  O   UNK N   1      20.815  21.399   1.666  0.00  0.00    -0.260 OA
HETATM    7  O   UNK N   1      22.876  20.928   2.280  0.00  0.00    -0.275 OA
HETATM    8  C   UNK N   1      23.748  20.201   2.971  0.00  0.00     0.095 A 
HETATM    9  C   UNK N   1      25.114  20.506   2.875  0.00  0.00     0.076 A 
HETATM   10  C   UNK N   1      26.005  19.736   3.603  0.00  0.00     0.090 A 
HETATM   11  C   UNK N   1      25.602  18.708   4.398  0.00  0.00     0.034 A 
HETATM   12  C   UNK N   1      26.732  18.166   4.967  0.00  0.00     0.041 A 
HETATM   13  C   UNK N   1      27.786  18.929   4.461  0.00  0.00     0.143 A 
HETATM   14  O   UNK N   1      27.304  19.856   3.650  0.00  0.00    -0.322 OA
ENDROOT
BRANCH   1  15
HETATM   15  O   UNK N   1      23.962  17.304   5.362  0.00  0.00    -0.354 OA
HETATM   16  C   UNK N   1      23.804  15.991   4.986  0.00  0.00     0.210 C 
ENDBRANCH   1  15
TORSDOF 1
ENDMDL
MODEL 9
REMARK VINA RESULT:      -5.6      4.120      6.722
REMARK  1 active torsions:
REMARK  status: ('A' for Active; 'I' for Inactive)
REMARK    1  A    between atoms: O_2  and  C_3 
ROOT
HETATM    1  C   UNK N   1      30.573  22.089  -5.087  0.00  0.00     0.094 A 
HETATM    2  C   UNK N   1      29.438  22.850  -4.648  0.00  0.00     0.032 A 
HETATM    3  C   UNK N   1      28.422  23.270  -5.511  0.00  0.00     0.023 A 
HETATM    4  C   UNK N   1      27.348  24.008  -5.015  0.00  0.00     0.083 A 
HETATM    5  C   UNK N   1      27.303  24.318  -3.654  0.00  0.00     0.288 A 
HETATM    6  O   UNK N   1      26.371  24.961  -3.209  0.00  0.00    -0.260 OA
HETATM    7  O   UNK N   1      28.273  23.915  -2.840  0.00  0.00    -0.275 OA
HETATM    8  C   UNK N   1      29.317  23.210  -3.265  0.00  0.00     0.095 A 
HETATM    9  C   UNK N   1      30.298  22.823  -2.342  0.00  0.00     0.076 A 
HETATM   10  C   UNK N   1      31.376  22.090  -2.806  0.00  0.00     0.090 A 
HETATM   11  C   UNK N   1      31.511  21.738  -4.114  0.00  0.00     0.034 A 
HETATM   12  C   UNK N   1      32.683  21.023  -4.224  0.00  0.00     0.041 A 
HETATM   13  C   UNK N   1      33.201  20.987  -2.929  0.00  0.00     0.143 A 
HETATM   14  O   UNK N   1      32.387  21.638  -2.115  0.00  0.00    -0.322 OA
ENDROOT
BRANCH   1  15
HETATM   15  O   UNK N   1      30.802  21.687  -6.368  0.00  0.00    -0.354 OA
HETATM   16  C   UNK N   1      30.327  20.540  -6.961  0.00  0.00     0.210 C 
ENDBRANCH   1  15
TORSDOF 1
ENDMDL
