REMARK  4 active torsions:
REMARK  status: ('A' for Active; 'I' for Inactive)
REMARK    1  A    between atoms: C_26  and  O_1 
REMARK    2  A    between atoms: O_2  and  C_28 
REMARK    3  A    between atoms: C_11  and  C_28 
REMARK    4  A    between atoms: C_19  and  C_31 
ROOT
HETATM    1  C   UNK N   1       7.452   3.458  -0.217  0.00  0.00    -0.032 C 
HETATM    2  C   UNK N   1       8.715   4.386  -0.160  0.00  0.00    -0.032 C 
HETATM    3  C   UNK N   1       6.351   4.029  -1.219  0.00  0.00     0.003 C 
HETATM    4  C   UNK N   1       8.325   5.862   0.185  0.00  0.00     0.000 C 
HETATM    5  C   UNK N   1       4.889   3.878  -0.675  0.00  0.00    -0.035 C 
HETATM    6  C   UNK N   1       9.598   6.782   0.075  0.00  0.00     0.017 C 
HETATM    7  C   UNK N   1       4.778   2.424  -0.108  0.00  0.00     0.004 C 
HETATM    8  C   UNK N   1      10.847   6.153   0.805  0.00  0.00     0.050 C 
HETATM    9  C   UNK N   1       6.853   3.255   1.198  0.00  0.00     0.011 C 
HETATM   10  C   UNK N   1       6.662   5.444  -1.745  0.00  0.00     0.006 C 
HETATM   11  C   UNK N   1       9.708   3.871   0.915  0.00  0.00     0.011 C 
HETATM   12  C   UNK N   1       7.156   6.401  -0.667  0.00  0.00     0.006 C 
HETATM   13  C   UNK N   1       5.572   2.375   1.223  0.00  0.00     0.007 C 
HETATM   14  C   UNK N   1      10.412   4.988   1.712  0.00  0.00     0.022 C 
HETATM   15  C   UNK N   1       3.314   1.845  -0.059  0.00  0.00    -0.017 C 
HETATM   16  C   UNK N   1       9.501   8.219   0.656  0.00  0.00     0.019 C 
HETATM   17  C   UNK N   1       3.819   4.100  -1.747  0.00  0.00     0.012 C 
HETATM   18  C   UNK N   1       7.894   2.055  -0.672  0.00  0.00     0.016 C 
HETATM   19  C   UNK N   1       9.428   4.337  -1.523  0.00  0.00     0.016 C 
HETATM   20  C   UNK N   1      11.386   7.259   1.706  0.00  0.00     0.021 C 
HETATM   21  C   UNK N   1      10.191   8.142   1.999  0.00  0.00     0.011 C 
HETATM   22  C   UNK N   1       4.623   4.945   0.411  0.00  0.00     0.016 C 
HETATM   23  C   UNK N   1       2.280   2.983   0.060  0.00  0.00     0.126 C 
HETATM   24  C   UNK N   1       2.386   3.927  -1.175  0.00  0.00     0.033 C 
HETATM   25  C   UNK N   1       3.159   0.825   1.066  0.00  0.00     0.018 C 
HETATM   26  C   UNK N   1       3.017   1.081  -1.357  0.00  0.00     0.018 C 
ENDROOT
BRANCH   8  27
HETATM   27  C   UNK N   1      11.956   5.704  -0.133  0.00  0.00     0.149 C 
HETATM   28  O   UNK N   1      12.364   4.542  -0.105  0.00  0.00    -0.649 OA
BRANCH  27  29
HETATM   29  O   UNK N   1      12.525   6.575  -0.985  0.00  0.00    -0.776 OA
HETATM   30  H   UNK N   1      13.247   6.297  -1.568  0.00  0.00     0.167 HD
ENDBRANCH  27  29
ENDBRANCH   8  27
BRANCH  16  31
HETATM   31  C   UNK N   1       8.145   8.890   0.742  0.00  0.00    -0.088 C 
HETATM   32  C   UNK N   1       7.872  10.127  -0.047  0.00  0.00     0.043 C 
HETATM   33  C   UNK N   1       7.218   8.465   1.603  0.00  0.00     0.014 C 
ENDBRANCH  16  31
BRANCH  23  34
HETATM   34  O   UNK N   1       0.980   2.455   0.127  0.00  0.00    -0.395 OA
HETATM   35  H   UNK N   1       0.381   3.200   0.395  0.00  0.00     0.210 HD
ENDBRANCH  23  34
TORSDOF 4
