MODEL 1
REMARK VINA RESULT:      -8.5      0.000      0.000
REMARK  4 active torsions:
REMARK  status: ('A' for Active; 'I' for Inactive)
REMARK    1  A    between atoms: C_26  and  O_1 
REMARK    2  A    between atoms: O_2  and  C_28 
REMARK    3  A    between atoms: C_11  and  C_28 
REMARK    4  A    between atoms: C_19  and  C_31 
ROOT
HETATM    1  C   UNK N   1      27.176  25.262  -5.379  0.00  0.00    -0.032 C 
HETATM    2  C   UNK N   1      26.496  24.295  -6.410  0.00  0.00    -0.032 C 
HETATM    3  C   UNK N   1      26.391  26.645  -5.268  0.00  0.00     0.003 C 
HETATM    4  C   UNK N   1      26.322  24.979  -7.807  0.00  0.00     0.000 C 
HETATM    5  C   UNK N   1      27.344  27.885  -5.162  0.00  0.00    -0.035 C 
HETATM    6  C   UNK N   1      25.497  24.033  -8.757  0.00  0.00     0.017 C 
HETATM    7  C   UNK N   1      28.447  27.505  -4.120  0.00  0.00     0.004 C 
HETATM    8  C   UNK N   1      26.026  22.547  -8.717  0.00  0.00     0.050 C 
HETATM    9  C   UNK N   1      28.662  25.503  -5.747  0.00  0.00     0.011 C 
HETATM   10  C   UNK N   1      25.281  26.818  -6.324  0.00  0.00     0.006 C 
HETATM   11  C   UNK N   1      27.353  23.014  -6.587  0.00  0.00     0.011 C 
HETATM   12  C   UNK N   1      25.700  26.389  -7.725  0.00  0.00     0.006 C 
HETATM   13  C   UNK N   1      29.400  26.483  -4.793  0.00  0.00     0.007 C 
HETATM   14  C   UNK N   1      27.403  22.483  -8.034  0.00  0.00     0.022 C 
HETATM   15  C   UNK N   1      29.139  28.731  -3.414  0.00  0.00    -0.017 C 
HETATM   16  C   UNK N   1      25.461  24.384 -10.269  0.00  0.00     0.019 C 
HETATM   17  C   UNK N   1      26.627  29.162  -4.716  0.00  0.00     0.012 C 
HETATM   18  C   UNK N   1      27.209  24.569  -4.004  0.00  0.00     0.016 C 
HETATM   19  C   UNK N   1      25.122  23.871  -5.860  0.00  0.00     0.016 C 
HETATM   20  C   UNK N   1      26.218  22.149 -10.176  0.00  0.00     0.021 C 
HETATM   21  C   UNK N   1      26.465  23.451 -10.908  0.00  0.00     0.011 C 
HETATM   22  C   UNK N   1      27.943  28.202  -6.550  0.00  0.00     0.016 C 
HETATM   23  C   UNK N   1      29.087  29.981  -4.316  0.00  0.00     0.126 C 
HETATM   24  C   UNK N   1      27.605  30.363  -4.608  0.00  0.00     0.033 C 
HETATM   25  C   UNK N   1      30.569  28.397  -2.999  0.00  0.00     0.018 C 
HETATM   26  C   UNK N   1      28.395  29.066  -2.113  0.00  0.00     0.018 C 
ENDROOT
BRANCH   8  27
HETATM   27  C   UNK N   1      25.068  21.563  -8.065  0.00  0.00     0.149 C 
HETATM   28  O   UNK N   1      25.463  20.451  -7.709  0.00  0.00    -0.649 OA
BRANCH  27  29
HETATM   29  O   UNK N   1      23.773  21.881  -7.893  0.00  0.00    -0.776 OA
HETATM   30  H   UNK N   1      23.467  22.278  -7.064  0.00  0.00     0.167 HD
ENDBRANCH  27  29
ENDBRANCH   8  27
BRANCH  16  31
HETATM   31  C   UNK N   1      25.658  25.824 -10.697  0.00  0.00    -0.088 C 
HETATM   32  C   UNK N   1      24.474  26.696 -10.955  0.00  0.00     0.043 C 
HETATM   33  C   UNK N   1      26.874  26.304 -10.965  0.00  0.00     0.014 C 
ENDBRANCH  16  31
BRANCH  23  34
HETATM   34  O   UNK N   1      29.727  31.062  -3.688  0.00  0.00    -0.395 OA
HETATM   35  H   UNK N   1      30.097  30.719  -2.833  0.00  0.00     0.210 HD
ENDBRANCH  23  34
TORSDOF 4
ENDMDL
MODEL 2
REMARK VINA RESULT:      -8.5      2.860      7.419
REMARK  4 active torsions:
REMARK  status: ('A' for Active; 'I' for Inactive)
REMARK    1  A    between atoms: C_26  and  O_1 
REMARK    2  A    between atoms: O_2  and  C_28 
REMARK    3  A    between atoms: C_11  and  C_28 
REMARK    4  A    between atoms: C_19  and  C_31 
ROOT
HETATM    1  C   UNK N   1      27.499  23.572  -6.494  0.00  0.00    -0.032 C 
HETATM    2  C   UNK N   1      27.118  24.935  -5.819  0.00  0.00    -0.032 C 
HETATM    3  C   UNK N   1      28.483  22.718  -5.575  0.00  0.00     0.003 C 
HETATM    4  C   UNK N   1      28.393  25.751  -5.418  0.00  0.00     0.000 C 
HETATM    5  C   UNK N   1      29.616  22.003  -6.388  0.00  0.00    -0.035 C 
HETATM    6  C   UNK N   1      27.966  27.030  -4.606  0.00  0.00     0.017 C 
HETATM    7  C   UNK N   1      28.924  21.358  -7.634  0.00  0.00     0.004 C 
HETATM    8  C   UNK N   1      26.777  27.801  -5.300  0.00  0.00     0.050 C 
HETATM    9  C   UNK N   1      28.121  23.805  -7.894  0.00  0.00     0.011 C 
HETATM   10  C   UNK N   1      29.008  23.485  -4.345  0.00  0.00     0.006 C 
HETATM   11  C   UNK N   1      26.266  25.793  -6.791  0.00  0.00     0.011 C 
HETATM   12  C   UNK N   1      29.440  24.913  -4.654  0.00  0.00     0.006 C 
HETATM   13  C   UNK N   1      28.561  22.501  -8.616  0.00  0.00     0.007 C 
HETATM   14  C   UNK N   1      26.579  27.302  -6.742  0.00  0.00     0.022 C 
HETATM   15  C   UNK N   1      29.693  20.132  -8.255  0.00  0.00    -0.017 C 
HETATM   16  C   UNK N   1      29.042  28.124  -4.367  0.00  0.00     0.019 C 
HETATM   17  C   UNK N   1      30.348  20.924  -5.585  0.00  0.00     0.012 C 
HETATM   18  C   UNK N   1      26.207  22.776  -6.755  0.00  0.00     0.016 C 
HETATM   19  C   UNK N   1      26.266  24.649  -4.570  0.00  0.00     0.016 C 
HETATM   20  C   UNK N   1      27.231  29.255  -5.376  0.00  0.00     0.021 C 
HETATM   21  C   UNK N   1      28.744  29.193  -5.394  0.00  0.00     0.011 C 
HETATM   22  C   UNK N   1      30.697  23.030  -6.793  0.00  0.00     0.016 C 
HETATM   23  C   UNK N   1      31.205  20.232  -7.965  0.00  0.00     0.126 C 
HETATM   24  C   UNK N   1      31.451  20.228  -6.427  0.00  0.00     0.033 C 
HETATM   25  C   UNK N   1      29.416  20.004  -9.751  0.00  0.00     0.018 C 
HETATM   26  C   UNK N   1      29.184  18.828  -7.625  0.00  0.00     0.018 C 
ENDROOT
BRANCH   8  27
HETATM   27  C   UNK N   1      25.464  27.739  -4.536  0.00  0.00     0.149 C 
HETATM   28  O   UNK N   1      24.397  27.619  -5.140  0.00  0.00    -0.649 OA
BRANCH  27  29
HETATM   29  O   UNK N   1      25.448  27.842  -3.196  0.00  0.00    -0.776 OA
HETATM   30  H   UNK N   1      25.218  28.680  -2.767  0.00  0.00     0.167 HD
ENDBRANCH  27  29
ENDBRANCH   8  27
BRANCH  16  31
HETATM   31  C   UNK N   1      30.505  27.730  -4.352  0.00  0.00    -0.088 C 
HETATM   32  C   UNK N   1      31.165  27.356  -3.067  0.00  0.00     0.043 C 
HETATM   33  C   UNK N   1      31.255  27.821  -5.452  0.00  0.00     0.014 C 
ENDBRANCH  16  31
BRANCH  23  34
HETATM   34  O   UNK N   1      31.885  19.148  -8.544  0.00  0.00    -0.395 OA
HETATM   35  H   UNK N   1      31.446  18.966  -9.416  0.00  0.00     0.210 HD
ENDBRANCH  23  34
TORSDOF 4
ENDMDL
MODEL 3
REMARK VINA RESULT:      -8.1      3.747      6.906
REMARK  4 active torsions:
REMARK  status: ('A' for Active; 'I' for Inactive)
REMARK    1  A    between atoms: C_26  and  O_1 
REMARK    2  A    between atoms: O_2  and  C_28 
REMARK    3  A    between atoms: C_11  and  C_28 
REMARK    4  A    between atoms: C_19  and  C_31 
ROOT
HETATM    1  C   UNK N   1      30.773  24.865  -4.919  0.00  0.00    -0.032 C 
HETATM    2  C   UNK N   1      29.676  25.888  -5.379  0.00  0.00    -0.032 C 
HETATM    3  C   UNK N   1      31.141  23.839  -6.082  0.00  0.00     0.003 C 
HETATM    4  C   UNK N   1      28.408  25.155  -5.931  0.00  0.00     0.000 C 
HETATM    5  C   UNK N   1      31.341  22.373  -5.566  0.00  0.00    -0.035 C 
HETATM    6  C   UNK N   1      27.405  26.215  -6.524  0.00  0.00     0.017 C 
HETATM    7  C   UNK N   1      32.226  22.475  -4.280  0.00  0.00     0.004 C 
HETATM    8  C   UNK N   1      27.193  27.438  -5.551  0.00  0.00     0.050 C 
HETATM    9  C   UNK N   1      30.322  24.110  -3.644  0.00  0.00     0.011 C 
HETATM   10  C   UNK N   1      30.214  23.931  -7.310  0.00  0.00     0.006 C 
HETATM   11  C   UNK N   1      29.252  26.787  -4.189  0.00  0.00     0.011 C 
HETATM   12  C   UNK N   1      28.737  24.047  -6.953  0.00  0.00     0.006 C 
HETATM   13  C   UNK N   1      31.340  23.048  -3.143  0.00  0.00     0.007 C 
HETATM   14  C   UNK N   1      27.746  27.116  -4.151  0.00  0.00     0.022 C 
HETATM   15  C   UNK N   1      33.037  21.171  -3.932  0.00  0.00    -0.017 C 
HETATM   16  C   UNK N   1      25.965  25.737  -6.855  0.00  0.00     0.019 C 
HETATM   17  C   UNK N   1      32.018  21.458  -6.590  0.00  0.00     0.012 C 
HETATM   18  C   UNK N   1      32.030  25.650  -4.499  0.00  0.00     0.016 C 
HETATM   19  C   UNK N   1      30.272  26.797  -6.469  0.00  0.00     0.016 C 
HETATM   20  C   UNK N   1      25.682  27.594  -5.423  0.00  0.00     0.021 C 
HETATM   21  C   UNK N   1      25.122  26.213  -5.694  0.00  0.00     0.011 C 
HETATM   22  C   UNK N   1      29.966  21.730  -5.274  0.00  0.00     0.016 C 
HETATM   23  C   UNK N   1      32.327  19.920  -4.487  0.00  0.00     0.126 C 
HETATM   24  C   UNK N   1      32.213  20.020  -6.038  0.00  0.00     0.033 C 
HETATM   25  C   UNK N   1      33.284  21.057  -2.429  0.00  0.00     0.018 C 
HETATM   26  C   UNK N   1      34.429  21.240  -4.577  0.00  0.00     0.018 C 
ENDROOT
BRANCH   8  27
HETATM   27  C   UNK N   1      27.778  28.747  -6.059  0.00  0.00     0.149 C 
HETATM   28  O   UNK N   1      27.969  28.918  -7.264  0.00  0.00    -0.649 OA
BRANCH  27  29
HETATM   29  O   UNK N   1      28.119  29.722  -5.199  0.00  0.00    -0.776 OA
HETATM   30  H   UNK N   1      27.446  30.165  -4.661  0.00  0.00     0.167 HD
ENDBRANCH  27  29
ENDBRANCH   8  27
BRANCH  16  31
HETATM   31  C   UNK N   1      25.728  24.276  -7.179  0.00  0.00    -0.088 C 
HETATM   32  C   UNK N   1      25.580  23.840  -8.599  0.00  0.00     0.043 C 
HETATM   33  C   UNK N   1      25.531  23.378  -6.212  0.00  0.00     0.014 C 
ENDBRANCH  16  31
BRANCH  23  34
HETATM   34  O   UNK N   1      33.046  18.762  -4.151  0.00  0.00    -0.395 OA
HETATM   35  H   UNK N   1      33.138  18.229  -4.984  0.00  0.00     0.210 HD
ENDBRANCH  23  34
TORSDOF 4
ENDMDL
MODEL 4
REMARK VINA RESULT:      -7.7     13.664     17.225
REMARK  4 active torsions:
REMARK  status: ('A' for Active; 'I' for Inactive)
REMARK    1  A    between atoms: C_26  and  O_1 
REMARK    2  A    between atoms: O_2  and  C_28 
REMARK    3  A    between atoms: C_11  and  C_28 
REMARK    4  A    between atoms: C_19  and  C_31 
ROOT
HETATM    1  C   UNK N   1      29.657  15.596   4.093  0.00  0.00    -0.032 C 
HETATM    2  C   UNK N   1      30.886  16.050   4.955  0.00  0.00    -0.032 C 
HETATM    3  C   UNK N   1      28.570  16.756   3.967  0.00  0.00     0.003 C 
HETATM    4  C   UNK N   1      30.436  16.580   6.358  0.00  0.00     0.000 C 
HETATM    5  C   UNK N   1      27.097  16.231   4.075  0.00  0.00    -0.035 C 
HETATM    6  C   UNK N   1      31.681  17.168   7.121  0.00  0.00     0.017 C 
HETATM    7  C   UNK N   1      27.016  14.957   3.170  0.00  0.00     0.004 C 
HETATM    8  C   UNK N   1      32.926  16.202   7.056  0.00  0.00     0.050 C 
HETATM    9  C   UNK N   1      29.020  14.309   4.676  0.00  0.00     0.011 C 
HETATM   10  C   UNK N   1      28.850  17.972   4.871  0.00  0.00     0.006 C 
HETATM   11  C   UNK N   1      31.861  14.861   5.163  0.00  0.00     0.011 C 
HETATM   12  C   UNK N   1      29.278  17.597   6.285  0.00  0.00     0.006 C 
HETATM   13  C   UNK N   1      27.769  13.813   3.899  0.00  0.00     0.007 C 
HETATM   14  C   UNK N   1      32.501  14.807   6.565  0.00  0.00     0.022 C 
HETATM   15  C   UNK N   1      25.572  14.609   2.649  0.00  0.00    -0.017 C 
HETATM   16  C   UNK N   1      31.518  17.477   8.635  0.00  0.00     0.019 C 
HETATM   17  C   UNK N   1      26.055  17.256   3.621  0.00  0.00     0.012 C 
HETATM   18  C   UNK N   1      30.159  15.198   2.693  0.00  0.00     0.016 C 
HETATM   19  C   UNK N   1      31.643  17.154   4.196  0.00  0.00     0.016 C 
HETATM   20  C   UNK N   1      33.399  16.056   8.498  0.00  0.00     0.021 C 
HETATM   21  C   UNK N   1      32.167  16.309   9.341  0.00  0.00     0.011 C 
HETATM   22  C   UNK N   1      26.761  15.916   5.550  0.00  0.00     0.016 C 
HETATM   23  C   UNK N   1      24.497  15.146   3.616  0.00  0.00     0.126 C 
HETATM   24  C   UNK N   1      24.611  16.696   3.727  0.00  0.00     0.033 C 
HETATM   25  C   UNK N   1      25.415  13.109   2.411  0.00  0.00     0.018 C 
HETATM   26  C   UNK N   1      25.342  15.272   1.283  0.00  0.00     0.018 C 
ENDROOT
BRANCH   8  27
HETATM   27  C   UNK N   1      34.079  16.728   6.215  0.00  0.00     0.149 C 
HETATM   28  O   UNK N   1      34.213  17.938   6.028  0.00  0.00    -0.649 OA
BRANCH  27  29
HETATM   29  O   UNK N   1      34.949  15.878   5.642  0.00  0.00    -0.776 OA
HETATM   30  H   UNK N   1      35.650  16.206   5.058  0.00  0.00     0.167 HD
ENDBRANCH  27  29
ENDBRANCH   8  27
BRANCH  16  31
HETATM   31  C   UNK N   1      30.138  17.787   9.180  0.00  0.00    -0.088 C 
HETATM   32  C   UNK N   1      29.610  19.182   9.128  0.00  0.00     0.043 C 
HETATM   33  C   UNK N   1      29.423  16.857   9.817  0.00  0.00     0.014 C 
ENDBRANCH  16  31
BRANCH  23  34
HETATM   34  O   UNK N   1      23.214  14.809   3.154  0.00  0.00    -0.395 OA
HETATM   35  H   UNK N   1      22.861  14.114   3.768  0.00  0.00     0.210 HD
ENDBRANCH  23  34
TORSDOF 4
ENDMDL
MODEL 5
REMARK VINA RESULT:      -7.6      3.934      6.610
REMARK  4 active torsions:
REMARK  status: ('A' for Active; 'I' for Inactive)
REMARK    1  A    between atoms: C_26  and  O_1 
REMARK    2  A    between atoms: O_2  and  C_28 
REMARK    3  A    between atoms: C_11  and  C_28 
REMARK    4  A    between atoms: C_19  and  C_31 
ROOT
HETATM    1  C   UNK N   1      30.029  24.035  -4.171  0.00  0.00    -0.032 C 
HETATM    2  C   UNK N   1      28.913  25.134  -4.245  0.00  0.00    -0.032 C 
HETATM    3  C   UNK N   1      31.349  24.488  -4.943  0.00  0.00     0.003 C 
HETATM    4  C   UNK N   1      28.609  25.542  -5.725  0.00  0.00     0.000 C 
HETATM    5  C   UNK N   1      32.011  23.326  -5.760  0.00  0.00    -0.035 C 
HETATM    6  C   UNK N   1      27.604  26.753  -5.741  0.00  0.00     0.017 C 
HETATM    7  C   UNK N   1      32.023  22.077  -4.819  0.00  0.00     0.004 C 
HETATM    8  C   UNK N   1      26.383  26.522  -4.769  0.00  0.00     0.050 C 
HETATM    9  C   UNK N   1      29.508  22.683  -4.722  0.00  0.00     0.011 C 
HETATM   10  C   UNK N   1      31.179  25.786  -5.756  0.00  0.00     0.006 C 
HETATM   11  C   UNK N   1      27.604  24.611  -3.596  0.00  0.00     0.011 C 
HETATM   12  C   UNK N   1      29.879  25.844  -6.549  0.00  0.00     0.006 C 
HETATM   13  C   UNK N   1      30.569  21.547  -4.719  0.00  0.00     0.007 C 
HETATM   14  C   UNK N   1      26.318  25.049  -4.326  0.00  0.00     0.022 C 
HETATM   15  C   UNK N   1      33.125  21.004  -5.160  0.00  0.00    -0.017 C 
HETATM   16  C   UNK N   1      26.945  27.125  -7.098  0.00  0.00     0.019 C 
HETATM   17  C   UNK N   1      33.436  23.645  -6.218  0.00  0.00     0.012 C 
HETATM   18  C   UNK N   1      30.356  23.767  -2.691  0.00  0.00     0.016 C 
HETATM   19  C   UNK N   1      29.376  26.365  -3.446  0.00  0.00     0.016 C 
HETATM   20  C   UNK N   1      25.141  26.804  -5.607  0.00  0.00     0.021 C 
HETATM   21  C   UNK N   1      25.560  26.521  -7.035  0.00  0.00     0.011 C 
HETATM   22  C   UNK N   1      31.202  23.070  -7.052  0.00  0.00     0.016 C 
HETATM   23  C   UNK N   1      33.497  21.060  -6.656  0.00  0.00     0.126 C 
HETATM   24  C   UNK N   1      34.064  22.467  -7.010  0.00  0.00     0.033 C 
HETATM   25  C   UNK N   1      32.685  19.604  -4.742  0.00  0.00     0.018 C 
HETATM   26  C   UNK N   1      34.399  21.298  -4.354  0.00  0.00     0.018 C 
ENDROOT
BRANCH   8  27
HETATM   27  C   UNK N   1      26.371  27.438  -3.555  0.00  0.00     0.149 C 
HETATM   28  O   UNK N   1      25.913  27.044  -2.482  0.00  0.00    -0.649 OA
BRANCH  27  29
HETATM   29  O   UNK N   1      26.834  28.697  -3.645  0.00  0.00    -0.776 OA
HETATM   30  H   UNK N   1      27.060  29.199  -2.848  0.00  0.00     0.167 HD
ENDBRANCH  27  29
ENDBRANCH   8  27
BRANCH  16  31
HETATM   31  C   UNK N   1      27.665  26.783  -8.386  0.00  0.00    -0.088 C 
HETATM   32  C   UNK N   1      28.580  27.778  -9.018  0.00  0.00     0.043 C 
HETATM   33  C   UNK N   1      27.410  25.647  -9.039  0.00  0.00     0.014 C 
ENDBRANCH  16  31
BRANCH  23  34
HETATM   34  O   UNK N   1      34.462  20.084  -6.954  0.00  0.00    -0.395 OA
HETATM   35  H   UNK N   1      35.077  20.041  -6.176  0.00  0.00     0.210 HD
ENDBRANCH  23  34
TORSDOF 4
ENDMDL
MODEL 6
REMARK VINA RESULT:      -7.6      2.568      3.980
REMARK  4 active torsions:
REMARK  status: ('A' for Active; 'I' for Inactive)
REMARK    1  A    between atoms: C_26  and  O_1 
REMARK    2  A    between atoms: O_2  and  C_28 
REMARK    3  A    between atoms: C_11  and  C_28 
REMARK    4  A    between atoms: C_19  and  C_31 
ROOT
HETATM    1  C   UNK N   1      29.644  25.156  -4.733  0.00  0.00    -0.032 C 
HETATM    2  C   UNK N   1      29.888  23.742  -5.363  0.00  0.00    -0.032 C 
HETATM    3  C   UNK N   1      28.218  25.243  -4.024  0.00  0.00     0.003 C 
HETATM    4  C   UNK N   1      28.730  23.342  -6.337  0.00  0.00     0.000 C 
HETATM    5  C   UNK N   1      27.492  26.609  -4.271  0.00  0.00    -0.035 C 
HETATM    6  C   UNK N   1      28.938  21.857  -6.820  0.00  0.00     0.017 C 
HETATM    7  C   UNK N   1      28.566  27.725  -4.047  0.00  0.00     0.004 C 
HETATM    8  C   UNK N   1      30.422  21.587  -7.280  0.00  0.00     0.050 C 
HETATM    9  C   UNK N   1      29.793  26.269  -5.801  0.00  0.00     0.011 C 
HETATM   10  C   UNK N   1      27.318  24.019  -4.284  0.00  0.00     0.006 C 
HETATM   11  C   UNK N   1      31.225  23.732  -6.151  0.00  0.00     0.011 C 
HETATM   12  C   UNK N   1      27.324  23.555  -5.736  0.00  0.00     0.006 C 
HETATM   13  C   UNK N   1      29.528  27.703  -5.263  0.00  0.00     0.007 C 
HETATM   14  C   UNK N   1      31.182  22.914  -7.458  0.00  0.00     0.022 C 
HETATM   15  C   UNK N   1      27.981  29.135  -3.657  0.00  0.00    -0.017 C 
HETATM   16  C   UNK N   1      28.073  21.359  -8.010  0.00  0.00     0.019 C 
HETATM   17  C   UNK N   1      26.302  26.840  -3.335  0.00  0.00     0.012 C 
HETATM   18  C   UNK N   1      30.756  25.434  -3.704  0.00  0.00     0.016 C 
HETATM   19  C   UNK N   1      30.002  22.706  -4.230  0.00  0.00     0.016 C 
HETATM   20  C   UNK N   1      30.306  20.937  -8.654  0.00  0.00     0.021 C 
HETATM   21  C   UNK N   1      28.988  21.434  -9.212  0.00  0.00     0.011 C 
HETATM   22  C   UNK N   1      26.912  26.642  -5.703  0.00  0.00     0.016 C 
HETATM   23  C   UNK N   1      26.549  29.303  -4.203  0.00  0.00     0.126 C 
HETATM   24  C   UNK N   1      25.619  28.208  -3.599  0.00  0.00     0.033 C 
HETATM   25  C   UNK N   1      28.897  30.263  -4.124  0.00  0.00     0.018 C 
HETATM   26  C   UNK N   1      27.913  29.260  -2.128  0.00  0.00     0.018 C 
ENDROOT
BRANCH   8  27
HETATM   27  C   UNK N   1      31.199  20.655  -6.363  0.00  0.00     0.149 C 
HETATM   28  O   UNK N   1      30.607  19.825  -5.672  0.00  0.00    -0.649 OA
BRANCH  27  29
HETATM   29  O   UNK N   1      32.537  20.743  -6.274  0.00  0.00    -0.776 OA
HETATM   30  H   UNK N   1      33.013  21.479  -6.686  0.00  0.00     0.167 HD
ENDBRANCH  27  29
ENDBRANCH   8  27
BRANCH  16  31
HETATM   31  C   UNK N   1      26.729  22.009  -8.268  0.00  0.00    -0.088 C 
HETATM   32  C   UNK N   1      25.486  21.404  -7.705  0.00  0.00     0.043 C 
HETATM   33  C   UNK N   1      26.613  23.053  -9.092  0.00  0.00     0.014 C 
ENDBRANCH  16  31
BRANCH  23  34
HETATM   34  O   UNK N   1      26.046  30.571  -3.870  0.00  0.00    -0.395 OA
HETATM   35  H   UNK N   1      26.795  31.214  -3.975  0.00  0.00     0.210 HD
ENDBRANCH  23  34
TORSDOF 4
ENDMDL
MODEL 7
REMARK VINA RESULT:      -7.3      1.757      3.000
REMARK  4 active torsions:
REMARK  status: ('A' for Active; 'I' for Inactive)
REMARK    1  A    between atoms: C_26  and  O_1 
REMARK    2  A    between atoms: O_2  and  C_28 
REMARK    3  A    between atoms: C_11  and  C_28 
REMARK    4  A    between atoms: C_19  and  C_31 
ROOT
HETATM    1  C   UNK N   1      26.540  26.230  -6.311  0.00  0.00    -0.032 C 
HETATM    2  C   UNK N   1      26.505  24.968  -7.242  0.00  0.00    -0.032 C 
HETATM    3  C   UNK N   1      27.317  27.441  -6.997  0.00  0.00     0.003 C 
HETATM    4  C   UNK N   1      27.944  24.553  -7.697  0.00  0.00     0.000 C 
HETATM    5  C   UNK N   1      28.233  28.228  -5.997  0.00  0.00    -0.035 C 
HETATM    6  C   UNK N   1      27.846  23.387  -8.750  0.00  0.00     0.017 C 
HETATM    7  C   UNK N   1      27.381  28.453  -4.704  0.00  0.00     0.004 C 
HETATM    8  C   UNK N   1      26.856  22.250  -8.285  0.00  0.00     0.050 C 
HETATM    9  C   UNK N   1      27.168  25.883  -4.937  0.00  0.00     0.011 C 
HETATM   10  C   UNK N   1      28.034  27.060  -8.307  0.00  0.00     0.006 C 
HETATM   11  C   UNK N   1      25.856  23.772  -6.496  0.00  0.00     0.011 C 
HETATM   12  C   UNK N   1      28.782  25.734  -8.229  0.00  0.00     0.006 C 
HETATM   13  C   UNK N   1      27.275  27.093  -3.966  0.00  0.00     0.007 C 
HETATM   14  C   UNK N   1      26.515  22.410  -6.792  0.00  0.00     0.022 C 
HETATM   15  C   UNK N   1      27.828  29.680  -3.824  0.00  0.00    -0.017 C 
HETATM   16  C   UNK N   1      29.153  22.630  -9.111  0.00  0.00     0.019 C 
HETATM   17  C   UNK N   1      28.709  29.575  -6.545  0.00  0.00     0.012 C 
HETATM   18  C   UNK N   1      25.092  26.649  -5.997  0.00  0.00     0.016 C 
HETATM   19  C   UNK N   1      25.636  25.285  -8.472  0.00  0.00     0.016 C 
HETATM   20  C   UNK N   1      27.636  20.949  -8.440  0.00  0.00     0.021 C 
HETATM   21  C   UNK N   1      29.091  21.347  -8.312  0.00  0.00     0.011 C 
HETATM   22  C   UNK N   1      29.515  27.414  -5.711  0.00  0.00     0.016 C 
HETATM   23  C   UNK N   1      29.327  29.982  -4.028  0.00  0.00     0.126 C 
HETATM   24  C   UNK N   1      29.599  30.331  -5.522  0.00  0.00     0.033 C 
HETATM   25  C   UNK N   1      27.495  29.458  -2.351  0.00  0.00     0.018 C 
HETATM   26  C   UNK N   1      27.042  30.930  -4.244  0.00  0.00     0.018 C 
ENDROOT
BRANCH   8  27
HETATM   27  C   UNK N   1      25.582  22.157  -9.109  0.00  0.00     0.149 C 
HETATM   28  O   UNK N   1      25.579  22.497 -10.293  0.00  0.00    -0.649 OA
BRANCH  27  29
HETATM   29  O   UNK N   1      24.436  21.729  -8.550  0.00  0.00    -0.776 OA
HETATM   30  H   UNK N   1      24.022  20.903  -8.841  0.00  0.00     0.167 HD
ENDBRANCH  27  29
ENDBRANCH   8  27
BRANCH  16  31
HETATM   31  C   UNK N   1      30.483  23.340  -8.959  0.00  0.00    -0.088 C 
HETATM   32  C   UNK N   1      31.069  24.083 -10.113  0.00  0.00     0.043 C 
HETATM   33  C   UNK N   1      31.206  23.220  -7.844  0.00  0.00     0.014 C 
ENDBRANCH  16  31
BRANCH  23  34
HETATM   34  O   UNK N   1      29.721  31.062  -3.222  0.00  0.00    -0.395 OA
HETATM   35  H   UNK N   1      30.192  30.678  -2.437  0.00  0.00     0.210 HD
ENDBRANCH  23  34
TORSDOF 4
ENDMDL
MODEL 8
REMARK VINA RESULT:      -7.2     24.082     26.854
REMARK  4 active torsions:
REMARK  status: ('A' for Active; 'I' for Inactive)
REMARK    1  A    between atoms: C_26  and  O_1 
REMARK    2  A    between atoms: O_2  and  C_28 
REMARK    3  A    between atoms: C_11  and  C_28 
REMARK    4  A    between atoms: C_19  and  C_31 
ROOT
HETATM    1  C   UNK N   1      36.242  12.552  14.694  0.00  0.00    -0.032 C 
HETATM    2  C   UNK N   1      36.297  12.782  13.144  0.00  0.00    -0.032 C 
HETATM    3  C   UNK N   1      36.645  11.059  15.080  0.00  0.00     0.003 C 
HETATM    4  C   UNK N   1      35.426  11.730  12.379  0.00  0.00     0.000 C 
HETATM    5  C   UNK N   1      35.754  10.457  16.220  0.00  0.00    -0.035 C 
HETATM    6  C   UNK N   1      35.638  11.900  10.828  0.00  0.00     0.017 C 
HETATM    7  C   UNK N   1      35.640  11.565  17.320  0.00  0.00     0.004 C 
HETATM    8  C   UNK N   1      35.543  13.409  10.380  0.00  0.00     0.050 C 
HETATM    9  C   UNK N   1      34.840  12.904  15.254  0.00  0.00     0.011 C 
HETATM   10  C   UNK N   1      36.794  10.121  13.865  0.00  0.00     0.006 C 
HETATM   11  C   UNK N   1      35.778  14.202  12.796  0.00  0.00     0.011 C 
HETATM   12  C   UNK N   1      35.683  10.277  12.834  0.00  0.00     0.006 C 
HETATM   13  C   UNK N   1      34.691  12.667  16.783  0.00  0.00     0.007 C 
HETATM   14  C   UNK N   1      34.938  14.269  11.504  0.00  0.00     0.022 C 
HETATM   15  C   UNK N   1      35.324  11.028  18.767  0.00  0.00    -0.017 C 
HETATM   16  C   UNK N   1      34.655  11.159   9.881  0.00  0.00     0.019 C 
HETATM   17  C   UNK N   1      36.333   9.178  16.830  0.00  0.00     0.012 C 
HETATM   18  C   UNK N   1      37.205  13.544  15.372  0.00  0.00     0.016 C 
HETATM   19  C   UNK N   1      37.761  12.688  12.681  0.00  0.00     0.016 C 
HETATM   20  C   UNK N   1      34.562  13.422   9.213  0.00  0.00     0.021 C 
HETATM   21  C   UNK N   1      33.671  12.218   9.438  0.00  0.00     0.011 C 
HETATM   22  C   UNK N   1      34.372  10.063  15.651  0.00  0.00     0.016 C 
HETATM   23  C   UNK N   1      34.564   9.687  18.698  0.00  0.00     0.126 C 
HETATM   24  C   UNK N   1      35.433   8.622  17.965  0.00  0.00     0.033 C 
HETATM   25  C   UNK N   1      34.563  12.064  19.588  0.00  0.00     0.018 C 
HETATM   26  C   UNK N   1      36.636  10.779  19.523  0.00  0.00     0.018 C 
ENDROOT
BRANCH   8  27
HETATM   27  C   UNK N   1      36.863  14.005   9.915  0.00  0.00     0.149 C 
HETATM   28  O   UNK N   1      37.661  13.324   9.270  0.00  0.00    -0.649 OA
BRANCH  27  29
HETATM   29  O   UNK N   1      37.187  15.273  10.226  0.00  0.00    -0.776 OA
HETATM   30  H   UNK N   1      36.539  15.986  10.132  0.00  0.00     0.167 HD
ENDBRANCH  27  29
ENDBRANCH   8  27
BRANCH  16  31
HETATM   31  C   UNK N   1      33.966   9.901  10.370  0.00  0.00    -0.088 C 
HETATM   32  C   UNK N   1      34.644   8.578  10.239  0.00  0.00     0.043 C 
HETATM   33  C   UNK N   1      32.707   9.931  10.813  0.00  0.00     0.014 C 
ENDBRANCH  16  31
BRANCH  23  34
HETATM   34  O   UNK N   1      34.266   9.230  19.992  0.00  0.00    -0.395 OA
HETATM   35  H   UNK N   1      35.129   9.166  20.480  0.00  0.00     0.210 HD
ENDBRANCH  23  34
TORSDOF 4
ENDMDL
MODEL 9
REMARK VINA RESULT:      -7.1     13.990     16.643
REMARK  4 active torsions:
REMARK  status: ('A' for Active; 'I' for Inactive)
REMARK    1  A    between atoms: C_26  and  O_1 
REMARK    2  A    between atoms: O_2  and  C_28 
REMARK    3  A    between atoms: C_11  and  C_28 
REMARK    4  A    between atoms: C_19  and  C_31 
ROOT
HETATM    1  C   UNK N   1      26.853  15.312   3.733  0.00  0.00    -0.032 C 
HETATM    2  C   UNK N   1      28.240  15.885   4.186  0.00  0.00    -0.032 C 
HETATM    3  C   UNK N   1      25.755  16.462   3.612  0.00  0.00     0.003 C 
HETATM    4  C   UNK N   1      28.113  16.709   5.510  0.00  0.00     0.000 C 
HETATM    5  C   UNK N   1      24.349  16.028   4.151  0.00  0.00    -0.035 C 
HETATM    6  C   UNK N   1      29.493  17.394   5.838  0.00  0.00     0.017 C 
HETATM    7  C   UNK N   1      24.078  14.599   3.574  0.00  0.00     0.004 C 
HETATM    8  C   UNK N   1      30.700  16.387   5.701  0.00  0.00     0.050 C 
HETATM    9  C   UNK N   1      26.375  14.198   4.699  0.00  0.00     0.011 C 
HETATM   10  C   UNK N   1      26.221  17.827   4.155  0.00  0.00     0.006 C 
HETATM   11  C   UNK N   1      29.247  14.728   4.416  0.00  0.00     0.011 C 
HETATM   12  C   UNK N   1      26.959  17.734   5.485  0.00  0.00     0.006 C 
HETATM   13  C   UNK N   1      24.985  13.601   4.340  0.00  0.00     0.007 C 
HETATM   14  C   UNK N   1      30.188  14.938   5.620  0.00  0.00     0.022 C 
HETATM   15  C   UNK N   1      22.556  14.207   3.471  0.00  0.00    -0.017 C 
HETATM   16  C   UNK N   1      29.672  18.014   7.251  0.00  0.00     0.019 C 
HETATM   17  C   UNK N   1      23.223  16.978   3.736  0.00  0.00     0.012 C 
HETATM   18  C   UNK N   1      27.030  14.615   2.371  0.00  0.00     0.016 C 
HETATM   19  C   UNK N   1      28.797  16.779   3.064  0.00  0.00     0.016 C 
HETATM   20  C   UNK N   1      31.487  16.523   7.000  0.00  0.00     0.021 C 
HETATM   21  C   UNK N   1      30.474  16.992   8.024  0.00  0.00     0.011 C 
HETATM   22  C   UNK N   1      24.357  16.037   5.696  0.00  0.00     0.016 C 
HETATM   23  C   UNK N   1      21.722  14.973   4.518  0.00  0.00     0.126 C 
HETATM   24  C   UNK N   1      21.845  16.507   4.275  0.00  0.00     0.033 C 
HETATM   25  C   UNK N   1      22.363  12.698   3.593  0.00  0.00     0.018 C 
HETATM   26  C   UNK N   1      22.019  14.584   2.083  0.00  0.00     0.018 C 
ENDROOT
BRANCH   8  27
HETATM   27  C   UNK N   1      31.629  16.684   4.535  0.00  0.00     0.149 C 
HETATM   28  O   UNK N   1      32.336  15.794   4.059  0.00  0.00    -0.649 OA
BRANCH  27  29
HETATM   29  O   UNK N   1      31.712  17.925   4.025  0.00  0.00    -0.776 OA
HETATM   30  H   UNK N   1      31.108  18.623   4.321  0.00  0.00     0.167 HD
ENDBRANCH  27  29
ENDBRANCH   8  27
BRANCH  16  31
HETATM   31  C   UNK N   1      28.448  18.482   8.012  0.00  0.00    -0.088 C 
HETATM   32  C   UNK N   1      27.817  19.792   7.677  0.00  0.00     0.043 C 
HETATM   33  C   UNK N   1      27.985  17.800   9.062  0.00  0.00     0.014 C 
ENDBRANCH  16  31
BRANCH  23  34
HETATM   34  O   UNK N   1      20.371  14.599   4.433  0.00  0.00    -0.395 OA
HETATM   35  H   UNK N   1      20.353  13.613   4.319  0.00  0.00     0.210 HD
ENDBRANCH  23  34
TORSDOF 4
ENDMDL
