MODEL 1
REMARK VINA RESULT:      -5.7      0.000      0.000
REMARK  4 active torsions:
REMARK  status: ('A' for Active; 'I' for Inactive)
REMARK    1  A    between atoms: C_2  and  N_7 
REMARK    2  A    between atoms: C_3  and  C_10 
REMARK    3  A    between atoms: C_5  and  N_13 
REMARK    4  A    between atoms: C_6  and  N_16 
REMARK       I    between atoms: C_10  and  N_11 
ROOT
HETATM    1  C   UNK N   1      22.041  15.505   7.219  0.00  0.00     0.075 A 
HETATM    2  C   UNK N   1      20.983  16.397   7.439  0.00  0.00     0.121 A 
HETATM    3  C   UNK N   1      20.094  16.125   8.545  0.00  0.00     0.067 A 
HETATM    4  C   UNK N   1      20.355  14.982   9.322  0.00  0.00     0.051 A 
HETATM    5  C   UNK N   1      21.418  14.108   9.083  0.00  0.00     0.064 A 
HETATM    6  C   UNK N   1      22.289  14.378   7.994  0.00  0.00     0.131 A 
ENDROOT
BRANCH   3   7
HETATM    7  C   UNK N   1      18.896  16.919   8.988  0.00  0.00     0.252 C 
HETATM    8  N   UNK N   1      19.043  18.228   9.289  0.00  0.00    -0.366 N 
HETATM    9  H   UNK N   1      19.928  18.653   9.219  0.00  0.00     0.159 HD
HETATM   10  H   UNK N   1      18.265  18.756   9.580  0.00  0.00     0.159 HD
HETATM   11  O   UNK N   1      17.790  16.431   9.087  0.00  0.00    -0.268 OA
ENDBRANCH   3   7
BRANCH   2  12
HETATM   12  N   UNK N   1      20.901  17.504   6.521  0.00  0.00    -0.115 N 
HETATM   13  O   UNK N   1      20.735  17.284   5.358  0.00  0.00    -0.532 OA
HETATM   14  O   UNK N   1      21.002  18.750   6.905  0.00  0.00    -0.532 OA
ENDBRANCH   2  12
BRANCH   5  15
HETATM   15  N   UNK N   1      21.558  12.992   9.953  0.00  0.00    -0.376 N 
HETATM   16  C   UNK N   1      22.270  11.904  10.417  0.00  0.00     0.143 A 
HETATM   17  C   UNK N   1      20.785  12.433  10.952  0.00  0.00     0.143 A 
ENDBRANCH   5  15
BRANCH   6  18
HETATM   18  N   UNK N   1      23.415  13.572   7.633  0.00  0.00    -0.113 N 
HETATM   19  O   UNK N   1      23.331  12.722   6.805  0.00  0.00    -0.532 OA
HETATM   20  O   UNK N   1      24.573  13.772   8.228  0.00  0.00    -0.532 OA
ENDBRANCH   6  18
TORSDOF 4
ENDMDL
MODEL 2
REMARK VINA RESULT:      -5.7      8.950     10.689
REMARK  4 active torsions:
REMARK  status: ('A' for Active; 'I' for Inactive)
REMARK    1  A    between atoms: C_2  and  N_7 
REMARK    2  A    between atoms: C_3  and  C_10 
REMARK    3  A    between atoms: C_5  and  N_13 
REMARK    4  A    between atoms: C_6  and  N_16 
REMARK       I    between atoms: C_10  and  N_11 
ROOT
HETATM    1  C   UNK N   1      31.379  17.682   8.429  0.00  0.00     0.075 A 
HETATM    2  C   UNK N   1      29.986  17.752   8.295  0.00  0.00     0.121 A 
HETATM    3  C   UNK N   1      29.423  17.492   6.991  0.00  0.00     0.067 A 
HETATM    4  C   UNK N   1      30.314  17.185   5.948  0.00  0.00     0.051 A 
HETATM    5  C   UNK N   1      31.701  17.120   6.106  0.00  0.00     0.064 A 
HETATM    6  C   UNK N   1      32.251  17.378   7.390  0.00  0.00     0.131 A 
ENDROOT
BRANCH   3   7
HETATM    7  C   UNK N   1      27.973  17.505   6.587  0.00  0.00     0.252 C 
HETATM    8  N   UNK N   1      27.114  16.646   7.177  0.00  0.00    -0.366 N 
HETATM    9  H   UNK N   1      27.437  16.019   7.864  0.00  0.00     0.159 HD
HETATM   10  H   UNK N   1      26.164  16.647   6.920  0.00  0.00     0.159 HD
HETATM   11  O   UNK N   1      27.537  18.263   5.746  0.00  0.00    -0.268 OA
ENDBRANCH   3   7
BRANCH   2  12
HETATM   12  N   UNK N   1      29.262  18.083   9.495  0.00  0.00    -0.115 N 
HETATM   13  O   UNK N   1      29.688  18.937  10.216  0.00  0.00    -0.532 OA
HETATM   14  O   UNK N   1      28.149  17.486   9.836  0.00  0.00    -0.532 OA
ENDBRANCH   2  12
BRANCH   5  15
HETATM   15  N   UNK N   1      32.478  16.798   4.959  0.00  0.00    -0.376 N 
HETATM   16  C   UNK N   1      33.455  16.050   4.335  0.00  0.00     0.143 A 
HETATM   17  C   UNK N   1      32.544  17.270   3.663  0.00  0.00     0.143 A 
ENDBRANCH   5  15
BRANCH   6  18
HETATM   18  N   UNK N   1      33.648  17.346   7.698  0.00  0.00    -0.113 N 
HETATM   19  O   UNK N   1      34.109  16.518   8.416  0.00  0.00    -0.532 OA
HETATM   20  O   UNK N   1      34.447  18.256   7.177  0.00  0.00    -0.532 OA
ENDBRANCH   6  18
TORSDOF 4
ENDMDL
MODEL 3
REMARK VINA RESULT:      -5.6      8.940     10.326
REMARK  4 active torsions:
REMARK  status: ('A' for Active; 'I' for Inactive)
REMARK    1  A    between atoms: C_2  and  N_7 
REMARK    2  A    between atoms: C_3  and  C_10 
REMARK    3  A    between atoms: C_5  and  N_13 
REMARK    4  A    between atoms: C_6  and  N_16 
REMARK       I    between atoms: C_10  and  N_11 
ROOT
HETATM    1  C   UNK N   1      30.554  17.107   5.878  0.00  0.00     0.075 A 
HETATM    2  C   UNK N   1      29.414  17.257   6.678  0.00  0.00     0.121 A 
HETATM    3  C   UNK N   1      29.609  17.497   8.089  0.00  0.00     0.067 A 
HETATM    4  C   UNK N   1      30.933  17.564   8.558  0.00  0.00     0.051 A 
HETATM    5  C   UNK N   1      32.055  17.413   7.740  0.00  0.00     0.064 A 
HETATM    6  C   UNK N   1      31.859  17.175   6.354  0.00  0.00     0.131 A 
ENDROOT
BRANCH   3   7
HETATM    7  C   UNK N   1      28.561  17.690   9.151  0.00  0.00     0.252 C 
HETATM    8  N   UNK N   1      27.654  18.682   9.013  0.00  0.00    -0.366 N 
HETATM    9  H   UNK N   1      27.682  19.270   8.224  0.00  0.00     0.159 HD
HETATM   10  H   UNK N   1      26.964  18.816   9.703  0.00  0.00     0.159 HD
HETATM   11  O   UNK N   1      28.493  16.986  10.136  0.00  0.00    -0.268 OA
ENDBRANCH   3   7
BRANCH   2  12
HETATM   12  N   UNK N   1      28.153  17.152   5.990  0.00  0.00    -0.115 N 
HETATM   13  O   UNK N   1      27.469  18.126   5.876  0.00  0.00    -0.532 OA
HETATM   14  O   UNK N   1      27.716  16.029   5.480  0.00  0.00    -0.532 OA
ENDBRANCH   2  12
BRANCH   5  15
HETATM   15  N   UNK N   1      33.333  17.505   8.356  0.00  0.00    -0.376 N 
HETATM   16  C   UNK N   1      34.283  17.039   9.243  0.00  0.00     0.143 A 
HETATM   17  C   UNK N   1      34.408  18.366   8.247  0.00  0.00     0.143 A 
ENDBRANCH   5  15
BRANCH   6  18
HETATM   18  N   UNK N   1      32.911  17.001   5.400  0.00  0.00    -0.113 N 
HETATM   19  O   UNK N   1      33.453  17.931   4.894  0.00  0.00    -0.532 OA
HETATM   20  O   UNK N   1      33.292  15.783   5.072  0.00  0.00    -0.532 OA
ENDBRANCH   6  18
TORSDOF 4
ENDMDL
MODEL 4
REMARK VINA RESULT:      -5.6      9.389     11.713
REMARK  4 active torsions:
REMARK  status: ('A' for Active; 'I' for Inactive)
REMARK    1  A    between atoms: C_2  and  N_7 
REMARK    2  A    between atoms: C_3  and  C_10 
REMARK    3  A    between atoms: C_5  and  N_13 
REMARK    4  A    between atoms: C_6  and  N_16 
REMARK       I    between atoms: C_10  and  N_11 
ROOT
HETATM    1  C   UNK N   1      31.629  17.933   8.636  0.00  0.00     0.075 A 
HETATM    2  C   UNK N   1      32.797  17.698   7.899  0.00  0.00     0.121 A 
HETATM    3  C   UNK N   1      32.655  17.152   6.570  0.00  0.00     0.067 A 
HETATM    4  C   UNK N   1      31.352  16.895   6.109  0.00  0.00     0.051 A 
HETATM    5  C   UNK N   1      30.201  17.139   6.863  0.00  0.00     0.064 A 
HETATM    6  C   UNK N   1      30.344  17.675   8.170  0.00  0.00     0.131 A 
ENDROOT
BRANCH   3   7
HETATM    7  C   UNK N   1      33.742  16.811   5.586  0.00  0.00     0.252 C 
HETATM    8  N   UNK N   1      33.475  16.859   4.263  0.00  0.00    -0.366 N 
HETATM    9  H   UNK N   1      32.577  17.114   3.949  0.00  0.00     0.159 HD
HETATM   10  H   UNK N   1      34.179  16.638   3.611  0.00  0.00     0.159 HD
HETATM   11  O   UNK N   1      34.860  16.493   5.933  0.00  0.00    -0.268 OA
ENDBRANCH   3   7
BRANCH   2  12
HETATM   12  N   UNK N   1      34.030  18.034   8.564  0.00  0.00    -0.115 N 
HETATM   13  O   UNK N   1      34.401  17.358   9.479  0.00  0.00    -0.532 OA
HETATM   14  O   UNK N   1      34.768  19.054   8.212  0.00  0.00    -0.532 OA
ENDBRANCH   2  12
BRANCH   5  15
HETATM   15  N   UNK N   1      28.948  16.830   6.265  0.00  0.00    -0.376 N 
HETATM   16  C   UNK N   1      27.852  16.004   6.117  0.00  0.00     0.143 A 
HETATM   17  C   UNK N   1      28.137  17.441   5.328  0.00  0.00     0.143 A 
ENDBRANCH   5  15
BRANCH   6  18
HETATM   18  N   UNK N   1      29.258  17.974   9.051  0.00  0.00    -0.113 N 
HETATM   19  O   UNK N   1      29.119  17.403  10.085  0.00  0.00    -0.532 OA
HETATM   20  O   UNK N   1      28.387  18.904   8.713  0.00  0.00    -0.532 OA
ENDBRANCH   6  18
TORSDOF 4
ENDMDL
MODEL 5
REMARK VINA RESULT:      -5.5     16.386     17.982
REMARK  4 active torsions:
REMARK  status: ('A' for Active; 'I' for Inactive)
REMARK    1  A    between atoms: C_2  and  N_7 
REMARK    2  A    between atoms: C_3  and  C_10 
REMARK    3  A    between atoms: C_5  and  N_13 
REMARK    4  A    between atoms: C_6  and  N_16 
REMARK       I    between atoms: C_10  and  N_11 
ROOT
HETATM    1  C   UNK N   1      29.033  23.543  -3.537  0.00  0.00     0.075 A 
HETATM    2  C   UNK N   1      30.101  22.637  -3.565  0.00  0.00     0.121 A 
HETATM    3  C   UNK N   1      30.319  21.892  -4.784  0.00  0.00     0.067 A 
HETATM    4  C   UNK N   1      29.441  22.131  -5.856  0.00  0.00     0.051 A 
HETATM    5  C   UNK N   1      28.382  23.041  -5.804  0.00  0.00     0.064 A 
HETATM    6  C   UNK N   1      28.171  23.771  -4.604  0.00  0.00     0.131 A 
ENDROOT
BRANCH   3   7
HETATM    7  C   UNK N   1      31.385  20.870  -5.068  0.00  0.00     0.252 C 
HETATM    8  N   UNK N   1      31.512  19.801  -4.251  0.00  0.00    -0.366 N 
HETATM    9  H   UNK N   1      30.910  19.697  -3.479  0.00  0.00     0.159 HD
HETATM   10  H   UNK N   1      32.206  19.126  -4.429  0.00  0.00     0.159 HD
HETATM   11  O   UNK N   1      32.145  20.963  -6.009  0.00  0.00    -0.268 OA
ENDBRANCH   3   7
BRANCH   2  12
HETATM   12  N   UNK N   1      30.875  22.549  -2.354  0.00  0.00    -0.115 N 
HETATM   13  O   UNK N   1      30.446  23.042  -1.352  0.00  0.00    -0.532 OA
HETATM   14  O   UNK N   1      32.037  21.951  -2.298  0.00  0.00    -0.532 OA
ENDBRANCH   2  12
BRANCH   5  15
HETATM   15  N   UNK N   1      27.577  23.178  -6.968  0.00  0.00    -0.376 N 
HETATM   16  C   UNK N   1      27.063  23.939  -7.998  0.00  0.00     0.143 A 
HETATM   17  C   UNK N   1      26.777  22.326  -7.705  0.00  0.00     0.143 A 
ENDBRANCH   5  15
BRANCH   6  18
HETATM   18  N   UNK N   1      27.130  24.732  -4.408  0.00  0.00    -0.113 N 
HETATM   19  O   UNK N   1      27.212  25.836  -4.843  0.00  0.00    -0.532 OA
HETATM   20  O   UNK N   1      26.053  24.391  -3.730  0.00  0.00    -0.532 OA
ENDBRANCH   6  18
TORSDOF 4
ENDMDL
MODEL 6
REMARK VINA RESULT:      -5.3      2.069      5.845
REMARK  4 active torsions:
REMARK  status: ('A' for Active; 'I' for Inactive)
REMARK    1  A    between atoms: C_2  and  N_7 
REMARK    2  A    between atoms: C_3  and  C_10 
REMARK    3  A    between atoms: C_5  and  N_13 
REMARK    4  A    between atoms: C_6  and  N_16 
REMARK       I    between atoms: C_10  and  N_11 
ROOT
HETATM    1  C   UNK N   1      20.516  14.834   9.406  0.00  0.00     0.075 A 
HETATM    2  C   UNK N   1      21.384  13.737   9.471  0.00  0.00     0.121 A 
HETATM    3  C   UNK N   1      22.404  13.626   8.455  0.00  0.00     0.067 A 
HETATM    4  C   UNK N   1      22.453  14.631   7.472  0.00  0.00     0.051 A 
HETATM    5  C   UNK N   1      21.575  15.717   7.429  0.00  0.00     0.064 A 
HETATM    6  C   UNK N   1      20.573  15.822   8.429  0.00  0.00     0.131 A 
ENDROOT
BRANCH   3   7
HETATM    7  C   UNK N   1      23.449  12.554   8.302  0.00  0.00     0.252 C 
HETATM    8  N   UNK N   1      24.458  12.481   9.197  0.00  0.00    -0.366 N 
HETATM    9  H   UNK N   1      24.506  13.124   9.940  0.00  0.00     0.159 HD
HETATM   10  H   UNK N   1      25.146  11.783   9.105  0.00  0.00     0.159 HD
HETATM   11  O   UNK N   1      23.424  11.743   7.400  0.00  0.00    -0.268 OA
ENDBRANCH   3   7
BRANCH   2  12
HETATM   12  N   UNK N   1      21.156  12.826  10.564  0.00  0.00    -0.115 N 
HETATM   13  O   UNK N   1      20.033  12.565  10.879  0.00  0.00    -0.532 OA
HETATM   14  O   UNK N   1      22.131  12.269  11.234  0.00  0.00    -0.532 OA
ENDBRANCH   2  12
BRANCH   5  15
HETATM   15  N   UNK N   1      21.745  16.656   6.374  0.00  0.00    -0.376 N 
HETATM   16  C   UNK N   1      21.984  17.940   5.927  0.00  0.00     0.143 A 
HETATM   17  C   UNK N   1      21.723  16.586   4.994  0.00  0.00     0.143 A 
ENDBRANCH   5  15
BRANCH   6  18
HETATM   18  N   UNK N   1      19.610  16.876   8.510  0.00  0.00    -0.113 N 
HETATM   19  O   UNK N   1      19.906  17.963   8.892  0.00  0.00    -0.532 OA
HETATM   20  O   UNK N   1      18.362  16.643   8.153  0.00  0.00    -0.532 OA
ENDBRANCH   6  18
TORSDOF 4
ENDMDL
MODEL 7
REMARK VINA RESULT:      -5.2     15.382     17.170
REMARK  4 active torsions:
REMARK  status: ('A' for Active; 'I' for Inactive)
REMARK    1  A    between atoms: C_2  and  N_7 
REMARK    2  A    between atoms: C_3  and  C_10 
REMARK    3  A    between atoms: C_5  and  N_13 
REMARK    4  A    between atoms: C_6  and  N_16 
REMARK       I    between atoms: C_10  and  N_11 
ROOT
HETATM    1  C   UNK N   1      35.373  13.435  16.358  0.00  0.00     0.075 A 
HETATM    2  C   UNK N   1      35.279  12.813  17.609  0.00  0.00     0.121 A 
HETATM    3  C   UNK N   1      35.309  11.369  17.645  0.00  0.00     0.067 A 
HETATM    4  C   UNK N   1      35.431  10.691  16.419  0.00  0.00     0.051 A 
HETATM    5  C   UNK N   1      35.524  11.335  15.183  0.00  0.00     0.064 A 
HETATM    6  C   UNK N   1      35.493  12.755  15.151  0.00  0.00     0.131 A 
ENDROOT
BRANCH   3   7
HETATM    7  C   UNK N   1      35.224  10.469  18.848  0.00  0.00     0.252 C 
HETATM    8  N   UNK N   1      36.231  10.472  19.749  0.00  0.00    -0.366 N 
HETATM    9  H   UNK N   1      37.010  11.058  19.615  0.00  0.00     0.159 HD
HETATM   10  H   UNK N   1      36.185   9.887  20.539  0.00  0.00     0.159 HD
HETATM   11  O   UNK N   1      34.281   9.733  19.047  0.00  0.00    -0.268 OA
ENDBRANCH   3   7
BRANCH   2  12
HETATM   12  N   UNK N   1      35.160  13.699  18.738  0.00  0.00    -0.115 N 
HETATM   13  O   UNK N   1      35.315  14.873  18.575  0.00  0.00    -0.532 OA
HETATM   14  O   UNK N   1      34.891  13.274  19.946  0.00  0.00    -0.532 OA
ENDBRANCH   2  12
BRANCH   5  15
HETATM   15  N   UNK N   1      35.643  10.518  14.025  0.00  0.00    -0.376 N 
HETATM   16  C   UNK N   1      36.405   9.931  13.035  0.00  0.00     0.143 A 
HETATM   17  C   UNK N   1      34.759   9.802  13.242  0.00  0.00     0.143 A 
ENDBRANCH   5  15
BRANCH   6  18
HETATM   18  N   UNK N   1      35.579  13.545  13.962  0.00  0.00    -0.113 N 
HETATM   19  O   UNK N   1      36.506  14.260  13.755  0.00  0.00    -0.532 OA
HETATM   20  O   UNK N   1      34.609  13.483  13.072  0.00  0.00    -0.532 OA
ENDBRANCH   6  18
TORSDOF 4
ENDMDL
MODEL 8
REMARK VINA RESULT:      -5.2     15.021     16.614
REMARK  4 active torsions:
REMARK  status: ('A' for Active; 'I' for Inactive)
REMARK    1  A    between atoms: C_2  and  N_7 
REMARK    2  A    between atoms: C_3  and  C_10 
REMARK    3  A    between atoms: C_5  and  N_13 
REMARK    4  A    between atoms: C_6  and  N_16 
REMARK       I    between atoms: C_10  and  N_11 
ROOT
HETATM    1  C   UNK N   1      35.676  14.215  13.262  0.00  0.00     0.075 A 
HETATM    2  C   UNK N   1      36.212  14.335  11.973  0.00  0.00     0.121 A 
HETATM    3  C   UNK N   1      37.151  13.326  11.539  0.00  0.00     0.067 A 
HETATM    4  C   UNK N   1      37.458  12.293  12.442  0.00  0.00     0.051 A 
HETATM    5  C   UNK N   1      36.909  12.194  13.723  0.00  0.00     0.064 A 
HETATM    6  C   UNK N   1      35.987  13.188  14.147  0.00  0.00     0.131 A 
ENDROOT
BRANCH   3   7
HETATM    7  C   UNK N   1      37.862  13.229  10.216  0.00  0.00     0.252 C 
HETATM    8  N   UNK N   1      38.657  14.245   9.816  0.00  0.00    -0.366 N 
HETATM    9  H   UNK N   1      38.766  15.040  10.386  0.00  0.00     0.159 HD
HETATM   10  H   UNK N   1      39.126  14.190   8.952  0.00  0.00     0.159 HD
HETATM   11  O   UNK N   1      37.752  12.266   9.486  0.00  0.00    -0.268 OA
ENDBRANCH   3   7
BRANCH   2  12
HETATM   12  N   UNK N   1      35.760  15.472  11.214  0.00  0.00    -0.115 N 
HETATM   13  O   UNK N   1      34.591  15.599  10.996  0.00  0.00    -0.532 OA
HETATM   14  O   UNK N   1      36.577  16.381  10.747  0.00  0.00    -0.532 OA
ENDBRANCH   2  12
BRANCH   5  15
HETATM   15  N   UNK N   1      37.313  11.093  14.527  0.00  0.00    -0.376 N 
HETATM   16  C   UNK N   1      37.095  10.213  15.568  0.00  0.00     0.143 A 
HETATM   17  C   UNK N   1      38.413  10.257  14.552  0.00  0.00     0.143 A 
ENDBRANCH   5  15
BRANCH   6  18
HETATM   18  N   UNK N   1      35.349  13.214  15.426  0.00  0.00    -0.113 N 
HETATM   19  O   UNK N   1      35.917  13.597  16.398  0.00  0.00    -0.532 OA
HETATM   20  O   UNK N   1      34.101  12.803  15.536  0.00  0.00    -0.532 OA
ENDBRANCH   6  18
TORSDOF 4
ENDMDL
MODEL 9
REMARK VINA RESULT:      -5.2     16.995     19.260
REMARK  4 active torsions:
REMARK  status: ('A' for Active; 'I' for Inactive)
REMARK    1  A    between atoms: C_2  and  N_7 
REMARK    2  A    between atoms: C_3  and  C_10 
REMARK    3  A    between atoms: C_5  and  N_13 
REMARK    4  A    between atoms: C_6  and  N_16 
REMARK       I    between atoms: C_10  and  N_11 
ROOT
HETATM    1  C   UNK N   1      25.950  24.292  -5.905  0.00  0.00     0.075 A 
HETATM    2  C   UNK N   1      26.142  25.422  -5.099  0.00  0.00     0.121 A 
HETATM    3  C   UNK N   1      26.177  26.712  -5.747  0.00  0.00     0.067 A 
HETATM    4  C   UNK N   1      26.013  26.742  -7.143  0.00  0.00     0.051 A 
HETATM    5  C   UNK N   1      25.822  25.600  -7.926  0.00  0.00     0.064 A 
HETATM    6  C   UNK N   1      25.790  24.333  -7.285  0.00  0.00     0.131 A 
ENDROOT
BRANCH   3   7
HETATM    7  C   UNK N   1      26.368  28.063  -5.114  0.00  0.00     0.252 C 
HETATM    8  N   UNK N   1      25.475  28.499  -4.199  0.00  0.00    -0.366 N 
HETATM    9  H   UNK N   1      24.707  27.934  -3.953  0.00  0.00     0.159 HD
HETATM   10  H   UNK N   1      25.592  29.382  -3.779  0.00  0.00     0.159 HD
HETATM   11  O   UNK N   1      27.301  28.787  -5.391  0.00  0.00    -0.268 OA
ENDBRANCH   3   7
BRANCH   2  12
HETATM   12  N   UNK N   1      26.288  25.163  -3.689  0.00  0.00    -0.115 N 
HETATM   13  O   UNK N   1      26.359  26.086  -2.932  0.00  0.00    -0.532 OA
HETATM   14  O   UNK N   1      26.348  23.954  -3.195  0.00  0.00    -0.532 OA
ENDBRANCH   2  12
BRANCH   5  15
HETATM   15  N   UNK N   1      25.671  25.785  -9.329  0.00  0.00    -0.376 N 
HETATM   16  C   UNK N   1      24.912  25.723 -10.479  0.00  0.00     0.143 A 
HETATM   17  C   UNK N   1      26.491  26.231 -10.346  0.00  0.00     0.143 A 
ENDBRANCH   5  15
BRANCH   6  18
HETATM   18  N   UNK N   1      25.602  23.085  -7.958  0.00  0.00    -0.113 N 
HETATM   19  O   UNK N   1      24.523  22.714  -8.292  0.00  0.00    -0.532 OA
HETATM   20  O   UNK N   1      26.647  22.324  -8.216  0.00  0.00    -0.532 OA
ENDBRANCH   6  18
TORSDOF 4
ENDMDL
