MODEL 1
REMARK VINA RESULT:      -4.7      0.000      0.000
REMARK  10 active torsions:
REMARK  status: ('A' for Active; 'I' for Inactive)
REMARK    1  A    between atoms: C_2  and  C_1 
REMARK    2  A    between atoms: C_2  and  O_8 
REMARK    3  A    between atoms: C_3  and  C_2 
REMARK    4  A    between atoms: C_3  and  O_9 
REMARK    5  A    between atoms: C_4  and  C_3 
REMARK    6  A    between atoms: C_4  and  O_10 
REMARK    7  A    between atoms: C_5  and  C_4 
REMARK    8  A    between atoms: C_5  and  O_11 
REMARK    9  A    between atoms: C_6  and  C_5 
REMARK   10  A    between atoms: O_12  and  C_6 
ROOT
HETATM    1  C   UNK N   1      34.710  16.764  10.100  0.00  0.00     0.180 C 
ENDROOT
BRANCH   1   2
HETATM    2  C   UNK N   1      34.686  15.301  10.592  0.00  0.00     0.184 C 
BRANCH   2   3
HETATM    3  C   UNK N   1      35.765  15.028  11.661  0.00  0.00     0.210 C 
BRANCH   3   4
HETATM    4  C   UNK N   1      35.536  13.731  12.376  0.00  0.00     0.265 C 
HETATM    5  O   UNK N   1      34.786  13.669  13.336  0.00  0.00    -0.304 OA
ENDBRANCH   3   4
BRANCH   3   6
HETATM    6  O   UNK N   1      37.032  14.974  11.078  0.00  0.00    -0.386 OA
HETATM    7  H   UNK N   1      37.223  14.408  10.315  0.00  0.00     0.210 HD
ENDBRANCH   3   6
ENDBRANCH   2   3
BRANCH   2   8
HETATM    8  O   UNK N   1      33.429  15.007  11.129  0.00  0.00    -0.390 OA
HETATM    9  H   UNK N   1      32.762  14.512  10.627  0.00  0.00     0.210 HD
ENDBRANCH   2   8
ENDBRANCH   1   2
BRANCH   1  10
HETATM   10  O   UNK N   1      35.905  17.369  10.497  0.00  0.00    -0.390 OA
HETATM   11  H   UNK N   1      36.692  16.844  10.710  0.00  0.00     0.210 HD
ENDBRANCH   1  10
BRANCH   1  12
HETATM   12  C   UNK N   1      34.577  16.889   8.570  0.00  0.00     0.173 C 
BRANCH  12  13
HETATM   13  O   UNK N   1      33.547  16.073   8.097  0.00  0.00    -0.391 OA
HETATM   14  H   UNK N   1      32.801  15.819   8.662  0.00  0.00     0.210 HD
ENDBRANCH  12  13
BRANCH  12  15
HETATM   15  C   UNK N   1      34.264  18.322   8.147  0.00  0.00     0.198 C 
BRANCH  15  16
HETATM   16  O   UNK N   1      35.299  19.189   8.503  0.00  0.00    -0.398 OA
HETATM   17  H   UNK N   1      36.061  18.914   9.037  0.00  0.00     0.209 HD
ENDBRANCH  15  16
ENDBRANCH  12  15
ENDBRANCH   1  12
TORSDOF 10
ENDMDL
MODEL 2
REMARK VINA RESULT:      -4.6     16.469     17.531
REMARK  10 active torsions:
REMARK  status: ('A' for Active; 'I' for Inactive)
REMARK    1  A    between atoms: C_2  and  C_1 
REMARK    2  A    between atoms: C_2  and  O_8 
REMARK    3  A    between atoms: C_3  and  C_2 
REMARK    4  A    between atoms: C_3  and  O_9 
REMARK    5  A    between atoms: C_4  and  C_3 
REMARK    6  A    between atoms: C_4  and  O_10 
REMARK    7  A    between atoms: C_5  and  C_4 
REMARK    8  A    between atoms: C_5  and  O_11 
REMARK    9  A    between atoms: C_6  and  C_5 
REMARK   10  A    between atoms: O_12  and  C_6 
ROOT
HETATM    1  C   UNK N   1      20.561  17.558   2.272  0.00  0.00     0.180 C 
ENDROOT
BRANCH   1   2
HETATM    2  C   UNK N   1      19.844  18.782   2.881  0.00  0.00     0.184 C 
BRANCH   2   3
HETATM    3  C   UNK N   1      20.691  20.067   2.772  0.00  0.00     0.210 C 
BRANCH   3   4
HETATM    4  C   UNK N   1      20.540  20.732   1.438  0.00  0.00     0.265 C 
HETATM    5  O   UNK N   1      21.333  20.516   0.537  0.00  0.00    -0.304 OA
ENDBRANCH   3   4
BRANCH   3   6
HETATM    6  O   UNK N   1      20.317  20.988   3.751  0.00  0.00    -0.386 OA
HETATM    7  H   UNK N   1      19.392  21.244   3.889  0.00  0.00     0.210 HD
ENDBRANCH   3   6
ENDBRANCH   2   3
BRANCH   2   8
HETATM    8  O   UNK N   1      18.624  18.985   2.229  0.00  0.00    -0.390 OA
HETATM    9  H   UNK N   1      18.568  19.465   1.388  0.00  0.00     0.210 HD
ENDBRANCH   2   8
ENDBRANCH   1   2
BRANCH   1  10
HETATM   10  O   UNK N   1      20.630  16.537   3.224  0.00  0.00    -0.390 OA
HETATM   11  H   UNK N   1      21.054  16.675   4.085  0.00  0.00     0.210 HD
ENDBRANCH   1  10
BRANCH   1  12
HETATM   12  C   UNK N   1      19.860  17.013   1.012  0.00  0.00     0.173 C 
BRANCH  12  13
HETATM   13  O   UNK N   1      20.311  17.679  -0.129  0.00  0.00    -0.391 OA
HETATM   14  H   UNK N   1      19.693  18.096  -0.750  0.00  0.00     0.210 HD
ENDBRANCH  12  13
BRANCH  12  15
HETATM   15  C   UNK N   1      20.131  15.523   0.817  0.00  0.00     0.198 C 
BRANCH  15  16
HETATM   16  O   UNK N   1      21.501  15.271   0.711  0.00  0.00    -0.398 OA
HETATM   17  H   UNK N   1      22.179  15.931   0.923  0.00  0.00     0.209 HD
ENDBRANCH  15  16
ENDBRANCH  12  15
ENDBRANCH   1  12
TORSDOF 10
ENDMDL
MODEL 3
REMARK VINA RESULT:      -4.6      1.654      5.190
REMARK  10 active torsions:
REMARK  status: ('A' for Active; 'I' for Inactive)
REMARK    1  A    between atoms: C_2  and  C_1 
REMARK    2  A    between atoms: C_2  and  O_8 
REMARK    3  A    between atoms: C_3  and  C_2 
REMARK    4  A    between atoms: C_3  and  O_9 
REMARK    5  A    between atoms: C_4  and  C_3 
REMARK    6  A    between atoms: C_4  and  O_10 
REMARK    7  A    between atoms: C_5  and  C_4 
REMARK    8  A    between atoms: C_5  and  O_11 
REMARK    9  A    between atoms: C_6  and  C_5 
REMARK   10  A    between atoms: O_12  and  C_6 
ROOT
HETATM    1  C   UNK N   1      35.866  13.747  12.503  0.00  0.00     0.180 C 
ENDROOT
BRANCH   1   2
HETATM    2  C   UNK N   1      35.256  14.995  11.829  0.00  0.00     0.184 C 
BRANCH   2   3
HETATM    3  C   UNK N   1      35.982  15.364  10.519  0.00  0.00     0.210 C 
BRANCH   3   4
HETATM    4  C   UNK N   1      35.125  16.192   9.612  0.00  0.00     0.265 C 
HETATM    5  O   UNK N   1      34.769  17.312   9.936  0.00  0.00    -0.304 OA
ENDBRANCH   3   4
BRANCH   3   6
HETATM    6  O   UNK N   1      37.143  16.089  10.787  0.00  0.00    -0.386 OA
HETATM    7  H   UNK N   1      37.849  16.191  10.130  0.00  0.00     0.210 HD
ENDBRANCH   3   6
ENDBRANCH   2   3
BRANCH   2   8
HETATM    8  O   UNK N   1      33.905  14.766  11.553  0.00  0.00    -0.390 OA
HETATM    9  H   UNK N   1      33.247  15.477  11.597  0.00  0.00     0.210 HD
ENDBRANCH   2   8
ENDBRANCH   1   2
BRANCH   1  10
HETATM   10  O   UNK N   1      37.251  13.751  12.322  0.00  0.00    -0.390 OA
HETATM   11  H   UNK N   1      37.856  13.474  13.029  0.00  0.00     0.210 HD
ENDBRANCH   1  10
BRANCH   1  12
HETATM   12  C   UNK N   1      35.564  13.666  14.012  0.00  0.00     0.173 C 
BRANCH  12  13
HETATM   13  O   UNK N   1      34.450  12.858  14.249  0.00  0.00    -0.391 OA
HETATM   14  H   UNK N   1      33.592  13.237  14.496  0.00  0.00     0.210 HD
ENDBRANCH  12  13
BRANCH  12  15
HETATM   15  C   UNK N   1      36.738  13.078  14.790  0.00  0.00     0.198 C 
BRANCH  15  16
HETATM   16  O   UNK N   1      37.577  14.084  15.274  0.00  0.00    -0.398 OA
HETATM   17  H   UNK N   1      38.514  13.940  15.478  0.00  0.00     0.209 HD
ENDBRANCH  15  16
ENDBRANCH  12  15
ENDBRANCH   1  12
TORSDOF 10
ENDMDL
MODEL 4
REMARK VINA RESULT:      -4.5      0.727      4.967
REMARK  10 active torsions:
REMARK  status: ('A' for Active; 'I' for Inactive)
REMARK    1  A    between atoms: C_2  and  C_1 
REMARK    2  A    between atoms: C_2  and  O_8 
REMARK    3  A    between atoms: C_3  and  C_2 
REMARK    4  A    between atoms: C_3  and  O_9 
REMARK    5  A    between atoms: C_4  and  C_3 
REMARK    6  A    between atoms: C_4  and  O_10 
REMARK    7  A    between atoms: C_5  and  C_4 
REMARK    8  A    between atoms: C_5  and  O_11 
REMARK    9  A    between atoms: C_6  and  C_5 
REMARK   10  A    between atoms: O_12  and  C_6 
ROOT
HETATM    1  C   UNK N   1      34.644  15.660  11.058  0.00  0.00     0.180 C 
ENDROOT
BRANCH   1   2
HETATM    2  C   UNK N   1      34.944  16.471   9.778  0.00  0.00     0.184 C 
BRANCH   2   3
HETATM    3  C   UNK N   1      33.662  16.795   8.981  0.00  0.00     0.210 C 
BRANCH   3   4
HETATM    4  C   UNK N   1      33.797  18.056   8.184  0.00  0.00     0.265 C 
HETATM    5  O   UNK N   1      34.647  18.161   7.317  0.00  0.00    -0.304 OA
ENDBRANCH   3   4
BRANCH   3   6
HETATM    6  O   UNK N   1      33.360  15.761   8.094  0.00  0.00    -0.386 OA
HETATM    7  H   UNK N   1      33.724  14.869   8.201  0.00  0.00     0.210 HD
ENDBRANCH   3   6
ENDBRANCH   2   3
BRANCH   2   8
HETATM    8  O   UNK N   1      35.582  17.666  10.118  0.00  0.00    -0.390 OA
HETATM    9  H   UNK N   1      35.518  18.044  11.010  0.00  0.00     0.210 HD
ENDBRANCH   2   8
ENDBRANCH   1   2
BRANCH   1  10
HETATM   10  O   UNK N   1      33.389  15.058  10.945  0.00  0.00    -0.390 OA
HETATM   11  H   UNK N   1      32.950  14.652  11.709  0.00  0.00     0.210 HD
ENDBRANCH   1  10
BRANCH   1  12
HETATM   12  C   UNK N   1      35.694  14.567  11.339  0.00  0.00     0.173 C 
BRANCH  12  13
HETATM   13  O   UNK N   1      36.986  15.067  11.163  0.00  0.00    -0.391 OA
HETATM   14  H   UNK N   1      37.366  15.188  10.279  0.00  0.00     0.210 HD
ENDBRANCH  12  13
BRANCH  12  15
HETATM   15  C   UNK N   1      35.591  14.042  12.768  0.00  0.00     0.198 C 
BRANCH  15  16
HETATM   16  O   UNK N   1      34.463  13.234  12.928  0.00  0.00    -0.398 OA
HETATM   17  H   UNK N   1      34.261  12.762  13.752  0.00  0.00     0.209 HD
ENDBRANCH  15  16
ENDBRANCH  12  15
ENDBRANCH   1  12
TORSDOF 10
ENDMDL
MODEL 5
REMARK VINA RESULT:      -4.5      1.634      3.147
REMARK  10 active torsions:
REMARK  status: ('A' for Active; 'I' for Inactive)
REMARK    1  A    between atoms: C_2  and  C_1 
REMARK    2  A    between atoms: C_2  and  O_8 
REMARK    3  A    between atoms: C_3  and  C_2 
REMARK    4  A    between atoms: C_3  and  O_9 
REMARK    5  A    between atoms: C_4  and  C_3 
REMARK    6  A    between atoms: C_4  and  O_10 
REMARK    7  A    between atoms: C_5  and  C_4 
REMARK    8  A    between atoms: C_5  and  O_11 
REMARK    9  A    between atoms: C_6  and  C_5 
REMARK   10  A    between atoms: O_12  and  C_6 
ROOT
HETATM    1  C   UNK N   1      35.141  14.654  11.574  0.00  0.00     0.180 C 
ENDROOT
BRANCH   1   2
HETATM    2  C   UNK N   1      35.512  14.156  12.988  0.00  0.00     0.184 C 
BRANCH   2   3
HETATM    3  C   UNK N   1      35.342  12.629  13.131  0.00  0.00     0.210 C 
BRANCH   3   4
HETATM    4  C   UNK N   1      34.923  12.234  14.514  0.00  0.00     0.265 C 
HETATM    5  O   UNK N   1      34.235  12.975  15.195  0.00  0.00    -0.304 OA
ENDBRANCH   3   4
BRANCH   3   6
HETATM    6  O   UNK N   1      34.375  12.156  12.242  0.00  0.00    -0.386 OA
HETATM    7  H   UNK N   1      34.336  11.226  11.973  0.00  0.00     0.210 HD
ENDBRANCH   3   6
ENDBRANCH   2   3
BRANCH   2   8
HETATM    8  O   UNK N   1      36.838  14.495  13.271  0.00  0.00    -0.390 OA
HETATM    9  H   UNK N   1      37.164  14.566  14.183  0.00  0.00     0.210 HD
ENDBRANCH   2   8
ENDBRANCH   1   2
BRANCH   1  10
HETATM   10  O   UNK N   1      33.752  14.757  11.466  0.00  0.00    -0.390 OA
HETATM   11  H   UNK N   1      33.217  15.161  12.168  0.00  0.00     0.210 HD
ENDBRANCH   1  10
BRANCH   1  12
HETATM   12  C   UNK N   1      35.766  16.020  11.231  0.00  0.00     0.173 C 
BRANCH  12  13
HETATM   13  O   UNK N   1      37.091  15.866  10.819  0.00  0.00    -0.391 OA
HETATM   14  H   UNK N   1      37.478  14.988  10.672  0.00  0.00     0.210 HD
ENDBRANCH  12  13
BRANCH  12  15
HETATM   15  C   UNK N   1      35.009  16.719  10.105  0.00  0.00     0.198 C 
BRANCH  15  16
HETATM   16  O   UNK N   1      35.549  17.980   9.842  0.00  0.00    -0.398 OA
HETATM   17  H   UNK N   1      35.082  18.661   9.333  0.00  0.00     0.209 HD
ENDBRANCH  15  16
ENDBRANCH  12  15
ENDBRANCH   1  12
TORSDOF 10
ENDMDL
MODEL 6
REMARK VINA RESULT:      -4.4      1.668      2.865
REMARK  10 active torsions:
REMARK  status: ('A' for Active; 'I' for Inactive)
REMARK    1  A    between atoms: C_2  and  C_1 
REMARK    2  A    between atoms: C_2  and  O_8 
REMARK    3  A    between atoms: C_3  and  C_2 
REMARK    4  A    between atoms: C_3  and  O_9 
REMARK    5  A    between atoms: C_4  and  C_3 
REMARK    6  A    between atoms: C_4  and  O_10 
REMARK    7  A    between atoms: C_5  and  C_4 
REMARK    8  A    between atoms: C_5  and  O_11 
REMARK    9  A    between atoms: C_6  and  C_5 
REMARK   10  A    between atoms: O_12  and  C_6 
ROOT
HETATM    1  C   UNK N   1      35.460  15.041  11.962  0.00  0.00     0.180 C 
ENDROOT
BRANCH   1   2
HETATM    2  C   UNK N   1      35.662  13.726  12.747  0.00  0.00     0.184 C 
BRANCH   2   3
HETATM    3  C   UNK N   1      36.109  13.979  14.202  0.00  0.00     0.210 C 
BRANCH   3   4
HETATM    4  C   UNK N   1      36.817  12.796  14.789  0.00  0.00     0.265 C 
HETATM    5  O   UNK N   1      37.073  11.818  14.109  0.00  0.00    -0.304 OA
ENDBRANCH   3   4
BRANCH   3   6
HETATM    6  O   UNK N   1      36.977  15.070  14.268  0.00  0.00    -0.386 OA
HETATM    7  H   UNK N   1      37.872  15.038  13.897  0.00  0.00     0.210 HD
ENDBRANCH   3   6
ENDBRANCH   2   3
BRANCH   2   8
HETATM    8  O   UNK N   1      34.470  12.997  12.757  0.00  0.00    -0.390 OA
HETATM    9  H   UNK N   1      34.303  12.281  12.125  0.00  0.00     0.210 HD
ENDBRANCH   2   8
ENDBRANCH   1   2
BRANCH   1  10
HETATM   10  O   UNK N   1      36.695  15.500  11.499  0.00  0.00    -0.390 OA
HETATM   11  H   UNK N   1      36.808  16.407  11.173  0.00  0.00     0.210 HD
ENDBRANCH   1  10
BRANCH   1  12
HETATM   12  C   UNK N   1      34.507  14.886  10.762  0.00  0.00     0.173 C 
BRANCH  12  13
HETATM   13  O   UNK N   1      33.176  14.992  11.172  0.00  0.00    -0.391 OA
HETATM   14  H   UNK N   1      32.882  14.652  12.032  0.00  0.00     0.210 HD
ENDBRANCH  12  13
BRANCH  12  15
HETATM   15  C   UNK N   1      34.753  15.961   9.706  0.00  0.00     0.198 C 
BRANCH  15  16
HETATM   16  O   UNK N   1      34.695  17.239  10.265  0.00  0.00    -0.398 OA
HETATM   17  H   UNK N   1      35.477  17.802  10.382  0.00  0.00     0.209 HD
ENDBRANCH  15  16
ENDBRANCH  12  15
ENDBRANCH   1  12
TORSDOF 10
ENDMDL
MODEL 7
REMARK VINA RESULT:      -4.4      1.095      1.689
REMARK  10 active torsions:
REMARK  status: ('A' for Active; 'I' for Inactive)
REMARK    1  A    between atoms: C_2  and  C_1 
REMARK    2  A    between atoms: C_2  and  O_8 
REMARK    3  A    between atoms: C_3  and  C_2 
REMARK    4  A    between atoms: C_3  and  O_9 
REMARK    5  A    between atoms: C_4  and  C_3 
REMARK    6  A    between atoms: C_4  and  O_10 
REMARK    7  A    between atoms: C_5  and  C_4 
REMARK    8  A    between atoms: C_5  and  O_11 
REMARK    9  A    between atoms: C_6  and  C_5 
REMARK   10  A    between atoms: O_12  and  C_6 
ROOT
HETATM    1  C   UNK N   1      34.833  15.798   9.163  0.00  0.00     0.180 C 
ENDROOT
BRANCH   1   2
HETATM    2  C   UNK N   1      34.710  15.071  10.521  0.00  0.00     0.184 C 
BRANCH   2   3
HETATM    3  C   UNK N   1      35.670  15.651  11.580  0.00  0.00     0.210 C 
BRANCH   3   4
HETATM    4  C   UNK N   1      35.963  14.670  12.674  0.00  0.00     0.265 C 
HETATM    5  O   UNK N   1      35.097  13.918  13.090  0.00  0.00    -0.304 OA
ENDBRANCH   3   4
BRANCH   3   6
HETATM    6  O   UNK N   1      36.885  16.013  10.997  0.00  0.00    -0.386 OA
HETATM    7  H   UNK N   1      37.054  16.912  10.676  0.00  0.00     0.210 HD
ENDBRANCH   3   6
ENDBRANCH   2   3
BRANCH   2   8
HETATM    8  O   UNK N   1      33.398  15.174  10.991  0.00  0.00    -0.390 OA
HETATM    9  H   UNK N   1      32.800  14.410  11.010  0.00  0.00     0.210 HD
ENDBRANCH   2   8
ENDBRANCH   1   2
BRANCH   1  10
HETATM   10  O   UNK N   1      34.143  15.077   8.186  0.00  0.00    -0.390 OA
HETATM   11  H   UNK N   1      34.593  14.427   7.624  0.00  0.00     0.210 HD
ENDBRANCH   1  10
BRANCH   1  12
HETATM   12  C   UNK N   1      34.284  17.237   9.197  0.00  0.00     0.173 C 
BRANCH  12  13
HETATM   13  O   UNK N   1      35.317  18.154   9.404  0.00  0.00    -0.391 OA
HETATM   14  H   UNK N   1      36.248  17.892   9.333  0.00  0.00     0.210 HD
ENDBRANCH  12  13
BRANCH  12  15
HETATM   15  C   UNK N   1      33.591  17.607   7.888  0.00  0.00     0.198 C 
BRANCH  15  16
HETATM   16  O   UNK N   1      34.523  17.880   6.885  0.00  0.00    -0.398 OA
HETATM   17  H   UNK N   1      34.683  18.773   6.539  0.00  0.00     0.209 HD
ENDBRANCH  15  16
ENDBRANCH  12  15
ENDBRANCH   1  12
TORSDOF 10
ENDMDL
MODEL 8
REMARK VINA RESULT:      -4.3     15.088     16.630
REMARK  10 active torsions:
REMARK  status: ('A' for Active; 'I' for Inactive)
REMARK    1  A    between atoms: C_2  and  C_1 
REMARK    2  A    between atoms: C_2  and  O_8 
REMARK    3  A    between atoms: C_3  and  C_2 
REMARK    4  A    between atoms: C_3  and  O_9 
REMARK    5  A    between atoms: C_4  and  C_3 
REMARK    6  A    between atoms: C_4  and  O_10 
REMARK    7  A    between atoms: C_5  and  C_4 
REMARK    8  A    between atoms: C_5  and  O_11 
REMARK    9  A    between atoms: C_6  and  C_5 
REMARK   10  A    between atoms: O_12  and  C_6 
ROOT
HETATM    1  C   UNK N   1      19.829  18.645   2.405  0.00  0.00     0.180 C 
ENDROOT
BRANCH   1   2
HETATM    2  C   UNK N   1      20.432  17.896   3.614  0.00  0.00     0.184 C 
BRANCH   2   3
HETATM    3  C   UNK N   1      19.874  16.464   3.748  0.00  0.00     0.210 C 
BRANCH   3   4
HETATM    4  C   UNK N   1      20.834  15.547   4.442  0.00  0.00     0.265 C 
HETATM    5  O   UNK N   1      21.326  15.851   5.516  0.00  0.00    -0.304 OA
ENDBRANCH   3   4
BRANCH   3   6
HETATM    6  O   UNK N   1      18.684  16.466   4.477  0.00  0.00    -0.386 OA
HETATM    7  H   UNK N   1      17.819  16.369   4.050  0.00  0.00     0.210 HD
ENDBRANCH   3   6
ENDBRANCH   2   3
BRANCH   2   8
HETATM    8  O   UNK N   1      21.822  17.833   3.480  0.00  0.00    -0.390 OA
HETATM    9  H   UNK N   1      22.397  18.557   3.772  0.00  0.00     0.210 HD
ENDBRANCH   2   8
ENDBRANCH   1   2
BRANCH   1  10
HETATM   10  O   UNK N   1      18.438  18.517   2.424  0.00  0.00    -0.390 OA
HETATM   11  H   UNK N   1      17.937  18.552   3.254  0.00  0.00     0.210 HD
ENDBRANCH   1  10
BRANCH   1  12
HETATM   12  C   UNK N   1      20.187  20.144   2.385  0.00  0.00     0.173 C 
BRANCH  12  13
HETATM   13  O   UNK N   1      20.775  20.527   3.592  0.00  0.00    -0.391 OA
HETATM   14  H   UNK N   1      20.805  21.456   3.869  0.00  0.00     0.210 HD
ENDBRANCH  12  13
BRANCH  12  15
HETATM   15  C   UNK N   1      21.172  20.472   1.265  0.00  0.00     0.198 C 
BRANCH  15  16
HETATM   16  O   UNK N   1      20.537  20.482   0.022  0.00  0.00    -0.398 OA
HETATM   17  H   UNK N   1      19.705  20.953  -0.144  0.00  0.00     0.209 HD
ENDBRANCH  15  16
ENDBRANCH  12  15
ENDBRANCH   1  12
TORSDOF 10
ENDMDL
MODEL 9
REMARK VINA RESULT:      -4.2     15.439     16.528
REMARK  10 active torsions:
REMARK  status: ('A' for Active; 'I' for Inactive)
REMARK    1  A    between atoms: C_2  and  C_1 
REMARK    2  A    between atoms: C_2  and  O_8 
REMARK    3  A    between atoms: C_3  and  C_2 
REMARK    4  A    between atoms: C_3  and  O_9 
REMARK    5  A    between atoms: C_4  and  C_3 
REMARK    6  A    between atoms: C_4  and  O_10 
REMARK    7  A    between atoms: C_5  and  C_4 
REMARK    8  A    between atoms: C_5  and  O_11 
REMARK    9  A    between atoms: C_6  and  C_5 
REMARK   10  A    between atoms: O_12  and  C_6 
ROOT
HETATM    1  C   UNK N   1      20.795  19.546   3.456  0.00  0.00     0.180 C 
ENDROOT
BRANCH   1   2
HETATM    2  C   UNK N   1      20.203  18.184   3.032  0.00  0.00     0.184 C 
BRANCH   2   3
HETATM    3  C   UNK N   1      20.540  17.064   4.039  0.00  0.00     0.210 C 
BRANCH   3   4
HETATM    4  C   UNK N   1      19.432  16.063   4.162  0.00  0.00     0.265 C 
HETATM    5  O   UNK N   1      18.576  16.178   5.023  0.00  0.00    -0.304 OA
ENDBRANCH   3   4
BRANCH   3   6
HETATM    6  O   UNK N   1      21.690  16.380   3.646  0.00  0.00    -0.386 OA
HETATM    7  H   UNK N   1      21.751  15.924   2.793  0.00  0.00     0.210 HD
ENDBRANCH   3   6
ENDBRANCH   2   3
BRANCH   2   8
HETATM    8  O   UNK N   1      18.814  18.291   2.919  0.00  0.00    -0.390 OA
HETATM    9  H   UNK N   1      18.395  18.720   2.156  0.00  0.00     0.210 HD
ENDBRANCH   2   8
ENDBRANCH   1   2
BRANCH   1  10
HETATM   10  O   UNK N   1      22.146  19.387   3.774  0.00  0.00    -0.390 OA
HETATM   11  H   UNK N   1      22.714  18.772   3.283  0.00  0.00     0.210 HD
ENDBRANCH   1  10
BRANCH   1  12
HETATM   12  C   UNK N   1      20.667  20.626   2.364  0.00  0.00     0.173 C 
BRANCH  12  13
HETATM   13  O   UNK N   1      21.525  21.696   2.626  0.00  0.00    -0.391 OA
HETATM   14  H   UNK N   1      21.202  22.610   2.649  0.00  0.00     0.210 HD
ENDBRANCH  12  13
BRANCH  12  15
HETATM   15  C   UNK N   1      21.021  20.075   0.984  0.00  0.00     0.198 C 
BRANCH  15  16
HETATM   16  O   UNK N   1      20.725  21.001  -0.018  0.00  0.00    -0.398 OA
HETATM   17  H   UNK N   1      19.850  21.073  -0.432  0.00  0.00     0.209 HD
ENDBRANCH  15  16
ENDBRANCH  12  15
ENDBRANCH   1  12
TORSDOF 10
ENDMDL
