MODEL 1
REMARK VINA RESULT:      -4.7      0.000      0.000
REMARK  11 active torsions:
REMARK  status: ('A' for Active; 'I' for Inactive)
REMARK    1  A    between atoms: O_7  and  C_1 
REMARK    2  A    between atoms: C_2  and  C_1 
REMARK    3  A    between atoms: C_2  and  O_8 
REMARK    4  A    between atoms: C_3  and  C_2 
REMARK    5  A    between atoms: C_3  and  O_9 
REMARK    6  A    between atoms: C_4  and  C_3 
REMARK    7  A    between atoms: C_4  and  O_10 
REMARK    8  A    between atoms: C_5  and  C_4 
REMARK    9  A    between atoms: C_5  and  O_11 
REMARK   10  A    between atoms: C_6  and  C_5 
REMARK   11  A    between atoms: O_12  and  C_6 
ROOT
HETATM    1  C   UNK N   1      35.853  13.645  12.593  0.00  0.00     0.180 C 
ENDROOT
BRANCH   1   2
HETATM    2  C   UNK N   1      35.565  13.642  14.108  0.00  0.00     0.173 C 
BRANCH   2   3
HETATM    3  C   UNK N   1      36.744  13.102  14.906  0.00  0.00     0.198 C 
BRANCH   3   4
HETATM    4  O   UNK N   1      37.577  14.141  15.324  0.00  0.00    -0.398 OA
HETATM    5  H   UNK N   1      37.284  14.890  15.865  0.00  0.00     0.209 HD
ENDBRANCH   3   4
ENDBRANCH   2   3
BRANCH   2   6
HETATM    6  O   UNK N   1      34.459  12.839  14.397  0.00  0.00    -0.391 OA
HETATM    7  H   UNK N   1      34.046  12.288  13.714  0.00  0.00     0.210 HD
ENDBRANCH   2   6
ENDBRANCH   1   2
BRANCH   1   8
HETATM    8  O   UNK N   1      37.239  13.669  12.397  0.00  0.00    -0.390 OA
HETATM    9  H   UNK N   1      37.624  13.838  11.522  0.00  0.00     0.210 HD
ENDBRANCH   1   8
BRANCH   1  10
HETATM   10  C   UNK N   1      35.208  14.842  11.862  0.00  0.00     0.180 C 
BRANCH  10  11
HETATM   11  O   UNK N   1      33.885  14.526  11.535  0.00  0.00    -0.390 OA
HETATM   12  H   UNK N   1      33.610  14.401  10.614  0.00  0.00     0.210 HD
ENDBRANCH  10  11
BRANCH  10  13
HETATM   13  C   UNK N   1      35.956  15.232  10.573  0.00  0.00     0.173 C 
BRANCH  13  14
HETATM   14  O   UNK N   1      37.054  16.041  10.869  0.00  0.00    -0.391 OA
HETATM   15  H   UNK N   1      37.923  15.880  10.471  0.00  0.00     0.210 HD
ENDBRANCH  13  14
BRANCH  13  16
HETATM   16  C   UNK N   1      35.057  15.998   9.608  0.00  0.00     0.198 C 
BRANCH  16  17
HETATM   17  O   UNK N   1      34.529  17.139  10.216  0.00  0.00    -0.398 OA
HETATM   18  H   UNK N   1      33.792  17.652   9.847  0.00  0.00     0.209 HD
ENDBRANCH  16  17
ENDBRANCH  13  16
ENDBRANCH  10  13
ENDBRANCH   1  10
TORSDOF 11
ENDMDL
MODEL 2
REMARK VINA RESULT:      -4.6      1.714      5.211
REMARK  11 active torsions:
REMARK  status: ('A' for Active; 'I' for Inactive)
REMARK    1  A    between atoms: O_7  and  C_1 
REMARK    2  A    between atoms: C_2  and  C_1 
REMARK    3  A    between atoms: C_2  and  O_8 
REMARK    4  A    between atoms: C_3  and  C_2 
REMARK    5  A    between atoms: C_3  and  O_9 
REMARK    6  A    between atoms: C_4  and  C_3 
REMARK    7  A    between atoms: C_4  and  O_10 
REMARK    8  A    between atoms: C_5  and  C_4 
REMARK    9  A    between atoms: C_5  and  O_11 
REMARK   10  A    between atoms: C_6  and  C_5 
REMARK   11  A    between atoms: O_12  and  C_6 
ROOT
HETATM    1  C   UNK N   1      34.718  16.732  10.102  0.00  0.00     0.180 C 
ENDROOT
BRANCH   1   2
HETATM    2  C   UNK N   1      34.581  16.887   8.574  0.00  0.00     0.173 C 
BRANCH   2   3
HETATM    3  C   UNK N   1      34.238  18.318   8.179  0.00  0.00     0.198 C 
BRANCH   3   4
HETATM    4  O   UNK N   1      35.285  19.184   8.497  0.00  0.00    -0.398 OA
HETATM    5  H   UNK N   1      36.191  18.897   8.691  0.00  0.00     0.209 HD
ENDBRANCH   3   4
ENDBRANCH   2   3
BRANCH   2   6
HETATM    6  O   UNK N   1      33.567  16.061   8.084  0.00  0.00    -0.391 OA
HETATM    7  H   UNK N   1      32.667  16.103   8.445  0.00  0.00     0.210 HD
ENDBRANCH   2   6
ENDBRANCH   1   2
BRANCH   1   8
HETATM    8  O   UNK N   1      35.931  17.301  10.507  0.00  0.00    -0.390 OA
HETATM    9  H   UNK N   1      36.146  18.227  10.314  0.00  0.00     0.210 HD
ENDBRANCH   1   8
BRANCH   1  10
HETATM   10  C   UNK N   1      34.657  15.261  10.564  0.00  0.00     0.180 C 
BRANCH  10  11
HETATM   11  O   UNK N   1      33.403  15.004  11.131  0.00  0.00    -0.390 OA
HETATM   12  H   UNK N   1      32.585  15.170  10.638  0.00  0.00     0.210 HD
ENDBRANCH  10  11
BRANCH  10  13
HETATM   13  C   UNK N   1      35.746  14.910  11.595  0.00  0.00     0.173 C 
BRANCH  13  14
HETATM   14  O   UNK N   1      37.001  14.866  10.987  0.00  0.00    -0.391 OA
HETATM   15  H   UNK N   1      37.434  15.670  10.659  0.00  0.00     0.210 HD
ENDBRANCH  13  14
BRANCH  13  16
HETATM   16  C   UNK N   1      35.493  13.553  12.244  0.00  0.00     0.198 C 
BRANCH  16  17
HETATM   17  O   UNK N   1      34.873  13.700  13.487  0.00  0.00    -0.398 OA
HETATM   18  H   UNK N   1      34.922  14.510  14.019  0.00  0.00     0.209 HD
ENDBRANCH  16  17
ENDBRANCH  13  16
ENDBRANCH  10  13
ENDBRANCH   1  10
TORSDOF 11
ENDMDL
MODEL 3
REMARK VINA RESULT:      -4.5      1.534      4.497
REMARK  11 active torsions:
REMARK  status: ('A' for Active; 'I' for Inactive)
REMARK    1  A    between atoms: O_7  and  C_1 
REMARK    2  A    between atoms: C_2  and  C_1 
REMARK    3  A    between atoms: C_2  and  O_8 
REMARK    4  A    between atoms: C_3  and  C_2 
REMARK    5  A    between atoms: C_3  and  O_9 
REMARK    6  A    between atoms: C_4  and  C_3 
REMARK    7  A    between atoms: C_4  and  O_10 
REMARK    8  A    between atoms: C_5  and  C_4 
REMARK    9  A    between atoms: C_5  and  O_11 
REMARK   10  A    between atoms: C_6  and  C_5 
REMARK   11  A    between atoms: O_12  and  C_6 
ROOT
HETATM    1  C   UNK N   1      35.282  14.557  11.527  0.00  0.00     0.180 C 
ENDROOT
BRANCH   1   2
HETATM    2  C   UNK N   1      35.767  15.991  11.234  0.00  0.00     0.173 C 
BRANCH   2   3
HETATM    3  C   UNK N   1      34.976  16.634  10.102  0.00  0.00     0.198 C 
BRANCH   3   4
HETATM    4  O   UNK N   1      35.445  17.922   9.839  0.00  0.00    -0.398 OA
HETATM    5  H   UNK N   1      36.358  18.128   9.586  0.00  0.00     0.209 HD
ENDBRANCH   3   4
ENDBRANCH   2   3
BRANCH   2   6
HETATM    6  O   UNK N   1      37.113  15.988  10.857  0.00  0.00    -0.391 OA
HETATM    7  H   UNK N   1      37.481  16.695  10.304  0.00  0.00     0.210 HD
ENDBRANCH   2   6
ENDBRANCH   1   2
BRANCH   1   8
HETATM    8  O   UNK N   1      33.883  14.550  11.556  0.00  0.00    -0.390 OA
HETATM    9  H   UNK N   1      33.370  15.365  11.435  0.00  0.00     0.210 HD
ENDBRANCH   1   8
BRANCH   1  10
HETATM   10  C   UNK N   1      35.829  14.000  12.859  0.00  0.00     0.180 C 
BRANCH  10  11
HETATM   11  O   UNK N   1      36.736  14.914  13.406  0.00  0.00    -0.390 OA
HETATM   12  H   UNK N   1      37.689  14.734  13.415  0.00  0.00     0.210 HD
ENDBRANCH  10  11
BRANCH  10  13
HETATM   13  C   UNK N   1      36.536  12.641  12.695  0.00  0.00     0.173 C 
BRANCH  13  14
HETATM   14  O   UNK N   1      37.514  12.476  13.677  0.00  0.00    -0.391 OA
HETATM   15  H   UNK N   1      37.717  13.180  14.313  0.00  0.00     0.210 HD
ENDBRANCH  13  14
BRANCH  13  16
HETATM   16  C   UNK N   1      37.215  12.517  11.335  0.00  0.00     0.198 C 
BRANCH  16  17
HETATM   17  O   UNK N   1      38.376  13.291  11.283  0.00  0.00    -0.398 OA
HETATM   18  H   UNK N   1      39.165  13.112  11.819  0.00  0.00     0.209 HD
ENDBRANCH  16  17
ENDBRANCH  13  16
ENDBRANCH  10  13
ENDBRANCH   1  10
TORSDOF 11
ENDMDL
MODEL 4
REMARK VINA RESULT:      -4.5      2.220      6.114
REMARK  11 active torsions:
REMARK  status: ('A' for Active; 'I' for Inactive)
REMARK    1  A    between atoms: O_7  and  C_1 
REMARK    2  A    between atoms: C_2  and  C_1 
REMARK    3  A    between atoms: C_2  and  O_8 
REMARK    4  A    between atoms: C_3  and  C_2 
REMARK    5  A    between atoms: C_3  and  O_9 
REMARK    6  A    between atoms: C_4  and  C_3 
REMARK    7  A    between atoms: C_4  and  O_10 
REMARK    8  A    between atoms: C_5  and  C_4 
REMARK    9  A    between atoms: C_5  and  O_11 
REMARK   10  A    between atoms: C_6  and  C_5 
REMARK   11  A    between atoms: O_12  and  C_6 
ROOT
HETATM    1  C   UNK N   1      34.607  16.666   8.798  0.00  0.00     0.180 C 
ENDROOT
BRANCH   1   2
HETATM    2  C   UNK N   1      34.018  18.008   8.319  0.00  0.00     0.173 C 
BRANCH   2   3
HETATM    3  C   UNK N   1      33.473  17.911   6.900  0.00  0.00     0.198 C 
BRANCH   3   4
HETATM    4  O   UNK N   1      34.445  17.419   6.028  0.00  0.00    -0.398 OA
HETATM    5  H   UNK N   1      34.678  17.832   5.182  0.00  0.00     0.209 HD
ENDBRANCH   3   4
ENDBRANCH   2   3
BRANCH   2   6
HETATM    6  O   UNK N   1      34.996  19.006   8.326  0.00  0.00    -0.391 OA
HETATM    7  H   UNK N   1      34.804  19.899   7.999  0.00  0.00     0.210 HD
ENDBRANCH   2   6
ENDBRANCH   1   2
BRANCH   1   8
HETATM    8  O   UNK N   1      33.749  15.631   8.410  0.00  0.00    -0.390 OA
HETATM    9  H   UNK N   1      32.836  15.807   8.132  0.00  0.00     0.210 HD
ENDBRANCH   1   8
BRANCH   1  10
HETATM   10  C   UNK N   1      34.818  16.616  10.326  0.00  0.00     0.180 C 
BRANCH  10  11
HETATM   11  O   UNK N   1      36.055  17.190  10.643  0.00  0.00    -0.390 OA
HETATM   12  H   UNK N   1      36.137  18.138  10.827  0.00  0.00     0.210 HD
ENDBRANCH  10  11
BRANCH  10  13
HETATM   13  C   UNK N   1      34.781  15.183  10.891  0.00  0.00     0.173 C 
BRANCH  13  14
HETATM   14  O   UNK N   1      33.490  14.854  11.308  0.00  0.00    -0.391 OA
HETATM   15  H   UNK N   1      32.777  14.694  10.670  0.00  0.00     0.210 HD
ENDBRANCH  13  14
BRANCH  13  16
HETATM   16  C   UNK N   1      35.714  15.022  12.087  0.00  0.00     0.198 C 
BRANCH  16  17
HETATM   17  O   UNK N   1      36.949  14.506  11.691  0.00  0.00    -0.398 OA
HETATM   18  H   UNK N   1      37.079  13.978  10.887  0.00  0.00     0.209 HD
ENDBRANCH  16  17
ENDBRANCH  13  16
ENDBRANCH  10  13
ENDBRANCH   1  10
TORSDOF 11
ENDMDL
MODEL 5
REMARK VINA RESULT:      -4.5      1.261      4.794
REMARK  11 active torsions:
REMARK  status: ('A' for Active; 'I' for Inactive)
REMARK    1  A    between atoms: O_7  and  C_1 
REMARK    2  A    between atoms: C_2  and  C_1 
REMARK    3  A    between atoms: C_2  and  O_8 
REMARK    4  A    between atoms: C_3  and  C_2 
REMARK    5  A    between atoms: C_3  and  O_9 
REMARK    6  A    between atoms: C_4  and  C_3 
REMARK    7  A    between atoms: C_4  and  O_10 
REMARK    8  A    between atoms: C_5  and  C_4 
REMARK    9  A    between atoms: C_5  and  O_11 
REMARK   10  A    between atoms: C_6  and  C_5 
REMARK   11  A    between atoms: O_12  and  C_6 
ROOT
HETATM    1  C   UNK N   1      35.089  14.633  11.487  0.00  0.00     0.180 C 
ENDROOT
BRANCH   1   2
HETATM    2  C   UNK N   1      35.748  15.996  11.196  0.00  0.00     0.173 C 
BRANCH   2   3
HETATM    3  C   UNK N   1      35.055  16.727  10.053  0.00  0.00     0.198 C 
BRANCH   3   4
HETATM    4  O   UNK N   1      35.602  17.997   9.872  0.00  0.00    -0.398 OA
HETATM    5  H   UNK N   1      36.549  18.196   9.931  0.00  0.00     0.209 HD
ENDBRANCH   3   4
ENDBRANCH   2   3
BRANCH   2   6
HETATM    6  O   UNK N   1      37.088  15.829  10.836  0.00  0.00    -0.391 OA
HETATM    7  H   UNK N   1      37.777  16.420  11.177  0.00  0.00     0.210 HD
ENDBRANCH   2   6
ENDBRANCH   1   2
BRANCH   1   8
HETATM    8  O   UNK N   1      33.699  14.776  11.400  0.00  0.00    -0.390 OA
HETATM    9  H   UNK N   1      33.129  14.032  11.147  0.00  0.00     0.210 HD
ENDBRANCH   1   8
BRANCH   1  10
HETATM   10  C   UNK N   1      35.464  14.070  12.874  0.00  0.00     0.180 C 
BRANCH  10  11
HETATM   11  O   UNK N   1      36.799  14.384  13.157  0.00  0.00    -0.390 OA
HETATM   12  H   UNK N   1      37.449  14.499  12.448  0.00  0.00     0.210 HD
ENDBRANCH  10  11
BRANCH  10  13
HETATM   13  C   UNK N   1      35.287  12.542  12.970  0.00  0.00     0.173 C 
BRANCH  13  14
HETATM   14  O   UNK N   1      34.414  12.088  11.980  0.00  0.00    -0.391 OA
HETATM   15  H   UNK N   1      34.435  12.452  11.081  0.00  0.00     0.210 HD
ENDBRANCH  13  14
BRANCH  13  16
HETATM   16  C   UNK N   1      34.718  12.123  14.322  0.00  0.00     0.198 C 
BRANCH  16  17
HETATM   17  O   UNK N   1      34.638  13.213  15.190  0.00  0.00    -0.398 OA
HETATM   18  H   UNK N   1      35.307  13.914  15.236  0.00  0.00     0.209 HD
ENDBRANCH  16  17
ENDBRANCH  13  16
ENDBRANCH  10  13
ENDBRANCH   1  10
TORSDOF 11
ENDMDL
MODEL 6
REMARK VINA RESULT:      -4.4      1.038      4.502
REMARK  11 active torsions:
REMARK  status: ('A' for Active; 'I' for Inactive)
REMARK    1  A    between atoms: O_7  and  C_1 
REMARK    2  A    between atoms: C_2  and  C_1 
REMARK    3  A    between atoms: C_2  and  O_8 
REMARK    4  A    between atoms: C_3  and  C_2 
REMARK    5  A    between atoms: C_3  and  O_9 
REMARK    6  A    between atoms: C_4  and  C_3 
REMARK    7  A    between atoms: C_4  and  O_10 
REMARK    8  A    between atoms: C_5  and  C_4 
REMARK    9  A    between atoms: C_5  and  O_11 
REMARK   10  A    between atoms: C_6  and  C_5 
REMARK   11  A    between atoms: O_12  and  C_6 
ROOT
HETATM    1  C   UNK N   1      35.471  14.959  12.092  0.00  0.00     0.180 C 
ENDROOT
BRANCH   1   2
HETATM    2  C   UNK N   1      34.593  14.902  10.826  0.00  0.00     0.173 C 
BRANCH   2   3
HETATM    3  C   UNK N   1      34.896  16.054   9.876  0.00  0.00     0.198 C 
BRANCH   3   4
HETATM    4  O   UNK N   1      34.943  17.266  10.566  0.00  0.00    -0.398 OA
HETATM    5  H   UNK N   1      35.686  17.549  11.121  0.00  0.00     0.209 HD
ENDBRANCH   3   4
ENDBRANCH   2   3
BRANCH   2   6
HETATM    6  O   UNK N   1      33.239  14.980  11.162  0.00  0.00    -0.391 OA
HETATM    7  H   UNK N   1      32.825  14.315  11.735  0.00  0.00     0.210 HD
ENDBRANCH   2   6
ENDBRANCH   1   2
BRANCH   1   8
HETATM    8  O   UNK N   1      36.760  15.370  11.731  0.00  0.00    -0.390 OA
HETATM    9  H   UNK N   1      36.903  16.076  11.081  0.00  0.00     0.210 HD
ENDBRANCH   1   8
BRANCH   1  10
HETATM   10  C   UNK N   1      35.549  13.605  12.830  0.00  0.00     0.180 C 
BRANCH  10  11
HETATM   11  O   UNK N   1      34.315  12.952  12.732  0.00  0.00    -0.390 OA
HETATM   12  H   UNK N   1      34.087  12.217  13.321  0.00  0.00     0.210 HD
ENDBRANCH  10  11
BRANCH  10  13
HETATM   13  C   UNK N   1      35.912  13.754  14.320  0.00  0.00     0.173 C 
BRANCH  13  14
HETATM   14  O   UNK N   1      37.296  13.693  14.495  0.00  0.00    -0.391 OA
HETATM   15  H   UNK N   1      37.898  14.240  13.967  0.00  0.00     0.210 HD
ENDBRANCH  13  14
BRANCH  13  16
HETATM   16  C   UNK N   1      35.285  12.651  15.167  0.00  0.00     0.198 C 
BRANCH  16  17
HETATM   17  O   UNK N   1      34.085  13.080  15.737  0.00  0.00    -0.398 OA
HETATM   18  H   UNK N   1      33.598  12.574  16.407  0.00  0.00     0.209 HD
ENDBRANCH  16  17
ENDBRANCH  13  16
ENDBRANCH  10  13
ENDBRANCH   1  10
TORSDOF 11
ENDMDL
MODEL 7
REMARK VINA RESULT:      -4.4      1.794      3.608
REMARK  11 active torsions:
REMARK  status: ('A' for Active; 'I' for Inactive)
REMARK    1  A    between atoms: O_7  and  C_1 
REMARK    2  A    between atoms: C_2  and  C_1 
REMARK    3  A    between atoms: C_2  and  O_8 
REMARK    4  A    between atoms: C_3  and  C_2 
REMARK    5  A    between atoms: C_3  and  O_9 
REMARK    6  A    between atoms: C_4  and  C_3 
REMARK    7  A    between atoms: C_4  and  O_10 
REMARK    8  A    between atoms: C_5  and  C_4 
REMARK    9  A    between atoms: C_5  and  O_11 
REMARK   10  A    between atoms: C_6  and  C_5 
REMARK   11  A    between atoms: O_12  and  C_6 
ROOT
HETATM    1  C   UNK N   1      34.596  15.692  11.017  0.00  0.00     0.180 C 
ENDROOT
BRANCH   1   2
HETATM    2  C   UNK N   1      35.674  14.627  11.300  0.00  0.00     0.173 C 
BRANCH   2   3
HETATM    3  C   UNK N   1      35.589  14.103  12.727  0.00  0.00     0.198 C 
BRANCH   3   4
HETATM    4  O   UNK N   1      34.487  13.260  12.881  0.00  0.00    -0.398 OA
HETATM    5  H   UNK N   1      34.547  12.297  12.983  0.00  0.00     0.209 HD
ENDBRANCH   3   4
ENDBRANCH   2   3
BRANCH   2   6
HETATM    6  O   UNK N   1      36.953  15.162  11.123  0.00  0.00    -0.391 OA
HETATM    7  H   UNK N   1      37.391  15.657  11.833  0.00  0.00     0.210 HD
ENDBRANCH   2   6
ENDBRANCH   1   2
BRANCH   1   8
HETATM    8  O   UNK N   1      33.348  15.063  10.935  0.00  0.00    -0.390 OA
HETATM    9  H   UNK N   1      33.202  14.303  10.349  0.00  0.00     0.210 HD
ENDBRANCH   1   8
BRANCH   1  10
HETATM   10  C   UNK N   1      34.861  16.484   9.719  0.00  0.00     0.180 C 
BRANCH  10  11
HETATM   11  O   UNK N   1      35.512  17.683  10.032  0.00  0.00    -0.390 OA
HETATM   12  H   UNK N   1      35.014  18.473  10.294  0.00  0.00     0.210 HD
ENDBRANCH  10  11
BRANCH  10  13
HETATM   13  C   UNK N   1      33.571  16.812   8.942  0.00  0.00     0.173 C 
BRANCH  13  14
HETATM   14  O   UNK N   1      33.286  15.804   8.019  0.00  0.00    -0.391 OA
HETATM   15  H   UNK N   1      32.528  15.868   7.418  0.00  0.00     0.210 HD
ENDBRANCH  13  14
BRANCH  13  16
HETATM   16  C   UNK N   1      33.691  18.126   8.176  0.00  0.00     0.198 C 
BRANCH  16  17
HETATM   17  O   UNK N   1      34.631  18.022   7.149  0.00  0.00    -0.398 OA
HETATM   18  H   UNK N   1      34.966  18.784   6.648  0.00  0.00     0.209 HD
ENDBRANCH  16  17
ENDBRANCH  13  16
ENDBRANCH  10  13
ENDBRANCH   1  10
TORSDOF 11
ENDMDL
MODEL 8
REMARK VINA RESULT:      -4.3      1.635      4.870
REMARK  11 active torsions:
REMARK  status: ('A' for Active; 'I' for Inactive)
REMARK    1  A    between atoms: O_7  and  C_1 
REMARK    2  A    between atoms: C_2  and  C_1 
REMARK    3  A    between atoms: C_2  and  O_8 
REMARK    4  A    between atoms: C_3  and  C_2 
REMARK    5  A    between atoms: C_3  and  O_9 
REMARK    6  A    between atoms: C_4  and  C_3 
REMARK    7  A    between atoms: C_4  and  O_10 
REMARK    8  A    between atoms: C_5  and  C_4 
REMARK    9  A    between atoms: C_5  and  O_11 
REMARK   10  A    between atoms: C_6  and  C_5 
REMARK   11  A    between atoms: O_12  and  C_6 
ROOT
HETATM    1  C   UNK N   1      34.663  15.352  10.552  0.00  0.00     0.180 C 
ENDROOT
BRANCH   1   2
HETATM    2  C   UNK N   1      34.419  16.497   9.548  0.00  0.00     0.173 C 
BRANCH   2   3
HETATM    3  C   UNK N   1      34.745  16.076   8.121  0.00  0.00     0.198 C 
BRANCH   3   4
HETATM    4  O   UNK N   1      35.628  14.996   8.112  0.00  0.00    -0.398 OA
HETATM    5  H   UNK N   1      35.353  14.067   8.062  0.00  0.00     0.209 HD
ENDBRANCH   3   4
ENDBRANCH   2   3
BRANCH   2   6
HETATM    6  O   UNK N   1      35.220  17.600   9.854  0.00  0.00    -0.391 OA
HETATM    7  H   UNK N   1      35.631  18.132   9.155  0.00  0.00     0.210 HD
ENDBRANCH   2   6
ENDBRANCH   1   2
BRANCH   1   8
HETATM    8  O   UNK N   1      33.462  15.066  11.212  0.00  0.00    -0.390 OA
HETATM    9  H   UNK N   1      33.174  14.152  11.365  0.00  0.00     0.210 HD
ENDBRANCH   1   8
BRANCH   1  10
HETATM   10  C   UNK N   1      35.755  15.688  11.589  0.00  0.00     0.180 C 
BRANCH  10  11
HETATM   11  O   UNK N   1      36.980  15.859  10.934  0.00  0.00    -0.390 OA
HETATM   12  H   UNK N   1      37.042  16.358  10.105  0.00  0.00     0.210 HD
ENDBRANCH  10  11
BRANCH  10  13
HETATM   13  C   UNK N   1      35.919  14.595  12.663  0.00  0.00     0.173 C 
BRANCH  13  14
HETATM   14  O   UNK N   1      36.834  14.998  13.637  0.00  0.00    -0.391 OA
HETATM   15  H   UNK N   1      36.591  15.633  14.328  0.00  0.00     0.210 HD
ENDBRANCH  13  14
BRANCH  13  16
HETATM   16  C   UNK N   1      36.421  13.285  12.063  0.00  0.00     0.198 C 
BRANCH  16  17
HETATM   17  O   UNK N   1      37.783  13.360  11.766  0.00  0.00    -0.398 OA
HETATM   18  H   UNK N   1      38.378  14.030  12.138  0.00  0.00     0.209 HD
ENDBRANCH  16  17
ENDBRANCH  13  16
ENDBRANCH  10  13
ENDBRANCH   1  10
TORSDOF 11
ENDMDL
MODEL 9
REMARK VINA RESULT:      -4.2      2.455      5.034
REMARK  11 active torsions:
REMARK  status: ('A' for Active; 'I' for Inactive)
REMARK    1  A    between atoms: O_7  and  C_1 
REMARK    2  A    between atoms: C_2  and  C_1 
REMARK    3  A    between atoms: C_2  and  O_8 
REMARK    4  A    between atoms: C_3  and  C_2 
REMARK    5  A    between atoms: C_3  and  O_9 
REMARK    6  A    between atoms: C_4  and  C_3 
REMARK    7  A    between atoms: C_4  and  O_10 
REMARK    8  A    between atoms: C_5  and  C_4 
REMARK    9  A    between atoms: C_5  and  O_11 
REMARK   10  A    between atoms: C_6  and  C_5 
REMARK   11  A    between atoms: O_12  and  C_6 
ROOT
HETATM    1  C   UNK N   1      34.836  15.585   9.088  0.00  0.00     0.180 C 
ENDROOT
BRANCH   1   2
HETATM    2  C   UNK N   1      34.557  17.043   9.506  0.00  0.00     0.173 C 
BRANCH   2   3
HETATM    3  C   UNK N   1      34.477  17.971   8.300  0.00  0.00     0.198 C 
BRANCH   3   4
HETATM    4  O   UNK N   1      35.251  19.114   8.502  0.00  0.00    -0.398 OA
HETATM    5  H   UNK N   1      36.039  19.147   9.067  0.00  0.00     0.209 HD
ENDBRANCH   3   4
ENDBRANCH   2   3
BRANCH   2   6
HETATM    6  O   UNK N   1      35.573  17.521  10.337  0.00  0.00    -0.391 OA
HETATM    7  H   UNK N   1      35.509  18.393  10.757  0.00  0.00     0.210 HD
ENDBRANCH   2   6
ENDBRANCH   1   2
BRANCH   1   8
HETATM    8  O   UNK N   1      33.965  15.238   8.049  0.00  0.00    -0.390 OA
HETATM    9  H   UNK N   1      33.598  14.343   7.974  0.00  0.00     0.210 HD
ENDBRANCH   1   8
BRANCH   1  10
HETATM   10  C   UNK N   1      34.673  14.586  10.254  0.00  0.00     0.180 C 
BRANCH  10  11
HETATM   11  O   UNK N   1      33.827  15.138  11.222  0.00  0.00    -0.390 OA
HETATM   12  H   UNK N   1      33.234  14.580  11.749  0.00  0.00     0.210 HD
ENDBRANCH  10  11
BRANCH  10  13
HETATM   13  C   UNK N   1      36.013  14.218  10.920  0.00  0.00     0.173 C 
BRANCH  13  14
HETATM   14  O   UNK N   1      36.367  15.178  11.869  0.00  0.00    -0.391 OA
HETATM   15  H   UNK N   1      35.778  15.917  12.087  0.00  0.00     0.210 HD
ENDBRANCH  13  14
BRANCH  13  16
HETATM   16  C   UNK N   1      37.145  14.128   9.902  0.00  0.00     0.198 C 
BRANCH  16  17
HETATM   17  O   UNK N   1      38.158  15.041  10.197  0.00  0.00    -0.398 OA
HETATM   18  H   UNK N   1      38.858  15.288   9.572  0.00  0.00     0.209 HD
ENDBRANCH  16  17
ENDBRANCH  13  16
ENDBRANCH  10  13
ENDBRANCH   1  10
TORSDOF 11
ENDMDL
