MODEL 1
REMARK VINA RESULT:      -5.2      0.000      0.000
REMARK  8 active torsions:
REMARK  status: ('A' for Active; 'I' for Inactive)
REMARK    1  A    between atoms: N_2  and  C_9 
REMARK    2  A    between atoms: N_2  and  C_11 
REMARK    3  A    between atoms: N_2  and  C_12 
REMARK    4  A    between atoms: N_3  and  C_8 
REMARK    5  A    between atoms: N_3  and  C_13 
REMARK    6  A    between atoms: C_6  and  C_7 
REMARK    7  A    between atoms: C_6  and  C_8 
REMARK    8  A    between atoms: C_7  and  C_9 
ROOT
HETATM    1 Cl   UNK N   1      30.035  29.762  -8.798  0.00  0.00    -0.084 Cl
HETATM    2  N   UNK N   1      27.054  29.575  -4.648  0.00  0.00    -0.365 N 
ATOM      3  HN  UNK N   1      27.452  30.477  -4.387  1.00  0.00     0.165 HD
HETATM    4  C   UNK N   1      25.971  27.124  -5.348  0.00  0.00     0.042 A 
HETATM    5  C   UNK N   1      26.937  27.719  -6.169  0.00  0.00     0.017 A 
HETATM    6  C   UNK N   1      25.553  27.776  -4.185  0.00  0.00     0.047 A 
HETATM    7  C   UNK N   1      27.471  28.971  -5.791  0.00  0.00     0.046 A 
HETATM    8  C   UNK N   1      27.355  27.116  -7.362  0.00  0.00     0.018 A 
HETATM    9  C   UNK N   1      26.117  29.004  -3.842  0.00  0.00     0.090 A 
HETATM   10  C   UNK N   1      28.419  29.595  -6.606  0.00  0.00     0.054 A 
HETATM   11  C   UNK N   1      28.305  27.747  -8.170  0.00  0.00     0.025 A 
HETATM   12  C   UNK N   1      28.837  28.983  -7.791  0.00  0.00     0.036 A 
ENDROOT
BRANCH   4  13
HETATM   13  N   UNK N   1      25.339  25.928  -5.740  0.00  0.00    -0.385 N 
HETATM   14  H   UNK N   1      24.431  25.928  -6.121  0.00  0.00     0.160 HD
BRANCH  13  15
HETATM   15  C   UNK N   1      26.075  24.711  -5.559  0.00  0.00     0.077 C 
HETATM   16  C   UNK N   1      25.862  23.685  -6.659  0.00  0.00     0.032 C 
BRANCH  15  17
HETATM   17  C   UNK N   1      26.173  24.282  -4.097  0.00  0.00     0.026 C 
BRANCH  17  18
HETATM   18  C   UNK N   1      27.558  24.398  -3.491  0.00  0.00     0.032 C 
BRANCH  18  19
HETATM   19  C   UNK N   1      28.643  23.684  -4.307  0.00  0.00     0.272 C 
BRANCH  19  20
HETATM   20  N   UNK N   1      29.960  24.315  -4.142  0.00  0.00     0.087 N 
BRANCH  20  21
HETATM   21  C   UNK N   1      30.665  23.687  -3.018  0.00  0.00     0.268 C 
HETATM   22  C   UNK N   1      30.523  22.178  -3.070  0.00  0.00     0.037 C 
ENDBRANCH  20  21
BRANCH  20  23
HETATM   23  C   UNK N   1      29.719  25.756  -3.967  0.00  0.00     0.268 C 
HETATM   24  C   UNK N   1      30.330  26.661  -5.032  0.00  0.00     0.037 C 
ENDBRANCH  20  23
ENDBRANCH  19  20
ENDBRANCH  18  19
ENDBRANCH  17  18
ENDBRANCH  15  17
ENDBRANCH  13  15
ENDBRANCH   4  13
TORSDOF 8
ENDMDL
MODEL 2
REMARK VINA RESULT:      -5.2     15.961     19.053
REMARK  8 active torsions:
REMARK  status: ('A' for Active; 'I' for Inactive)
REMARK    1  A    between atoms: N_2  and  C_9 
REMARK    2  A    between atoms: N_2  and  C_11 
REMARK    3  A    between atoms: N_2  and  C_12 
REMARK    4  A    between atoms: N_3  and  C_8 
REMARK    5  A    between atoms: N_3  and  C_13 
REMARK    6  A    between atoms: C_6  and  C_7 
REMARK    7  A    between atoms: C_6  and  C_8 
REMARK    8  A    between atoms: C_7  and  C_9 
ROOT
HETATM    1 Cl   UNK N   1      23.024  11.517  12.995  0.00  0.00    -0.084 Cl
HETATM    2  N   UNK N   1      25.014  13.308   8.639  0.00  0.00    -0.365 N 
ATOM      3  HN  UNK N   1      25.922  13.010   8.994  1.00  0.00     0.165 HD
HETATM    4  C   UNK N   1      22.550  14.124   7.670  0.00  0.00     0.042 A 
HETATM    5  C   UNK N   1      22.639  13.525   8.933  0.00  0.00     0.017 A 
HETATM    6  C   UNK N   1      23.705  14.298   6.903  0.00  0.00     0.047 A 
HETATM    7  C   UNK N   1      23.907  13.115   9.403  0.00  0.00     0.046 A 
HETATM    8  C   UNK N   1      21.500  13.299   9.716  0.00  0.00     0.018 A 
HETATM    9  C   UNK N   1      24.938  13.891   7.411  0.00  0.00     0.090 A 
HETATM   10  C   UNK N   1      24.017  12.494  10.650  0.00  0.00     0.054 A 
HETATM   11  C   UNK N   1      21.621  12.680  10.963  0.00  0.00     0.025 A 
HETATM   12  C   UNK N   1      22.877  12.280  11.429  0.00  0.00     0.036 A 
ENDROOT
BRANCH   4  13
HETATM   13  N   UNK N   1      21.296  14.453   7.121  0.00  0.00    -0.385 N 
HETATM   14  H   UNK N   1      20.658  13.757   6.844  0.00  0.00     0.160 HD
BRANCH  13  15
HETATM   15  C   UNK N   1      20.989  15.847   6.986  0.00  0.00     0.077 C 
HETATM   16  C   UNK N   1      20.276  16.448   8.186  0.00  0.00     0.032 C 
BRANCH  15  17
HETATM   17  C   UNK N   1      20.591  16.237   5.564  0.00  0.00     0.026 C 
BRANCH  17  18
HETATM   18  C   UNK N   1      21.272  17.483   5.032  0.00  0.00     0.032 C 
BRANCH  18  19
HETATM   19  C   UNK N   1      21.747  17.345   3.580  0.00  0.00     0.272 C 
BRANCH  19  20
HETATM   20  N   UNK N   1      21.101  18.325   2.695  0.00  0.00     0.087 N 
BRANCH  20  21
HETATM   21  C   UNK N   1      20.690  19.496   3.480  0.00  0.00     0.268 C 
HETATM   22  C   UNK N   1      20.916  20.775   2.697  0.00  0.00     0.037 C 
ENDBRANCH  20  21
BRANCH  20  23
HETATM   23  C   UNK N   1      19.986  17.627   2.034  0.00  0.00     0.268 C 
HETATM   24  C   UNK N   1      20.264  16.187   1.617  0.00  0.00     0.037 C 
ENDBRANCH  20  23
ENDBRANCH  19  20
ENDBRANCH  18  19
ENDBRANCH  17  18
ENDBRANCH  15  17
ENDBRANCH  13  15
ENDBRANCH   4  13
TORSDOF 8
ENDMDL
MODEL 3
REMARK VINA RESULT:      -5.1     13.097     15.388
REMARK  8 active torsions:
REMARK  status: ('A' for Active; 'I' for Inactive)
REMARK    1  A    between atoms: N_2  and  C_9 
REMARK    2  A    between atoms: N_2  and  C_11 
REMARK    3  A    between atoms: N_2  and  C_12 
REMARK    4  A    between atoms: N_3  and  C_8 
REMARK    5  A    between atoms: N_3  and  C_13 
REMARK    6  A    between atoms: C_6  and  C_7 
REMARK    7  A    between atoms: C_6  and  C_8 
REMARK    8  A    between atoms: C_7  and  C_9 
ROOT
HETATM    1 Cl   UNK N   1      26.364  20.459   3.719  0.00  0.00    -0.084 Cl
HETATM    2  N   UNK N   1      27.746  18.967   8.411  0.00  0.00    -0.365 N 
ATOM      3  HN  UNK N   1      27.005  19.572   8.764  1.00  0.00     0.165 HD
HETATM    4  C   UNK N   1      29.762  17.321   7.460  0.00  0.00     0.042 A 
HETATM    5  C   UNK N   1      28.984  18.062   6.561  0.00  0.00     0.017 A 
HETATM    6  C   UNK N   1      29.510  17.411   8.831  0.00  0.00     0.047 A 
HETATM    7  C   UNK N   1      27.960  18.891   7.071  0.00  0.00     0.046 A 
HETATM    8  C   UNK N   1      29.180  17.971   5.177  0.00  0.00     0.018 A 
HETATM    9  C   UNK N   1      28.498  18.252   9.293  0.00  0.00     0.090 A 
HETATM   10  C   UNK N   1      27.156  19.621   6.192  0.00  0.00     0.054 A 
HETATM   11  C   UNK N   1      28.373  18.707   4.306  0.00  0.00     0.025 A 
HETATM   12  C   UNK N   1      27.364  19.531   4.813  0.00  0.00     0.036 A 
ENDROOT
BRANCH   4  13
HETATM   13  N   UNK N   1      30.723  16.407   6.988  0.00  0.00    -0.385 N 
HETATM   14  H   UNK N   1      30.536  15.814   6.225  0.00  0.00     0.160 HD
BRANCH  13  15
HETATM   15  C   UNK N   1      31.985  16.377   7.669  0.00  0.00     0.077 C 
HETATM   16  C   UNK N   1      32.690  17.721   7.731  0.00  0.00     0.032 C 
BRANCH  15  17
HETATM   17  C   UNK N   1      32.770  15.092   7.418  0.00  0.00     0.026 C 
BRANCH  17  18
HETATM   18  C   UNK N   1      34.121  15.289   6.761  0.00  0.00     0.032 C 
BRANCH  18  19
HETATM   19  C   UNK N   1      34.028  15.775   5.308  0.00  0.00     0.272 C 
BRANCH  19  20
HETATM   20  N   UNK N   1      33.027  15.020   4.540  0.00  0.00     0.087 N 
BRANCH  20  21
HETATM   21  C   UNK N   1      33.692  13.931   3.811  0.00  0.00     0.268 C 
HETATM   22  C   UNK N   1      34.228  14.424   2.481  0.00  0.00     0.037 C 
ENDBRANCH  20  21
BRANCH  20  23
HETATM   23  C   UNK N   1      32.341  15.989   3.672  0.00  0.00     0.268 C 
HETATM   24  C   UNK N   1      32.603  17.457   3.987  0.00  0.00     0.037 C 
ENDBRANCH  20  23
ENDBRANCH  19  20
ENDBRANCH  18  19
ENDBRANCH  17  18
ENDBRANCH  15  17
ENDBRANCH  13  15
ENDBRANCH   4  13
TORSDOF 8
ENDMDL
MODEL 4
REMARK VINA RESULT:      -5.0     22.191     26.528
REMARK  8 active torsions:
REMARK  status: ('A' for Active; 'I' for Inactive)
REMARK    1  A    between atoms: N_2  and  C_9 
REMARK    2  A    between atoms: N_2  and  C_11 
REMARK    3  A    between atoms: N_2  and  C_12 
REMARK    4  A    between atoms: N_3  and  C_8 
REMARK    5  A    between atoms: N_3  and  C_13 
REMARK    6  A    between atoms: C_6  and  C_7 
REMARK    7  A    between atoms: C_6  and  C_8 
REMARK    8  A    between atoms: C_7  and  C_9 
ROOT
HETATM    1 Cl   UNK N   1      35.848   6.765  16.316  0.00  0.00    -0.084 Cl
HETATM    2  N   UNK N   1      35.367  11.141  18.919  0.00  0.00    -0.365 N 
ATOM      3  HN  UNK N   1      35.439  10.581  19.768  1.00  0.00     0.165 HD
HETATM    4  C   UNK N   1      35.170  12.667  16.615  0.00  0.00     0.042 A 
HETATM    5  C   UNK N   1      35.314  11.277  16.520  0.00  0.00     0.017 A 
HETATM    6  C   UNK N   1      35.134  13.275  17.872  0.00  0.00     0.047 A 
HETATM    7  C   UNK N   1      35.417  10.521  17.710  0.00  0.00     0.046 A 
HETATM    8  C   UNK N   1      35.391  10.633  15.279  0.00  0.00     0.018 A 
HETATM    9  C   UNK N   1      35.225  12.491  19.021  0.00  0.00     0.090 A 
HETATM   10  C   UNK N   1      35.585   9.136  17.639  0.00  0.00     0.054 A 
HETATM   11  C   UNK N   1      35.558   9.247  15.218  0.00  0.00     0.025 A 
HETATM   12  C   UNK N   1      35.653   8.501  16.397  0.00  0.00     0.036 A 
ENDROOT
BRANCH   4  13
HETATM   13  N   UNK N   1      35.167  13.466  15.456  0.00  0.00    -0.385 N 
HETATM   14  H   UNK N   1      34.327  13.756  15.034  0.00  0.00     0.160 HD
BRANCH  13  15
HETATM   15  C   UNK N   1      36.443  13.839  14.918  0.00  0.00     0.077 C 
HETATM   16  C   UNK N   1      37.163  14.917  15.711  0.00  0.00     0.032 C 
BRANCH  15  17
HETATM   17  C   UNK N   1      36.472  13.839  13.391  0.00  0.00     0.026 C 
BRANCH  17  18
HETATM   18  C   UNK N   1      35.219  13.300  12.730  0.00  0.00     0.032 C 
BRANCH  18  19
HETATM   19  C   UNK N   1      35.309  13.253  11.200  0.00  0.00     0.272 C 
BRANCH  19  20
HETATM   20  N   UNK N   1      36.274  14.230  10.676  0.00  0.00     0.087 N 
BRANCH  20  21
HETATM   21  C   UNK N   1      35.550  15.320  10.007  0.00  0.00     0.268 C 
HETATM   22  C   UNK N   1      35.455  16.535  10.909  0.00  0.00     0.037 C 
ENDBRANCH  20  21
BRANCH  20  23
HETATM   23  C   UNK N   1      37.188  13.490   9.793  0.00  0.00     0.268 C 
HETATM   24  C   UNK N   1      38.540  13.129  10.398  0.00  0.00     0.037 C 
ENDBRANCH  20  23
ENDBRANCH  19  20
ENDBRANCH  18  19
ENDBRANCH  17  18
ENDBRANCH  15  17
ENDBRANCH  13  15
ENDBRANCH   4  13
TORSDOF 8
ENDMDL
MODEL 5
REMARK VINA RESULT:      -5.0     22.731     26.597
REMARK  8 active torsions:
REMARK  status: ('A' for Active; 'I' for Inactive)
REMARK    1  A    between atoms: N_2  and  C_9 
REMARK    2  A    between atoms: N_2  and  C_11 
REMARK    3  A    between atoms: N_2  and  C_12 
REMARK    4  A    between atoms: N_3  and  C_8 
REMARK    5  A    between atoms: N_3  and  C_13 
REMARK    6  A    between atoms: C_6  and  C_7 
REMARK    7  A    between atoms: C_6  and  C_8 
REMARK    8  A    between atoms: C_7  and  C_9 
ROOT
HETATM    1 Cl   UNK N   1      34.221   8.434  10.648  0.00  0.00    -0.084 Cl
HETATM    2  N   UNK N   1      36.455   8.279  15.245  0.00  0.00    -0.365 N 
ATOM      3  HN  UNK N   1      36.924   7.431  14.929  1.00  0.00     0.165 HD
HETATM    4  C   UNK N   1      35.183  10.583  16.111  0.00  0.00     0.042 A 
HETATM    5  C   UNK N   1      34.930  10.088  14.825  0.00  0.00     0.017 A 
HETATM    6  C   UNK N   1      36.083   9.916  16.945  0.00  0.00     0.047 A 
HETATM    7  C   UNK N   1      35.594   8.913  14.407  0.00  0.00     0.046 A 
HETATM    8  C   UNK N   1      34.063  10.748  13.945  0.00  0.00     0.018 A 
HETATM    9  C   UNK N   1      36.706   8.752  16.497  0.00  0.00     0.090 A 
HETATM   10  C   UNK N   1      35.375   8.414  13.120  0.00  0.00     0.054 A 
HETATM   11  C   UNK N   1      33.849  10.240  12.661  0.00  0.00     0.025 A 
HETATM   12  C   UNK N   1      34.502   9.074  12.251  0.00  0.00     0.036 A 
ENDROOT
BRANCH   4  13
HETATM   13  N   UNK N   1      34.622  11.805  16.529  0.00  0.00    -0.385 N 
HETATM   14  H   UNK N   1      33.662  11.994  16.420  0.00  0.00     0.160 HD
BRANCH  13  15
HETATM   15  C   UNK N   1      35.510  12.762  17.123  0.00  0.00     0.077 C 
HETATM   16  C   UNK N   1      35.193  13.089  18.573  0.00  0.00     0.032 C 
BRANCH  15  17
HETATM   17  C   UNK N   1      35.949  13.854  16.151  0.00  0.00     0.026 C 
BRANCH  17  18
HETATM   18  C   UNK N   1      36.732  13.362  14.951  0.00  0.00     0.032 C 
BRANCH  18  19
HETATM   19  C   UNK N   1      36.224  13.926  13.618  0.00  0.00     0.272 C 
BRANCH  19  20
HETATM   20  N   UNK N   1      36.894  13.304  12.467  0.00  0.00     0.087 N 
BRANCH  20  21
HETATM   21  C   UNK N   1      35.975  13.281  11.321  0.00  0.00     0.268 C 
HETATM   22  C   UNK N   1      34.774  14.171  11.578  0.00  0.00     0.037 C 
ENDBRANCH  20  21
BRANCH  20  23
HETATM   23  C   UNK N   1      37.337  11.971  12.905  0.00  0.00     0.268 C 
HETATM   24  C   UNK N   1      37.655  10.983  11.788  0.00  0.00     0.037 C 
ENDBRANCH  20  23
ENDBRANCH  19  20
ENDBRANCH  18  19
ENDBRANCH  17  18
ENDBRANCH  15  17
ENDBRANCH  13  15
ENDBRANCH   4  13
TORSDOF 8
ENDMDL
MODEL 6
REMARK VINA RESULT:      -5.0     16.286     19.240
REMARK  8 active torsions:
REMARK  status: ('A' for Active; 'I' for Inactive)
REMARK    1  A    between atoms: N_2  and  C_9 
REMARK    2  A    between atoms: N_2  and  C_11 
REMARK    3  A    between atoms: N_2  and  C_12 
REMARK    4  A    between atoms: N_3  and  C_8 
REMARK    5  A    between atoms: N_3  and  C_13 
REMARK    6  A    between atoms: C_6  and  C_7 
REMARK    7  A    between atoms: C_6  and  C_8 
REMARK    8  A    between atoms: C_7  and  C_9 
ROOT
HETATM    1 Cl   UNK N   1      23.056  11.808  12.864  0.00  0.00    -0.084 Cl
HETATM    2  N   UNK N   1      24.418  12.373   7.968  0.00  0.00    -0.365 N 
ATOM      3  HN  UNK N   1      25.340  12.034   8.241  1.00  0.00     0.165 HD
HETATM    4  C   UNK N   1      21.916  13.298   7.220  0.00  0.00     0.042 A 
HETATM    5  C   UNK N   1      22.166  12.967   8.557  0.00  0.00     0.017 A 
HETATM    6  C   UNK N   1      22.929  13.151   6.269  0.00  0.00     0.047 A 
HETATM    7  C   UNK N   1      23.449  12.494   8.913  0.00  0.00     0.046 A 
HETATM    8  C   UNK N   1      21.166  13.065   9.533  0.00  0.00     0.018 A 
HETATM    9  C   UNK N   1      24.186  12.695   6.665  0.00  0.00     0.090 A 
HETATM   10  C   UNK N   1      23.714  12.135  10.237  0.00  0.00     0.054 A 
HETATM   11  C   UNK N   1      21.441  12.705  10.855  0.00  0.00     0.025 A 
HETATM   12  C   UNK N   1      22.713  12.243  11.206  0.00  0.00     0.036 A 
ENDROOT
BRANCH   4  13
HETATM   13  N   UNK N   1      20.624  13.675   6.805  0.00  0.00    -0.385 N 
HETATM   14  H   UNK N   1      19.853  13.072   6.916  0.00  0.00     0.160 HD
BRANCH  13  15
HETATM   15  C   UNK N   1      20.480  14.974   6.216  0.00  0.00     0.077 C 
HETATM   16  C   UNK N   1      20.854  16.122   7.139  0.00  0.00     0.032 C 
BRANCH  15  17
HETATM   17  C   UNK N   1      19.275  15.079   5.285  0.00  0.00     0.026 C 
BRANCH  17  18
HETATM   18  C   UNK N   1      19.613  15.377   3.837  0.00  0.00     0.032 C 
BRANCH  18  19
HETATM   19  C   UNK N   1      19.901  16.860   3.571  0.00  0.00     0.272 C 
BRANCH  19  20
HETATM   20  N   UNK N   1      21.200  17.059   2.913  0.00  0.00     0.087 N 
BRANCH  20  21
HETATM   21  C   UNK N   1      21.909  15.774   2.836  0.00  0.00     0.268 C 
HETATM   22  C   UNK N   1      23.232  15.846   3.574  0.00  0.00     0.037 C 
ENDBRANCH  20  21
BRANCH  20  23
HETATM   23  C   UNK N   1      21.912  18.090   3.683  0.00  0.00     0.268 C 
HETATM   24  C   UNK N   1      21.113  19.352   3.991  0.00  0.00     0.037 C 
ENDBRANCH  20  23
ENDBRANCH  19  20
ENDBRANCH  18  19
ENDBRANCH  17  18
ENDBRANCH  15  17
ENDBRANCH  13  15
ENDBRANCH   4  13
TORSDOF 8
ENDMDL
MODEL 7
REMARK VINA RESULT:      -4.9     11.643     15.661
REMARK  8 active torsions:
REMARK  status: ('A' for Active; 'I' for Inactive)
REMARK    1  A    between atoms: N_2  and  C_9 
REMARK    2  A    between atoms: N_2  and  C_11 
REMARK    3  A    between atoms: N_2  and  C_12 
REMARK    4  A    between atoms: N_3  and  C_8 
REMARK    5  A    between atoms: N_3  and  C_13 
REMARK    6  A    between atoms: C_6  and  C_7 
REMARK    7  A    between atoms: C_6  and  C_8 
REMARK    8  A    between atoms: C_7  and  C_9 
ROOT
HETATM    1 Cl   UNK N   1      34.891  16.239  10.014  0.00  0.00    -0.084 Cl
HETATM    2  N   UNK N   1      33.513  17.566   5.271  0.00  0.00    -0.365 N 
ATOM      3  HN  UNK N   1      34.463  17.918   5.151  1.00  0.00     0.165 HD
HETATM    4  C   UNK N   1      30.931  16.616   5.591  0.00  0.00     0.042 A 
HETATM    5  C   UNK N   1      31.842  16.530   6.652  0.00  0.00     0.017 A 
HETATM    6  C   UNK N   1      31.334  17.174   4.376  0.00  0.00     0.047 A 
HETATM    7  C   UNK N   1      33.154  17.018   6.462  0.00  0.00     0.046 A 
HETATM    8  C   UNK N   1      31.488  15.944   7.874  0.00  0.00     0.018 A 
HETATM    9  C   UNK N   1      32.634  17.656   4.235  0.00  0.00     0.090 A 
HETATM   10  C   UNK N   1      34.087  16.921   7.497  0.00  0.00     0.054 A 
HETATM   11  C   UNK N   1      32.427  15.853   8.904  0.00  0.00     0.025 A 
HETATM   12  C   UNK N   1      33.723  16.343   8.716  0.00  0.00     0.036 A 
ENDROOT
BRANCH   4  13
HETATM   13  N   UNK N   1      29.647  16.049   5.704  0.00  0.00    -0.385 N 
HETATM   14  H   UNK N   1      29.518  15.074   5.751  0.00  0.00     0.160 HD
BRANCH  13  15
HETATM   15  C   UNK N   1      28.535  16.954   5.748  0.00  0.00     0.077 C 
HETATM   16  C   UNK N   1      28.029  17.252   7.150  0.00  0.00     0.032 C 
BRANCH  15  17
HETATM   17  C   UNK N   1      27.560  16.762   4.589  0.00  0.00     0.026 C 
BRANCH  17  18
HETATM   18  C   UNK N   1      26.621  17.927   4.347  0.00  0.00     0.032 C 
BRANCH  18  19
HETATM   19  C   UNK N   1      27.303  19.135   3.691  0.00  0.00     0.272 C 
BRANCH  19  20
HETATM   20  N   UNK N   1      26.541  20.375   3.896  0.00  0.00     0.087 N 
BRANCH  20  21
HETATM   21  C   UNK N   1      25.880  20.330   5.207  0.00  0.00     0.268 C 
HETATM   22  C   UNK N   1      26.560  21.271   6.184  0.00  0.00     0.037 C 
ENDBRANCH  20  21
BRANCH  20  23
HETATM   23  C   UNK N   1      25.611  20.492   2.762  0.00  0.00     0.268 C 
HETATM   24  C   UNK N   1      24.135  20.589   3.128  0.00  0.00     0.037 C 
ENDBRANCH  20  23
ENDBRANCH  19  20
ENDBRANCH  18  19
ENDBRANCH  17  18
ENDBRANCH  15  17
ENDBRANCH  13  15
ENDBRANCH   4  13
TORSDOF 8
ENDMDL
MODEL 8
REMARK VINA RESULT:      -4.8     21.815     25.756
REMARK  8 active torsions:
REMARK  status: ('A' for Active; 'I' for Inactive)
REMARK    1  A    between atoms: N_2  and  C_9 
REMARK    2  A    between atoms: N_2  and  C_11 
REMARK    3  A    between atoms: N_2  and  C_12 
REMARK    4  A    between atoms: N_3  and  C_8 
REMARK    5  A    between atoms: N_3  and  C_13 
REMARK    6  A    between atoms: C_6  and  C_7 
REMARK    7  A    between atoms: C_6  and  C_8 
REMARK    8  A    between atoms: C_7  and  C_9 
ROOT
HETATM    1 Cl   UNK N   1      34.638   9.546  17.854  0.00  0.00    -0.084 Cl
HETATM    2  N   UNK N   1      36.568  13.766  15.707  0.00  0.00    -0.365 N 
ATOM      3  HN  UNK N   1      37.049  13.931  16.591  1.00  0.00     0.165 HD
HETATM    4  C   UNK N   1      35.263  13.325  13.303  0.00  0.00     0.042 A 
HETATM    5  C   UNK N   1      35.089  12.429  14.366  0.00  0.00     0.017 A 
HETATM    6  C   UNK N   1      36.101  14.431  13.461  0.00  0.00     0.047 A 
HETATM    7  C   UNK N   1      35.769  12.674  15.580  0.00  0.00     0.046 A 
HETATM    8  C   UNK N   1      34.287  11.288  14.236  0.00  0.00     0.018 A 
HETATM    9  C   UNK N   1      36.742  14.644  14.681  0.00  0.00     0.090 A 
HETATM   10  C   UNK N   1      35.629  11.782  16.646  0.00  0.00     0.054 A 
HETATM   11  C   UNK N   1      34.152  10.402  15.308  0.00  0.00     0.025 A 
HETATM   12  C   UNK N   1      34.821  10.650  16.511  0.00  0.00     0.036 A 
ENDROOT
BRANCH   4  13
HETATM   13  N   UNK N   1      34.687  13.063  12.046  0.00  0.00    -0.385 N 
HETATM   14  H   UNK N   1      33.807  12.629  11.964  0.00  0.00     0.160 HD
BRANCH  13  15
HETATM   15  C   UNK N   1      35.438  13.455  10.889  0.00  0.00     0.077 C 
HETATM   16  C   UNK N   1      34.683  14.364   9.935  0.00  0.00     0.032 C 
BRANCH  15  17
HETATM   17  C   UNK N   1      36.346  12.347  10.360  0.00  0.00     0.026 C 
BRANCH  17  18
HETATM   18  C   UNK N   1      36.046  10.964  10.904  0.00  0.00     0.032 C 
BRANCH  18  19
HETATM   19  C   UNK N   1      37.209  10.354  11.696  0.00  0.00     0.272 C 
BRANCH  19  20
HETATM   20  N   UNK N   1      36.738   9.488  12.786  0.00  0.00     0.087 N 
BRANCH  20  21
HETATM   21  C   UNK N   1      37.778   9.394  13.820  0.00  0.00     0.268 C 
HETATM   22  C   UNK N   1      38.318  10.768  14.165  0.00  0.00     0.037 C 
ENDBRANCH  20  21
BRANCH  20  23
HETATM   23  C   UNK N   1      36.381   8.197  12.177  0.00  0.00     0.268 C 
HETATM   24  C   UNK N   1      34.889   7.893  12.103  0.00  0.00     0.037 C 
ENDBRANCH  20  23
ENDBRANCH  19  20
ENDBRANCH  18  19
ENDBRANCH  17  18
ENDBRANCH  15  17
ENDBRANCH  13  15
ENDBRANCH   4  13
TORSDOF 8
ENDMDL
MODEL 9
REMARK VINA RESULT:      -4.8     26.391     30.314
REMARK  8 active torsions:
REMARK  status: ('A' for Active; 'I' for Inactive)
REMARK    1  A    between atoms: N_2  and  C_9 
REMARK    2  A    between atoms: N_2  and  C_11 
REMARK    3  A    between atoms: N_2  and  C_12 
REMARK    4  A    between atoms: N_3  and  C_8 
REMARK    5  A    between atoms: N_3  and  C_13 
REMARK    6  A    between atoms: C_6  and  C_7 
REMARK    7  A    between atoms: C_6  and  C_8 
REMARK    8  A    between atoms: C_7  and  C_9 
ROOT
HETATM    1 Cl   UNK N   1      34.391  11.063  13.000  0.00  0.00    -0.084 Cl
HETATM    2  N   UNK N   1      35.067  13.475  17.459  0.00  0.00    -0.365 N 
ATOM      3  HN  UNK N   1      34.984  14.348  16.938  1.00  0.00     0.165 HD
HETATM    4  C   UNK N   1      35.296  11.108  18.879  0.00  0.00     0.042 A 
HETATM    5  C   UNK N   1      35.097  11.072  17.493  0.00  0.00     0.017 A 
HETATM    6  C   UNK N   1      35.369  12.337  19.538  0.00  0.00     0.047 A 
HETATM    7  C   UNK N   1      34.980  12.293  16.792  0.00  0.00     0.046 A 
HETATM    8  C   UNK N   1      34.982   9.860  16.802  0.00  0.00     0.018 A 
HETATM    9  C   UNK N   1      35.262  13.519  18.806  0.00  0.00     0.090 A 
HETATM   10  C   UNK N   1      34.758  12.283  15.413  0.00  0.00     0.054 A 
HETATM   11  C   UNK N   1      34.762   9.859  15.422  0.00  0.00     0.025 A 
HETATM   12  C   UNK N   1      34.652  11.069  14.730  0.00  0.00     0.036 A 
ENDROOT
BRANCH   4  13
HETATM   13  N   UNK N   1      35.315   9.916  19.629  0.00  0.00    -0.385 N 
HETATM   14  H   UNK N   1      34.653   9.203  19.479  0.00  0.00     0.160 HD
BRANCH  13  15
HETATM   15  C   UNK N   1      36.342   9.785  20.622  0.00  0.00     0.077 C 
HETATM   16  C   UNK N   1      37.682   9.323  20.074  0.00  0.00     0.032 C 
BRANCH  15  17
HETATM   17  C   UNK N   1      35.821   9.264  21.958  0.00  0.00     0.026 C 
BRANCH  17  18
HETATM   18  C   UNK N   1      35.080   7.944  21.881  0.00  0.00     0.032 C 
BRANCH  18  19
HETATM   19  C   UNK N   1      33.675   7.996  22.495  0.00  0.00     0.272 C 
BRANCH  19  20
HETATM   20  N   UNK N   1      32.708   8.646  21.599  0.00  0.00     0.087 N 
BRANCH  20  21
HETATM   21  C   UNK N   1      32.389   9.984  22.114  0.00  0.00     0.268 C 
HETATM   22  C   UNK N   1      32.268   9.964  23.625  0.00  0.00     0.037 C 
ENDBRANCH  20  21
BRANCH  20  23
HETATM   23  C   UNK N   1      31.546   7.748  21.506  0.00  0.00     0.268 C 
HETATM   24  C   UNK N   1      30.694   7.900  20.252  0.00  0.00     0.037 C 
ENDBRANCH  20  23
ENDBRANCH  19  20
ENDBRANCH  18  19
ENDBRANCH  17  18
ENDBRANCH  15  17
ENDBRANCH  13  15
ENDBRANCH   4  13
TORSDOF 8
ENDMDL
