REMARK  5 active torsions:
REMARK  status: ('A' for Active; 'I' for Inactive)
REMARK    1  A    between atoms: C_1  and  C_2 
REMARK    2  A    between atoms: C_1  and  C_10 
REMARK    3  A    between atoms: C_2  and  C_3 
REMARK    4  A    between atoms: C_3  and  C_4 
REMARK    5  A    between atoms: C_10  and  O_12 
ROOT
HETATM    1  C   UNK N   1       0.130   1.111   0.000  0.00  0.00     0.039 C 
ENDROOT
BRANCH   1   2
HETATM    2  C   UNK N   1       1.382   0.247   0.000  0.00  0.00     0.015 C 
BRANCH   2   3
HETATM    3  C   UNK N   1       2.652   1.074   0.000  0.00  0.00     0.110 C 
BRANCH   3   4
HETATM    4  C   UNK N   1       3.858   0.180  -0.000  0.00  0.00     0.139 C 
HETATM    5  O   UNK N   1       4.972   0.672  -0.000  0.00  0.00    -0.650 OA
BRANCH   4   6
HETATM    6  O   UNK N   1       3.725  -1.164   0.000  0.00  0.00    -0.776 OA
HETATM    7  H   UNK N   1       2.871  -1.550   0.000  0.00  0.00     0.167 HD
ENDBRANCH   4   6
ENDBRANCH   3   4
ENDBRANCH   2   3
ENDBRANCH   1   2
BRANCH   1   8
HETATM    8  C   UNK N   1      -1.123   0.278   0.000  0.00  0.00    -0.058 A 
HETATM    9  C   UNK N   1      -1.071  -1.128   0.000  0.00  0.00     0.007 A 
HETATM   10  C   UNK N   1      -2.247  -1.881   0.000  0.00  0.00     0.001 A 
HETATM   11  C   UNK N   1      -3.485  -1.236  -0.000  0.00  0.00     0.000 A 
HETATM   12  C   UNK N   1      -3.546   0.161  -0.000  0.00  0.00     0.001 A 
HETATM   13  C   UNK N   1      -2.368   0.916  -0.000  0.00  0.00     0.007 A 
ENDBRANCH   1   8
TORSDOF 5
