MODEL 1
REMARK VINA RESULT:      -5.2      0.000      0.000
REMARK  5 active torsions:
REMARK  status: ('A' for Active; 'I' for Inactive)
REMARK    1  A    between atoms: C_1  and  C_2 
REMARK    2  A    between atoms: C_1  and  C_10 
REMARK    3  A    between atoms: C_2  and  C_3 
REMARK    4  A    between atoms: C_3  and  C_4 
REMARK    5  A    between atoms: C_10  and  O_12 
ROOT
HETATM    1  C   UNK N   1      27.292  24.323  -3.230  0.00  0.00     0.039 C 
ENDROOT
BRANCH   1   2
HETATM    2  C   UNK N   1      28.429  23.839  -4.118  0.00  0.00     0.015 C 
BRANCH   2   3
HETATM    3  C   UNK N   1      29.788  24.059  -3.484  0.00  0.00     0.110 C 
BRANCH   3   4
HETATM    4  C   UNK N   1      30.182  22.864  -2.666  0.00  0.00     0.139 C 
HETATM    5  O   UNK N   1      30.244  21.768  -3.193  0.00  0.00    -0.650 OA
BRANCH   4   6
HETATM    6  O   UNK N   1      30.469  22.987  -1.352  0.00  0.00    -0.776 OA
HETATM    7  H   UNK N   1      30.541  22.223  -0.815  0.00  0.00     0.167 HD
ENDBRANCH   4   6
ENDBRANCH   3   4
ENDBRANCH   2   3
ENDBRANCH   1   2
BRANCH   1   8
HETATM    8  C   UNK N   1      26.507  25.429  -3.880  0.00  0.00    -0.058 A 
HETATM    9  C   UNK N   1      26.418  26.707  -3.299  0.00  0.00     0.007 A 
HETATM   10  C   UNK N   1      25.683  27.719  -3.921  0.00  0.00     0.001 A 
HETATM   11  C   UNK N   1      25.032  27.464  -5.129  0.00  0.00     0.000 A 
HETATM   12  C   UNK N   1      25.116  26.196  -5.714  0.00  0.00     0.001 A 
HETATM   13  C   UNK N   1      25.851  25.182  -5.091  0.00  0.00     0.007 A 
ENDBRANCH   1   8
TORSDOF 5
ENDMDL
MODEL 2
REMARK VINA RESULT:      -5.2     13.905     14.668
REMARK  5 active torsions:
REMARK  status: ('A' for Active; 'I' for Inactive)
REMARK    1  A    between atoms: C_1  and  C_2 
REMARK    2  A    between atoms: C_1  and  C_10 
REMARK    3  A    between atoms: C_2  and  C_3 
REMARK    4  A    between atoms: C_3  and  C_4 
REMARK    5  A    between atoms: C_10  and  O_12 
ROOT
HETATM    1  C   UNK N   1      31.858  16.555   7.093  0.00  0.00     0.039 C 
ENDROOT
BRANCH   1   2
HETATM    2  C   UNK N   1      32.898  17.568   6.640  0.00  0.00     0.015 C 
BRANCH   2   3
HETATM    3  C   UNK N   1      34.283  17.243   7.163  0.00  0.00     0.110 C 
BRANCH   3   4
HETATM    4  C   UNK N   1      34.553  17.997   8.433  0.00  0.00     0.139 C 
HETATM    5  O   UNK N   1      35.052  19.107   8.380  0.00  0.00    -0.650 OA
BRANCH   4   6
HETATM    6  O   UNK N   1      34.250  17.461   9.635  0.00  0.00    -0.776 OA
HETATM    7  H   UNK N   1      34.905  17.408  10.303  0.00  0.00     0.167 HD
ENDBRANCH   4   6
ENDBRANCH   3   4
ENDBRANCH   2   3
ENDBRANCH   1   2
BRANCH   1   8
HETATM    8  C   UNK N   1      30.663  17.223   7.717  0.00  0.00    -0.058 A 
HETATM    9  C   UNK N   1      29.374  17.087   7.167  0.00  0.00     0.007 A 
HETATM   10  C   UNK N   1      28.279  17.717   7.763  0.00  0.00     0.001 A 
HETATM   11  C   UNK N   1      28.462  18.487   8.913  0.00  0.00     0.000 A 
HETATM   12  C   UNK N   1      29.739  18.627   9.466  0.00  0.00     0.001 A 
HETATM   13  C   UNK N   1      30.836  17.997   8.869  0.00  0.00     0.007 A 
ENDBRANCH   1   8
TORSDOF 5
ENDMDL
MODEL 3
REMARK VINA RESULT:      -5.1     22.522     25.067
REMARK  5 active torsions:
REMARK  status: ('A' for Active; 'I' for Inactive)
REMARK    1  A    between atoms: C_1  and  C_2 
REMARK    2  A    between atoms: C_1  and  C_10 
REMARK    3  A    between atoms: C_2  and  C_3 
REMARK    4  A    between atoms: C_3  and  C_4 
REMARK    5  A    between atoms: C_10  and  O_12 
ROOT
HETATM    1  C   UNK N   1      35.006  10.466  15.664  0.00  0.00     0.039 C 
ENDROOT
BRANCH   1   2
HETATM    2  C   UNK N   1      33.735  10.701  14.862  0.00  0.00     0.015 C 
BRANCH   2   3
HETATM    3  C   UNK N   1      33.965  10.578  13.369  0.00  0.00     0.110 C 
BRANCH   3   4
HETATM    4  C   UNK N   1      34.827  11.705  12.879  0.00  0.00     0.139 C 
HETATM    5  O   UNK N   1      35.899  11.459  12.355  0.00  0.00    -0.650 OA
BRANCH   4   6
HETATM    6  O   UNK N   1      34.430  12.989  13.010  0.00  0.00    -0.776 OA
HETATM    7  H   UNK N   1      33.818  13.224  13.679  0.00  0.00     0.167 HD
ENDBRANCH   4   6
ENDBRANCH   3   4
ENDBRANCH   2   3
ENDBRANCH   1   2
BRANCH   1   8
HETATM    8  C   UNK N   1      35.097  11.389  16.849  0.00  0.00    -0.058 A 
HETATM    9  C   UNK N   1      35.032  12.786  16.700  0.00  0.00     0.007 A 
HETATM   10  C   UNK N   1      35.118  13.623  17.814  0.00  0.00     0.001 A 
HETATM   11  C   UNK N   1      35.269  13.071  19.088  0.00  0.00     0.000 A 
HETATM   12  C   UNK N   1      35.334  11.684  19.245  0.00  0.00     0.001 A 
HETATM   13  C   UNK N   1      35.248  10.844  18.129  0.00  0.00     0.007 A 
ENDBRANCH   1   8
TORSDOF 5
ENDMDL
MODEL 4
REMARK VINA RESULT:      -5.0      4.127      4.937
REMARK  5 active torsions:
REMARK  status: ('A' for Active; 'I' for Inactive)
REMARK    1  A    between atoms: C_1  and  C_2 
REMARK    2  A    between atoms: C_1  and  C_10 
REMARK    3  A    between atoms: C_2  and  C_3 
REMARK    4  A    between atoms: C_3  and  C_4 
REMARK    5  A    between atoms: C_10  and  O_12 
ROOT
HETATM    1  C   UNK N   1      26.121  23.864  -5.305  0.00  0.00     0.039 C 
ENDROOT
BRANCH   1   2
HETATM    2  C   UNK N   1      25.890  23.650  -6.793  0.00  0.00     0.015 C 
BRANCH   2   3
HETATM    3  C   UNK N   1      25.869  22.182  -7.167  0.00  0.00     0.110 C 
BRANCH   3   4
HETATM    4  C   UNK N   1      24.875  21.936  -8.265  0.00  0.00     0.139 C 
HETATM    5  O   UNK N   1      25.269  21.643  -9.379  0.00  0.00    -0.650 OA
BRANCH   4   6
HETATM    6  O   UNK N   1      23.548  22.035  -8.034  0.00  0.00    -0.776 OA
HETATM    7  H   UNK N   1      23.116  22.861  -8.133  0.00  0.00     0.167 HD
ENDBRANCH   4   6
ENDBRANCH   3   4
ENDBRANCH   2   3
ENDBRANCH   1   2
BRANCH   1   8
HETATM    8  C   UNK N   1      25.907  25.300  -4.908  0.00  0.00    -0.058 A 
HETATM    9  C   UNK N   1      25.196  26.192  -5.731  0.00  0.00     0.007 A 
HETATM   10  C   UNK N   1      25.009  27.520  -5.342  0.00  0.00     0.001 A 
HETATM   11  C   UNK N   1      25.530  27.968  -4.127  0.00  0.00     0.000 A 
HETATM   12  C   UNK N   1      26.238  27.088  -3.303  0.00  0.00     0.001 A 
HETATM   13  C   UNK N   1      26.426  25.757  -3.692  0.00  0.00     0.007 A 
ENDBRANCH   1   8
TORSDOF 5
ENDMDL
MODEL 5
REMARK VINA RESULT:      -5.0      2.328      3.470
REMARK  5 active torsions:
REMARK  status: ('A' for Active; 'I' for Inactive)
REMARK    1  A    between atoms: C_1  and  C_2 
REMARK    2  A    between atoms: C_1  and  C_10 
REMARK    3  A    between atoms: C_2  and  C_3 
REMARK    4  A    between atoms: C_3  and  C_4 
REMARK    5  A    between atoms: C_10  and  O_12 
ROOT
HETATM    1  C   UNK N   1      25.103  26.434  -5.833  0.00  0.00     0.039 C 
ENDROOT
BRANCH   1   2
HETATM    2  C   UNK N   1      25.979  25.199  -5.976  0.00  0.00     0.015 C 
BRANCH   2   3
HETATM    3  C   UNK N   1      25.837  24.252  -4.801  0.00  0.00     0.110 C 
BRANCH   3   4
HETATM    4  C   UNK N   1      26.956  24.462  -3.823  0.00  0.00     0.139 C 
HETATM    5  O   UNK N   1      27.954  25.067  -4.170  0.00  0.00    -0.650 OA
BRANCH   4   6
HETATM    6  O   UNK N   1      26.871  23.989  -2.561  0.00  0.00    -0.776 OA
HETATM    7  H   UNK N   1      26.768  24.583  -1.843  0.00  0.00     0.167 HD
ENDBRANCH   4   6
ENDBRANCH   3   4
ENDBRANCH   2   3
ENDBRANCH   1   2
BRANCH   1   8
HETATM    8  C   UNK N   1      25.896  27.631  -5.384  0.00  0.00    -0.058 A 
HETATM    9  C   UNK N   1      25.606  28.295  -4.178  0.00  0.00     0.007 A 
HETATM   10  C   UNK N   1      26.355  29.404  -3.781  0.00  0.00     0.001 A 
HETATM   11  C   UNK N   1      27.400  29.861  -4.587  0.00  0.00     0.000 A 
HETATM   12  C   UNK N   1      27.695  29.208  -5.787  0.00  0.00     0.001 A 
HETATM   13  C   UNK N   1      26.945  28.096  -6.185  0.00  0.00     0.007 A 
ENDBRANCH   1   8
TORSDOF 5
ENDMDL
MODEL 6
REMARK VINA RESULT:      -5.0     17.490     19.159
REMARK  5 active torsions:
REMARK  status: ('A' for Active; 'I' for Inactive)
REMARK    1  A    between atoms: C_1  and  C_2 
REMARK    2  A    between atoms: C_1  and  C_10 
REMARK    3  A    between atoms: C_2  and  C_3 
REMARK    4  A    between atoms: C_3  and  C_4 
REMARK    5  A    between atoms: C_10  and  O_12 
ROOT
HETATM    1  C   UNK N   1      21.120  13.252   8.922  0.00  0.00     0.039 C 
ENDROOT
BRANCH   1   2
HETATM    2  C   UNK N   1      20.425  14.494   9.458  0.00  0.00     0.015 C 
BRANCH   2   3
HETATM    3  C   UNK N   1      20.789  15.740   8.677  0.00  0.00     0.110 C 
BRANCH   3   4
HETATM    4  C   UNK N   1      19.697  16.765   8.788  0.00  0.00     0.139 C 
HETATM    5  O   UNK N   1      19.986  17.939   8.928  0.00  0.00    -0.650 OA
BRANCH   4   6
HETATM    6  O   UNK N   1      18.397  16.402   8.735  0.00  0.00    -0.776 OA
HETATM    7  H   UNK N   1      17.810  16.848   8.157  0.00  0.00     0.167 HD
ENDBRANCH   4   6
ENDBRANCH   3   4
ENDBRANCH   2   3
ENDBRANCH   1   2
BRANCH   1   8
HETATM    8  C   UNK N   1      22.267  12.831   9.800  0.00  0.00    -0.058 A 
HETATM    9  C   UNK N   1      23.601  12.930   9.365  0.00  0.00     0.007 A 
HETATM   10  C   UNK N   1      24.650  12.533  10.198  0.00  0.00     0.001 A 
HETATM   11  C   UNK N   1      24.375  12.035  11.472  0.00  0.00     0.000 A 
HETATM   12  C   UNK N   1      23.051  11.933  11.913  0.00  0.00     0.001 A 
HETATM   13  C   UNK N   1      22.000  12.330  11.079  0.00  0.00     0.007 A 
ENDBRANCH   1   8
TORSDOF 5
ENDMDL
MODEL 7
REMARK VINA RESULT:      -5.0     22.001     25.048
REMARK  5 active torsions:
REMARK  status: ('A' for Active; 'I' for Inactive)
REMARK    1  A    between atoms: C_1  and  C_2 
REMARK    2  A    between atoms: C_1  and  C_10 
REMARK    3  A    between atoms: C_2  and  C_3 
REMARK    4  A    between atoms: C_3  and  C_4 
REMARK    5  A    between atoms: C_10  and  O_12 
ROOT
HETATM    1  C   UNK N   1      35.361  13.407  15.855  0.00  0.00     0.039 C 
ENDROOT
BRANCH   1   2
HETATM    2  C   UNK N   1      36.693  13.289  15.130  0.00  0.00     0.015 C 
BRANCH   2   3
HETATM    3  C   UNK N   1      36.524  12.917  13.671  0.00  0.00     0.110 C 
BRANCH   3   4
HETATM    4  C   UNK N   1      35.671  13.933  12.968  0.00  0.00     0.139 C 
HETATM    5  O   UNK N   1      36.085  15.069  12.821  0.00  0.00    -0.650 OA
BRANCH   4   6
HETATM    6  O   UNK N   1      34.448  13.606  12.496  0.00  0.00    -0.776 OA
HETATM    7  H   UNK N   1      34.356  12.902  11.884  0.00  0.00     0.167 HD
ENDBRANCH   4   6
ENDBRANCH   3   4
ENDBRANCH   2   3
ENDBRANCH   1   2
BRANCH   1   8
HETATM    8  C   UNK N   1      35.383  12.701  17.183  0.00  0.00    -0.058 A 
HETATM    9  C   UNK N   1      35.177  13.397  18.389  0.00  0.00     0.007 A 
HETATM   10  C   UNK N   1      35.202  12.721  19.610  0.00  0.00     0.001 A 
HETATM   11  C   UNK N   1      35.433  11.344  19.638  0.00  0.00     0.000 A 
HETATM   12  C   UNK N   1      35.638  10.645  18.445  0.00  0.00     0.001 A 
HETATM   13  C   UNK N   1      35.613  11.322  17.220  0.00  0.00     0.007 A 
ENDBRANCH   1   8
TORSDOF 5
ENDMDL
MODEL 8
REMARK VINA RESULT:      -4.9     11.765     13.572
REMARK  5 active torsions:
REMARK  status: ('A' for Active; 'I' for Inactive)
REMARK    1  A    between atoms: C_1  and  C_2 
REMARK    2  A    between atoms: C_1  and  C_10 
REMARK    3  A    between atoms: C_2  and  C_3 
REMARK    4  A    between atoms: C_3  and  C_4 
REMARK    5  A    between atoms: C_10  and  O_12 
ROOT
HETATM    1  C   UNK N   1      31.150  16.835   7.610  0.00  0.00     0.039 C 
ENDROOT
BRANCH   1   2
HETATM    2  C   UNK N   1      31.957  17.822   8.439  0.00  0.00     0.015 C 
BRANCH   2   3
HETATM    3  C   UNK N   1      33.383  17.359   8.659  0.00  0.00     0.110 C 
BRANCH   3   4
HETATM    4  C   UNK N   1      34.335  18.198   7.857  0.00  0.00     0.139 C 
HETATM    5  O   UNK N   1      34.334  18.116   6.642  0.00  0.00    -0.650 OA
BRANCH   4   6
HETATM    6  O   UNK N   1      35.195  19.044   8.465  0.00  0.00    -0.776 OA
HETATM    7  H   UNK N   1      36.117  18.954   8.327  0.00  0.00     0.167 HD
ENDBRANCH   4   6
ENDBRANCH   3   4
ENDBRANCH   2   3
ENDBRANCH   1   2
BRANCH   1   8
HETATM    8  C   UNK N   1      29.980  17.497   6.935  0.00  0.00    -0.058 A 
HETATM    9  C   UNK N   1      29.786  17.408   5.545  0.00  0.00     0.007 A 
HETATM   10  C   UNK N   1      28.692  18.031   4.940  0.00  0.00     0.001 A 
HETATM   11  C   UNK N   1      27.783  18.749   5.719  0.00  0.00     0.000 A 
HETATM   12  C   UNK N   1      27.968  18.843   7.102  0.00  0.00     0.001 A 
HETATM   13  C   UNK N   1      29.063  18.218   7.708  0.00  0.00     0.007 A 
ENDBRANCH   1   8
TORSDOF 5
ENDMDL
MODEL 9
REMARK VINA RESULT:      -4.8     17.238     18.273
REMARK  5 active torsions:
REMARK  status: ('A' for Active; 'I' for Inactive)
REMARK    1  A    between atoms: C_1  and  C_2 
REMARK    2  A    between atoms: C_1  and  C_10 
REMARK    3  A    between atoms: C_2  and  C_3 
REMARK    4  A    between atoms: C_3  and  C_4 
REMARK    5  A    between atoms: C_10  and  O_12 
ROOT
HETATM    1  C   UNK N   1      21.629  12.727   8.796  0.00  0.00     0.039 C 
ENDROOT
BRANCH   1   2
HETATM    2  C   UNK N   1      21.837  12.542  10.291  0.00  0.00     0.015 C 
BRANCH   2   3
HETATM    3  C   UNK N   1      22.923  11.531  10.601  0.00  0.00     0.110 C 
BRANCH   3   4
HETATM    4  C   UNK N   1      23.736  11.981  11.779  0.00  0.00     0.139 C 
HETATM    5  O   UNK N   1      23.232  12.000  12.888  0.00  0.00    -0.650 OA
BRANCH   4   6
HETATM    6  O   UNK N   1      25.022  12.367  11.628  0.00  0.00    -0.776 OA
HETATM    7  H   UNK N   1      25.690  11.990  12.166  0.00  0.00     0.167 HD
ENDBRANCH   4   6
ENDBRANCH   3   4
ENDBRANCH   2   3
ENDBRANCH   1   2
BRANCH   1   8
HETATM    8  C   UNK N   1      21.241  14.140   8.457  0.00  0.00    -0.058 A 
HETATM    9  C   UNK N   1      20.239  14.820   9.173  0.00  0.00     0.007 A 
HETATM   10  C   UNK N   1      19.896  16.132   8.840  0.00  0.00     0.001 A 
HETATM   11  C   UNK N   1      20.550  16.776   7.790  0.00  0.00     0.000 A 
HETATM   12  C   UNK N   1      21.548  16.109   7.072  0.00  0.00     0.001 A 
HETATM   13  C   UNK N   1      21.892  14.794   7.405  0.00  0.00     0.007 A 
ENDBRANCH   1   8
TORSDOF 5
ENDMDL
