REMARK  0 active torsions:
REMARK  status: ('A' for Active; 'I' for Inactive)
ROOT
HETATM    1  N   UNK N   1       0.436  -1.368   0.000  0.00  0.00    -0.159 N 
HETATM    2  C   UNK N   1      -0.884  -0.929   0.000  0.00  0.00     0.676 A 
HETATM    3  N   UNK N   1      -1.901  -1.711  -0.000  0.00  0.00    -0.234 N 
ATOM      4  HN  UNK N   1      -1.767  -2.722  -0.000  1.00  0.00     0.174 HD
HETATM    5  N   UNK N   1      -0.961   0.467   0.000  0.00  0.00    -0.214 N 
HETATM    6  C   UNK N   1      -2.179   1.231  -0.000  0.00  0.00     0.169 C 
HETATM    7  C   UNK N   1       0.374   1.031  -0.000  0.00  0.00     0.244 A 
HETATM    8  C   UNK N   1       1.193  -0.252   0.000  0.00  0.00     0.254 A 
HETATM    9  O   UNK N   1       2.412  -0.287  -0.000  0.00  0.00    -0.271 OA
HETATM   10  H   UNK N   1       0.752  -2.300   0.000  0.00  0.00     0.187 HD
HETATM   11  H   UNK N   1      -2.811  -1.334  -0.000  0.00  0.00     0.174 HD
ENDROOT
TORSDOF 0
