MODEL 1
REMARK VINA RESULT:      -4.2      0.000      0.000
REMARK  0 active torsions:
REMARK  status: ('A' for Active; 'I' for Inactive)
ROOT
HETATM    1  N   UNK N   1      20.280  19.052   0.985  0.00  0.00    -0.159 N 
HETATM    2  C   UNK N   1      20.287  18.506   2.265  0.00  0.00     0.676 A 
HETATM    3  N   UNK N   1      19.696  17.413   2.582  0.00  0.00    -0.234 N 
ATOM      4  HN  UNK N   1      19.181  16.887   1.876  1.00  0.00     0.174 HD
HETATM    5  N   UNK N   1      21.016  19.298   3.157  0.00  0.00    -0.214 N 
HETATM    6  C   UNK N   1      21.213  19.010   4.552  0.00  0.00     0.169 C 
HETATM    7  C   UNK N   1      21.546  20.455   2.464  0.00  0.00     0.244 A 
HETATM    8  C   UNK N   1      21.004  20.186   1.067  0.00  0.00     0.254 A 
HETATM    9  O   UNK N   1      21.195  20.913   0.106  0.00  0.00    -0.271 OA
HETATM   10  H   UNK N   1      19.839  18.685   0.186  0.00  0.00     0.187 HD
HETATM   11  H   UNK N   1      19.740  17.081   3.509  0.00  0.00     0.174 HD
ENDROOT
TORSDOF 0
ENDMDL
MODEL 2
REMARK VINA RESULT:      -4.1     13.850     14.671
REMARK  0 active torsions:
REMARK  status: ('A' for Active; 'I' for Inactive)
ROOT
HETATM    1  N   UNK N   1      34.187  17.450   9.431  0.00  0.00    -0.159 N 
HETATM    2  C   UNK N   1      33.360  16.446   8.940  0.00  0.00     0.676 A 
HETATM    3  N   UNK N   1      32.826  15.535   9.669  0.00  0.00    -0.234 N 
ATOM      4  HN  UNK N   1      32.999  15.519  10.673  1.00  0.00     0.174 HD
HETATM    5  N   UNK N   1      33.185  16.555   7.557  0.00  0.00    -0.214 N 
HETATM    6  C   UNK N   1      32.389  15.671   6.749  0.00  0.00     0.169 C 
HETATM    7  C   UNK N   1      33.929  17.694   7.058  0.00  0.00     0.244 A 
HETATM    8  C   UNK N   1      34.535  18.194   8.361  0.00  0.00     0.254 A 
HETATM    9  O   UNK N   1      35.265  19.167   8.449  0.00  0.00    -0.271 OA
HETATM   10  H   UNK N   1      34.461  17.590  10.366  0.00  0.00     0.187 HD
HETATM   11  H   UNK N   1      32.248  14.851   9.256  0.00  0.00     0.174 HD
ENDROOT
TORSDOF 0
ENDMDL
MODEL 3
REMARK VINA RESULT:      -4.0      9.765     10.660
REMARK  0 active torsions:
REMARK  status: ('A' for Active; 'I' for Inactive)
ROOT
HETATM    1  N   UNK N   1      20.788  12.519  10.952  0.00  0.00    -0.159 N 
HETATM    2  C   UNK N   1      22.153  12.251  10.914  0.00  0.00     0.676 A 
HETATM    3  N   UNK N   1      22.727  11.347  11.620  0.00  0.00    -0.234 N 
ATOM      4  HN  UNK N   1      22.177  10.773  12.259  1.00  0.00     0.174 HD
HETATM    5  N   UNK N   1      22.816  13.088  10.012  0.00  0.00    -0.214 N 
HETATM    6  C   UNK N   1      24.227  13.064   9.741  0.00  0.00     0.169 C 
HETATM    7  C   UNK N   1      21.865  13.987   9.388  0.00  0.00     0.244 A 
HETATM    8  C   UNK N   1      20.588  13.524  10.075  0.00  0.00     0.254 A 
HETATM    9  O   UNK N   1      19.485  14.002   9.867  0.00  0.00    -0.271 OA
HETATM   10  H   UNK N   1      20.109  12.068  11.504  0.00  0.00     0.187 HD
HETATM   11  H   UNK N   1      23.699  11.209  11.545  0.00  0.00     0.174 HD
ENDROOT
TORSDOF 0
ENDMDL
MODEL 4
REMARK VINA RESULT:      -3.7     21.620     22.301
REMARK  0 active torsions:
REMARK  status: ('A' for Active; 'I' for Inactive)
ROOT
HETATM    1  N   UNK N   1      43.210  23.483   3.302  0.00  0.00    -0.159 N 
HETATM    2  C   UNK N   1      42.234  23.053   2.409  0.00  0.00     0.676 A 
HETATM    3  N   UNK N   1      41.605  23.829   1.604  0.00  0.00    -0.234 N 
ATOM      4  HN  UNK N   1      41.810  24.828   1.593  1.00  0.00     0.174 HD
HETATM    5  N   UNK N   1      42.027  21.673   2.500  0.00  0.00    -0.214 N 
HETATM    6  C   UNK N   1      41.087  20.921   1.713  0.00  0.00     0.169 C 
HETATM    7  C   UNK N   1      42.904  21.112   3.508  0.00  0.00     0.244 A 
HETATM    8  C   UNK N   1      43.620  22.378   3.957  0.00  0.00     0.254 A 
HETATM    9  O   UNK N   1      44.480  22.409   4.820  0.00  0.00    -0.271 OA
HETATM   10  H   UNK N   1      43.534  24.404   3.429  0.00  0.00     0.187 HD
HETATM   11  H   UNK N   1      40.924  23.459   0.996  0.00  0.00     0.174 HD
ENDROOT
TORSDOF 0
ENDMDL
MODEL 5
REMARK VINA RESULT:      -3.7     19.716     20.589
REMARK  0 active torsions:
REMARK  status: ('A' for Active; 'I' for Inactive)
ROOT
HETATM    1  N   UNK N   1      36.731  14.864  14.014  0.00  0.00    -0.159 N 
HETATM    2  C   UNK N   1      35.800  13.924  13.584  0.00  0.00     0.676 A 
HETATM    3  N   UNK N   1      35.343  13.861  12.387  0.00  0.00    -0.234 N 
ATOM      4  HN  UNK N   1      35.662  14.527  11.683  1.00  0.00     0.174 HD
HETATM    5  N   UNK N   1      35.427  13.060  14.618  0.00  0.00    -0.214 N 
HETATM    6  C   UNK N   1      34.485  11.980  14.499  0.00  0.00     0.169 C 
HETATM    7  C   UNK N   1      36.135  13.416  15.832  0.00  0.00     0.244 A 
HETATM    8  C   UNK N   1      36.947  14.596  15.317  0.00  0.00     0.254 A 
HETATM    9  O   UNK N   1      37.720  15.245  16.001  0.00  0.00    -0.271 OA
HETATM   10  H   UNK N   1      37.146  15.577  13.477  0.00  0.00     0.187 HD
HETATM   11  H   UNK N   1      34.684  13.169  12.148  0.00  0.00     0.174 HD
ENDROOT
TORSDOF 0
ENDMDL
MODEL 6
REMARK VINA RESULT:      -3.6     22.943     23.631
REMARK  0 active torsions:
REMARK  status: ('A' for Active; 'I' for Inactive)
ROOT
HETATM    1  N   UNK N   1      45.116  22.129   4.005  0.00  0.00    -0.159 N 
HETATM    2  C   UNK N   1      43.914  22.721   3.630  0.00  0.00     0.676 A 
HETATM    3  N   UNK N   1      43.598  23.935   3.898  0.00  0.00    -0.234 N 
ATOM      4  HN  UNK N   1      44.245  24.529   4.416  1.00  0.00     0.174 HD
HETATM    5  N   UNK N   1      43.099  21.828   2.928  0.00  0.00    -0.214 N 
HETATM    6  C   UNK N   1      41.795  22.132   2.404  0.00  0.00     0.169 C 
HETATM    7  C   UNK N   1      43.766  20.548   2.807  0.00  0.00     0.244 A 
HETATM    8  C   UNK N   1      45.061  20.864   3.541  0.00  0.00     0.254 A 
HETATM    9  O   UNK N   1      45.969  20.066   3.704  0.00  0.00    -0.271 OA
HETATM   10  H   UNK N   1      45.853  22.546   4.506  0.00  0.00     0.187 HD
HETATM   11  H   UNK N   1      42.729  24.293   3.603  0.00  0.00     0.174 HD
ENDROOT
TORSDOF 0
ENDMDL
MODEL 7
REMARK VINA RESULT:      -3.6     11.750     12.250
REMARK  0 active torsions:
REMARK  status: ('A' for Active; 'I' for Inactive)
ROOT
HETATM    1  N   UNK N   1      31.644  21.305  -2.768  0.00  0.00    -0.159 N 
HETATM    2  C   UNK N   1      31.418  20.726  -4.013  0.00  0.00     0.676 A 
HETATM    3  N   UNK N   1      32.048  19.698  -4.451  0.00  0.00    -0.234 N 
ATOM      4  HN  UNK N   1      32.764  19.254  -3.876  1.00  0.00     0.174 HD
HETATM    5  N   UNK N   1      30.422  21.404  -4.721  0.00  0.00    -0.214 N 
HETATM    6  C   UNK N   1      29.956  21.056  -6.036  0.00  0.00     0.169 C 
HETATM    7  C   UNK N   1      29.928  22.513  -3.931  0.00  0.00     0.244 A 
HETATM    8  C   UNK N   1      30.793  22.347  -2.689  0.00  0.00     0.254 A 
HETATM    9  O   UNK N   1      30.735  23.075  -1.712  0.00  0.00    -0.271 OA
HETATM   10  H   UNK N   1      32.291  21.014  -2.086  0.00  0.00     0.187 HD
HETATM   11  H   UNK N   1      31.839  19.337  -5.344  0.00  0.00     0.174 HD
ENDROOT
TORSDOF 0
ENDMDL
MODEL 8
REMARK VINA RESULT:      -3.5     21.264     21.988
REMARK  0 active torsions:
REMARK  status: ('A' for Active; 'I' for Inactive)
ROOT
HETATM    1  N   UNK N   1      43.157  21.292   3.757  0.00  0.00    -0.159 N 
HETATM    2  C   UNK N   1      42.904  22.560   3.244  0.00  0.00     0.676 A 
HETATM    3  N   UNK N   1      43.526  23.620   3.611  0.00  0.00    -0.234 N 
ATOM      4  HN  UNK N   1      44.257  23.564   4.320  1.00  0.00     0.174 HD
HETATM    5  N   UNK N   1      41.889  22.532   2.283  0.00  0.00    -0.214 N 
HETATM    6  C   UNK N   1      41.393  23.676   1.566  0.00  0.00     0.169 C 
HETATM    7  C   UNK N   1      41.410  21.175   2.116  0.00  0.00     0.244 A 
HETATM    8  C   UNK N   1      42.305  20.463   3.121  0.00  0.00     0.254 A 
HETATM    9  O   UNK N   1      42.268  19.264   3.343  0.00  0.00    -0.271 OA
HETATM   10  H   UNK N   1      43.821  21.050   4.441  0.00  0.00     0.187 HD
HETATM   11  H   UNK N   1      43.297  24.489   3.207  0.00  0.00     0.174 HD
ENDROOT
TORSDOF 0
ENDMDL
MODEL 9
REMARK VINA RESULT:      -3.5     10.682     11.718
REMARK  0 active torsions:
REMARK  status: ('A' for Active; 'I' for Inactive)
ROOT
HETATM    1  N   UNK N   1      29.954  17.647   9.633  0.00  0.00    -0.159 N 
HETATM    2  C   UNK N   1      30.931  17.484   8.657  0.00  0.00     0.676 A 
HETATM    3  N   UNK N   1      32.192  17.536   8.887  0.00  0.00    -0.234 N 
ATOM      4  HN  UNK N   1      32.531  17.705   9.834  1.00  0.00     0.174 HD
HETATM    5  N   UNK N   1      30.366  17.259   7.398  0.00  0.00    -0.214 N 
HETATM    6  C   UNK N   1      31.105  17.052   6.182  0.00  0.00     0.169 C 
HETATM    7  C   UNK N   1      28.921  17.264   7.501  0.00  0.00     0.244 A 
HETATM    8  C   UNK N   1      28.773  17.524   8.994  0.00  0.00     0.254 A 
HETATM    9  O   UNK N   1      27.702  17.616   9.571  0.00  0.00    -0.271 OA
HETATM   10  H   UNK N   1      30.095  17.816  10.593  0.00  0.00     0.187 HD
HETATM   11  H   UNK N   1      32.832  17.412   8.148  0.00  0.00     0.174 HD
ENDROOT
TORSDOF 0
ENDMDL
