REMARK WARNING: 32 MAX_TORS EXCEEDED!!!
REMARK  34 active torsions:
REMARK  status: ('A' for Active; 'I' for Inactive)
REMARK    1  A    between atoms: C_36  and  O_5 
REMARK    2  A    between atoms: O_5  and  C_43 
REMARK    3  A    between atoms: C_35  and  O_6 
REMARK    4  A    between atoms: O_6  and  C_44 
REMARK    5  A    between atoms: C_27  and  O_7 
REMARK    6  A    between atoms: C_28  and  O_8 
REMARK    7  A    between atoms: C_29  and  O_9 
REMARK    8  A    between atoms: C_30  and  O_10 
REMARK    9  A    between atoms: C_32  and  O_11 
REMARK   10  A    between atoms: C_31  and  O_12 
REMARK   11  A    between atoms: C_33  and  O_13 
REMARK   12  A    between atoms: C_34  and  O_14 
REMARK   13  A    between atoms: C_37  and  O_15 
REMARK   14  A    between atoms: C_38  and  O_16 
REMARK   15  A    between atoms: C_42  and  O_17 
REMARK   16  A    between atoms: C_41  and  O_18 
REMARK   17  A    between atoms: C_45  and  O_19 
REMARK   18  A    between atoms: O_19  and  C_50 
REMARK   19  A    between atoms: C_46  and  O_20 
REMARK   20  A    between atoms: O_20  and  C_49 
REMARK   21  A    between atoms: O_21  and  C_48 
REMARK   22  A    between atoms: O_22  and  C_47 
REMARK   23  A    between atoms: C_25  and  C_44 
REMARK   24  A    between atoms: C_26  and  C_43 
REMARK   25  A    between atoms: C_39  and  C_47 
REMARK   26  A    between atoms: C_40  and  C_48 
REMARK   27  A    between atoms: C_49  and  C_51 
REMARK   28  A    between atoms: C_50  and  C_52 
REMARK   29  A    between atoms: C_55  and  C_57 
REMARK   30  A    between atoms: C_56  and  C_58 
REMARK   31  A    between atoms: C_59  and  C_61 
REMARK   32  A    between atoms: C_60  and  C_62 
REMARK   33  A    between atoms: C_65  and  C_68 
REMARK   34  A    between atoms: C_66  and  C_67 
ROOT
HETATM    1  C   UNK N   1      11.547   0.292   1.672  0.00  0.00     0.001 C 
HETATM    2  C   UNK N   1      10.542   1.090   1.265  0.00  0.00     0.001 C 
ENDROOT
BRANCH   1   3
HETATM    3  C   UNK N   1      12.468  -0.430   0.766  0.00  0.00     0.007 C 
HETATM    4  C   UNK N   1      12.069  -1.325  -0.143  0.00  0.00    -0.062 C 
HETATM    5  C   UNK N   1      13.106  -1.972  -1.004  0.00  0.00     0.048 C 
BRANCH   4   6
HETATM    6  C   UNK N   1      10.640  -1.710  -0.250  0.00  0.00     0.007 C 
HETATM    7  C   UNK N   1      10.234  -2.976  -0.371  0.00  0.00     0.001 C 
BRANCH   7   8
HETATM    8  C   UNK N   1      11.191  -4.095  -0.310  0.00  0.00     0.013 C 
HETATM    9  C   UNK N   1      10.866  -5.377  -0.105  0.00  0.00     0.013 C 
HETATM   10  C   UNK N   1      11.968  -6.378  -0.116  0.00  0.00     0.054 C 
BRANCH   9  11
HETATM   11  C   UNK N   1       9.480  -5.840   0.129  0.00  0.00     0.291 C 
HETATM   12  O   UNK N   1       8.572  -5.040   0.294  0.00  0.00    -0.260 OA
BRANCH  11  13
HETATM   13  O   UNK N   1       9.229  -7.178   0.119  0.00  0.00    -0.283 OA
BRANCH  13  14
HETATM   14  C   UNK N   1       7.969  -7.697   0.307  0.00  0.00     0.301 C 
HETATM   15  O   UNK N   1       7.071  -7.060  -0.556  0.00  0.00    -0.348 OA
HETATM   16  C   UNK N   1       5.810  -7.344  -0.035  0.00  0.00     0.180 C 
HETATM   17  C   UNK N   1       5.450  -8.774  -0.439  0.00  0.00     0.180 C 
HETATM   18  C   UNK N   1       6.498  -9.698   0.209  0.00  0.00     0.183 C 
HETATM   19  C   UNK N   1       7.934  -9.193  -0.017  0.00  0.00     0.205 C 
BRANCH  16  20
HETATM   20  C   UNK N   1       4.854  -6.272  -0.500  0.00  0.00     0.205 C 
BRANCH  20  21
HETATM   21  O   UNK N   1       5.238  -5.070   0.111  0.00  0.00    -0.356 OA
BRANCH  21  22
HETATM   22  C   UNK N   1       4.229  -4.153  -0.179  0.00  0.00     0.291 C 
HETATM   23  O   UNK N   1       3.090  -4.446   0.589  0.00  0.00    -0.348 OA
HETATM   24  C   UNK N   1       2.040  -3.753  -0.023  0.00  0.00     0.179 C 
HETATM   25  C   UNK N   1       2.188  -2.258   0.308  0.00  0.00     0.180 C 
HETATM   26  C   UNK N   1       3.542  -1.776  -0.233  0.00  0.00     0.183 C 
HETATM   27  C   UNK N   1       4.675  -2.727   0.164  0.00  0.00     0.204 C 
BRANCH  24  28
HETATM   28  C   UNK N   1       0.725  -4.338   0.460  0.00  0.00     0.198 C 
BRANCH  28  29
HETATM   29  O   UNK N   1      -0.298  -4.002  -0.425  0.00  0.00    -0.398 OA
HETATM   30  H   UNK N   1      -0.452  -3.269  -1.041  0.00  0.00     0.209 HD
ENDBRANCH  28  29
ENDBRANCH  24  28
BRANCH  25  31
HETATM   31  O   UNK N   1       1.164  -1.518  -0.285  0.00  0.00    -0.390 OA
HETATM   32  H   UNK N   1       1.254  -0.645  -0.697  0.00  0.00     0.210 HD
ENDBRANCH  25  31
BRANCH  26  33
HETATM   33  O   UNK N   1       3.811  -0.483   0.220  0.00  0.00    -0.390 OA
HETATM   34  H   UNK N   1       4.683  -0.197   0.534  0.00  0.00     0.210 HD
ENDBRANCH  26  33
BRANCH  27  35
HETATM   35  O   UNK N   1       5.838  -2.395  -0.534  0.00  0.00    -0.388 OA
HETATM   36  H   UNK N   1       6.442  -2.978  -1.019  0.00  0.00     0.210 HD
ENDBRANCH  27  35
ENDBRANCH  21  22
ENDBRANCH  20  21
ENDBRANCH  16  20
BRANCH  17  37
HETATM   37  O   UNK N   1       4.180  -9.108   0.035  0.00  0.00    -0.390 OA
HETATM   38  H   UNK N   1       3.538  -8.460   0.365  0.00  0.00     0.210 HD
ENDBRANCH  17  37
BRANCH  18  39
HETATM   39  O   UNK N   1       6.362 -11.001  -0.271  0.00  0.00    -0.390 OA
HETATM   40  H   UNK N   1       5.530 -11.372  -0.604  0.00  0.00     0.210 HD
ENDBRANCH  18  39
BRANCH  19  41
HETATM   41  O   UNK N   1       8.819  -9.889   0.808  0.00  0.00    -0.388 OA
HETATM   42  H   UNK N   1       8.708 -10.663   1.381  0.00  0.00     0.210 HD
ENDBRANCH  19  41
ENDBRANCH  13  14
ENDBRANCH  11  13
ENDBRANCH   9  11
ENDBRANCH   7   8
ENDBRANCH   4   6
ENDBRANCH   1   3
BRANCH   2  43
HETATM   43  C   UNK N   1      10.233   1.484  -0.139  0.00  0.00     0.007 C 
HETATM   44  C   UNK N   1      11.096   1.800  -1.130  0.00  0.00    -0.062 C 
HETATM   45  C   UNK N   1      10.532   2.067  -2.480  0.00  0.00     0.048 C 
BRANCH  44  46
HETATM   46  C   UNK N   1      12.572   1.886  -0.982  0.00  0.00     0.007 C 
HETATM   47  C   UNK N   1      13.202   2.511   0.020  0.00  0.00     0.001 C 
BRANCH  47  48
HETATM   48  C   UNK N   1      12.469   3.325   1.004  0.00  0.00     0.013 C 
HETATM   49  C   UNK N   1      12.562   4.659   1.063  0.00  0.00     0.013 C 
HETATM   50  C   UNK N   1      11.747   5.369   2.091  0.00  0.00     0.054 C 
BRANCH  49  51
HETATM   51  C   UNK N   1      13.434   5.453   0.161  0.00  0.00     0.291 C 
HETATM   52  O   UNK N   1      14.157   4.903  -0.662  0.00  0.00    -0.260 OA
BRANCH  51  53
HETATM   53  O   UNK N   1      13.477   6.798   0.301  0.00  0.00    -0.283 OA
BRANCH  53  54
HETATM   54  C   UNK N   1      14.549   7.517  -0.166  0.00  0.00     0.301 C 
HETATM   55  O   UNK N   1      15.686   7.087   0.537  0.00  0.00    -0.348 OA
HETATM   56  C   UNK N   1      16.797   7.623  -0.117  0.00  0.00     0.180 C 
HETATM   57  C   UNK N   1      16.867   9.113   0.218  0.00  0.00     0.180 C 
HETATM   58  C   UNK N   1      15.600   9.760  -0.359  0.00  0.00     0.183 C 
HETATM   59  C   UNK N   1      14.341   9.010   0.090  0.00  0.00     0.205 C 
BRANCH  56  60
HETATM   60  C   UNK N   1      18.022   6.851   0.326  0.00  0.00     0.205 C 
BRANCH  60  61
HETATM   61  O   UNK N   1      17.982   5.576  -0.254  0.00  0.00    -0.356 OA
BRANCH  61  62
HETATM   62  C   UNK N   1      19.166   4.940   0.132  0.00  0.00     0.291 C 
HETATM   63  O   UNK N   1      20.254   5.508  -0.555  0.00  0.00    -0.348 OA
HETATM   64  C   UNK N   1      21.408   5.061   0.105  0.00  0.00     0.179 C 
HETATM   65  C   UNK N   1      21.629   3.585  -0.247  0.00  0.00     0.180 C 
HETATM   66  C   UNK N   1      20.411   2.792   0.240  0.00  0.00     0.183 C 
HETATM   67  C   UNK N   1      19.105   3.447  -0.219  0.00  0.00     0.204 C 
BRANCH  64  68
HETATM   68  C   UNK N   1      22.587   5.920  -0.314  0.00  0.00     0.198 C 
BRANCH  68  69
HETATM   69  O   UNK N   1      22.364   7.243   0.073  0.00  0.00    -0.398 OA
HETATM   70  H   UNK N   1      23.083   7.836   0.342  0.00  0.00     0.209 HD
ENDBRANCH  68  69
ENDBRANCH  64  68
BRANCH  65  71
HETATM   71  O   UNK N   1      22.779   3.101   0.380  0.00  0.00    -0.390 OA
HETATM   72  H   UNK N   1      22.888   2.241   0.815  0.00  0.00     0.210 HD
ENDBRANCH  65  71
BRANCH  66  73
HETATM   73  O   UNK N   1      20.479   1.475  -0.216  0.00  0.00    -0.390 OA
HETATM   74  H   UNK N   1      19.710   0.976  -0.533  0.00  0.00     0.210 HD
ENDBRANCH  66  73
BRANCH  67  75
HETATM   75  O   UNK N   1      18.022   2.838   0.418  0.00  0.00    -0.388 OA
HETATM   76  H   UNK N   1      17.280   3.278   0.861  0.00  0.00     0.210 HD
ENDBRANCH  67  75
ENDBRANCH  61  62
ENDBRANCH  60  61
ENDBRANCH  56  60
BRANCH  57  77
HETATM   77  O   UNK N   1      17.995   9.691  -0.367  0.00  0.00    -0.390 OA
HETATM   78  H   UNK N   1      18.734   9.212  -0.773  0.00  0.00     0.210 HD
ENDBRANCH  57  77
BRANCH  58  79
HETATM   79  O   UNK N   1      15.522  11.100   0.022  0.00  0.00    -0.390 OA
HETATM   80  H   UNK N   1      16.301  11.613   0.287  0.00  0.00     0.210 HD
ENDBRANCH  58  79
BRANCH  59  81
HETATM   81  O   UNK N   1      13.238   9.466  -0.634  0.00  0.00    -0.388 OA
HETATM   82  H   UNK N   1      13.128  10.288  -1.137  0.00  0.00     0.210 HD
ENDBRANCH  59  81
ENDBRANCH  53  54
ENDBRANCH  51  53
ENDBRANCH  49  51
ENDBRANCH  47  48
ENDBRANCH  44  46
ENDBRANCH   2  43
TORSDOF 34
