MODEL 1
REMARK VINA RESULT:      -8.5      0.000      0.000
REMARK WARNING: 32 MAX_TORS EXCEEDED!!!
REMARK  34 active torsions:
REMARK  status: ('A' for Active; 'I' for Inactive)
REMARK    1  A    between atoms: C_36  and  O_5 
REMARK    2  A    between atoms: O_5  and  C_43 
REMARK    3  A    between atoms: C_35  and  O_6 
REMARK    4  A    between atoms: O_6  and  C_44 
REMARK    5  A    between atoms: C_27  and  O_7 
REMARK    6  A    between atoms: C_28  and  O_8 
REMARK    7  A    between atoms: C_29  and  O_9 
REMARK    8  A    between atoms: C_30  and  O_10 
REMARK    9  A    between atoms: C_32  and  O_11 
REMARK   10  A    between atoms: C_31  and  O_12 
REMARK   11  A    between atoms: C_33  and  O_13 
REMARK   12  A    between atoms: C_34  and  O_14 
REMARK   13  A    between atoms: C_37  and  O_15 
REMARK   14  A    between atoms: C_38  and  O_16 
REMARK   15  A    between atoms: C_42  and  O_17 
REMARK   16  A    between atoms: C_41  and  O_18 
REMARK   17  A    between atoms: C_45  and  O_19 
REMARK   18  A    between atoms: O_19  and  C_50 
REMARK   19  A    between atoms: C_46  and  O_20 
REMARK   20  A    between atoms: O_20  and  C_49 
REMARK   21  A    between atoms: O_21  and  C_48 
REMARK   22  A    between atoms: O_22  and  C_47 
REMARK   23  A    between atoms: C_25  and  C_44 
REMARK   24  A    between atoms: C_26  and  C_43 
REMARK   25  A    between atoms: C_39  and  C_47 
REMARK   26  A    between atoms: C_40  and  C_48 
REMARK   27  A    between atoms: C_49  and  C_51 
REMARK   28  A    between atoms: C_50  and  C_52 
REMARK   29  A    between atoms: C_55  and  C_57 
REMARK   30  A    between atoms: C_56  and  C_58 
REMARK   31  A    between atoms: C_59  and  C_61 
REMARK   32  A    between atoms: C_60  and  C_62 
REMARK   33  A    between atoms: C_65  and  C_68 
REMARK   34  A    between atoms: C_66  and  C_67 
ROOT
HETATM    1  C   UNK N   1      24.609  12.712   1.384  0.00  0.00     0.001 C 
HETATM    2  C   UNK N   1      24.006  13.798   1.903  0.00  0.00     0.001 C 
ENDROOT
BRANCH   1   3
HETATM    3  C   UNK N   1      25.855  12.109   1.909  0.00  0.00     0.007 C 
HETATM    4  C   UNK N   1      25.884  11.151   2.840  0.00  0.00    -0.062 C 
HETATM    5  C   UNK N   1      27.214  10.621   3.271  0.00  0.00     0.048 C 
BRANCH   4   6
HETATM    6  C   UNK N   1      24.630  10.670   3.472  0.00  0.00     0.007 C 
HETATM    7  C   UNK N   1      24.238  11.047   4.691  0.00  0.00     0.001 C 
BRANCH   7   8
HETATM    8  C   UNK N   1      24.992  12.054   5.459  0.00  0.00     0.013 C 
HETATM    9  C   UNK N   1      24.530  12.712   6.529  0.00  0.00     0.013 C 
HETATM   10  C   UNK N   1      25.453  13.666   7.203  0.00  0.00     0.054 C 
BRANCH   9  11
HETATM   11  C   UNK N   1      23.163  12.538   7.067  0.00  0.00     0.291 C 
HETATM   12  O   UNK N   1      22.934  11.719   7.944  0.00  0.00    -0.260 OA
BRANCH  11  13
HETATM   13  O   UNK N   1      22.168  13.336   6.591  0.00  0.00    -0.283 OA
BRANCH  13  14
HETATM   14  C   UNK N   1      21.783  14.496   7.221  0.00  0.00     0.301 C 
HETATM   15  O   UNK N   1      21.529  15.483   6.263  0.00  0.00    -0.348 OA
HETATM   16  C   UNK N   1      21.542  16.683   6.972  0.00  0.00     0.180 C 
HETATM   17  C   UNK N   1      20.205  16.807   7.704  0.00  0.00     0.180 C 
HETATM   18  C   UNK N   1      20.124  15.625   8.688  0.00  0.00     0.183 C 
HETATM   19  C   UNK N   1      20.494  14.289   8.020  0.00  0.00     0.205 C 
BRANCH  16  20
HETATM   20  C   UNK N   1      21.866  17.798   6.007  0.00  0.00     0.205 C 
BRANCH  20  21
HETATM   21  O   UNK N   1      22.585  17.239   4.941  0.00  0.00    -0.356 OA
BRANCH  21  22
HETATM   22  C   UNK N   1      22.207  17.954   3.806  0.00  0.00     0.291 C 
HETATM   23  O   UNK N   1      20.810  17.914   3.667  0.00  0.00    -0.348 OA
HETATM   24  C   UNK N   1      20.556  18.303   2.347  0.00  0.00     0.179 C 
HETATM   25  C   UNK N   1      20.775  19.821   2.239  0.00  0.00     0.180 C 
HETATM   26  C   UNK N   1      22.231  20.127   2.622  0.00  0.00     0.183 C 
HETATM   27  C   UNK N   1      22.627  19.424   3.923  0.00  0.00     0.204 C 
BRANCH  24  28
HETATM   28  C   UNK N   1      19.145  17.882   1.980  0.00  0.00     0.198 C 
BRANCH  28  29
HETATM   29  O   UNK N   1      18.238  18.863   2.376  0.00  0.00    -0.398 OA
HETATM   30  H   UNK N   1      18.081  19.787   2.127  0.00  0.00     0.209 HD
ENDBRANCH  28  29
ENDBRANCH  24  28
BRANCH  25  31
HETATM   31  O   UNK N   1      20.539  20.262   0.936  0.00  0.00    -0.390 OA
HETATM   32  H   UNK N   1      20.742  21.142   0.584  0.00  0.00     0.210 HD
ENDBRANCH  25  31
BRANCH  26  33
HETATM   33  O   UNK N   1      22.421  21.506   2.737  0.00  0.00    -0.390 OA
HETATM   34  H   UNK N   1      21.867  22.077   3.291  0.00  0.00     0.210 HD
ENDBRANCH  26  33
BRANCH  27  35
HETATM   35  O   UNK N   1      24.007  19.526   4.115  0.00  0.00    -0.388 OA
HETATM   36  H   UNK N   1      24.502  19.573   4.948  0.00  0.00     0.210 HD
ENDBRANCH  27  35
ENDBRANCH  21  22
ENDBRANCH  20  21
ENDBRANCH  16  20
BRANCH  17  37
HETATM   37  O   UNK N   1      20.149  18.008   8.414  0.00  0.00    -0.390 OA
HETATM   38  H   UNK N   1      20.580  18.150   9.271  0.00  0.00     0.210 HD
ENDBRANCH  17  37
BRANCH  18  39
HETATM   39  O   UNK N   1      18.851  15.548   9.253  0.00  0.00    -0.390 OA
HETATM   40  H   UNK N   1      18.654  15.088  10.084  0.00  0.00     0.210 HD
ENDBRANCH  18  39
BRANCH  19  41
HETATM   41  O   UNK N   1      20.678  13.305   8.993  0.00  0.00    -0.388 OA
HETATM   42  H   UNK N   1      20.098  12.611   9.340  0.00  0.00     0.210 HD
ENDBRANCH  19  41
ENDBRANCH  13  14
ENDBRANCH  11  13
ENDBRANCH   9  11
ENDBRANCH   7   8
ENDBRANCH   4   6
ENDBRANCH   1   3
BRANCH   2  43
HETATM   43  C   UNK N   1      24.400  14.526   3.143  0.00  0.00     0.007 C 
HETATM   44  C   UNK N   1      25.377  15.447   3.299  0.00  0.00    -0.062 C 
HETATM   45  C   UNK N   1      25.506  16.100   4.629  0.00  0.00     0.048 C 
BRANCH  44  46
HETATM   46  C   UNK N   1      26.327  15.873   2.238  0.00  0.00     0.007 C 
HETATM   47  C   UNK N   1      27.551  15.361   2.061  0.00  0.00     0.001 C 
BRANCH  47  48
HETATM   48  C   UNK N   1      28.139  14.417   3.026  0.00  0.00     0.013 C 
HETATM   49  C   UNK N   1      28.979  14.793   3.998  0.00  0.00     0.013 C 
HETATM   50  C   UNK N   1      29.486  13.742   4.927  0.00  0.00     0.054 C 
BRANCH  49  51
HETATM   51  C   UNK N   1      29.426  16.197   4.186  0.00  0.00     0.291 C 
HETATM   52  O   UNK N   1      30.505  16.579   3.749  0.00  0.00    -0.260 OA
BRANCH  51  53
HETATM   53  O   UNK N   1      28.656  17.042   4.910  0.00  0.00    -0.283 OA
BRANCH  53  54
HETATM   54  C   UNK N   1      29.095  17.530   6.116  0.00  0.00     0.301 C 
HETATM   55  O   UNK N   1      29.838  16.514   6.739  0.00  0.00    -0.348 OA
HETATM   56  C   UNK N   1      30.493  17.097   7.826  0.00  0.00     0.180 C 
HETATM   57  C   UNK N   1      29.459  17.336   8.926  0.00  0.00     0.180 C 
HETATM   58  C   UNK N   1      28.442  18.344   8.371  0.00  0.00     0.183 C 
HETATM   59  C   UNK N   1      27.907  17.896   7.007  0.00  0.00     0.205 C 
BRANCH  56  60
HETATM   60  C   UNK N   1      31.615  16.172   8.249  0.00  0.00     0.205 C 
BRANCH  60  61
HETATM   61  O   UNK N   1      32.665  16.947   8.761  0.00  0.00    -0.356 OA
BRANCH  61  62
HETATM   62  C   UNK N   1      33.754  16.080   8.893  0.00  0.00     0.291 C 
HETATM   63  O   UNK N   1      33.314  14.839   9.386  0.00  0.00    -0.348 OA
HETATM   64  C   UNK N   1      34.374  13.942   9.187  0.00  0.00     0.179 C 
HETATM   65  C   UNK N   1      35.470  14.248  10.214  0.00  0.00     0.180 C 
HETATM   66  C   UNK N   1      35.953  15.685   9.982  0.00  0.00     0.183 C 
HETATM   67  C   UNK N   1      34.773  16.656   9.887  0.00  0.00     0.204 C 
BRANCH  64  68
HETATM   68  C   UNK N   1      33.859  12.521   9.324  0.00  0.00     0.198 C 
BRANCH  68  69
HETATM   69  O   UNK N   1      32.463  12.522   9.273  0.00  0.00    -0.398 OA
HETATM   70  H   UNK N   1      31.970  12.348   8.456  0.00  0.00     0.209 HD
ENDBRANCH  68  69
ENDBRANCH  64  68
BRANCH  65  71
HETATM   71  O   UNK N   1      36.543  13.368  10.060  0.00  0.00    -0.390 OA
HETATM   72  H   UNK N   1      36.710  12.558  10.567  0.00  0.00     0.210 HD
ENDBRANCH  65  71
BRANCH  66  73
HETATM   73  O   UNK N   1      36.820  16.074  11.004  0.00  0.00    -0.390 OA
HETATM   74  H   UNK N   1      36.708  16.886  11.522  0.00  0.00     0.210 HD
ENDBRANCH  66  73
BRANCH  67  75
HETATM   75  O   UNK N   1      35.223  17.906   9.457  0.00  0.00    -0.388 OA
HETATM   76  H   UNK N   1      35.376  18.191   8.543  0.00  0.00     0.210 HD
ENDBRANCH  67  75
ENDBRANCH  61  62
ENDBRANCH  60  61
ENDBRANCH  56  60
BRANCH  57  77
HETATM   77  O   UNK N   1      30.072  17.868  10.062  0.00  0.00    -0.390 OA
HETATM   78  H   UNK N   1      30.806  17.468  10.553  0.00  0.00     0.210 HD
ENDBRANCH  57  77
BRANCH  58  79
HETATM   79  O   UNK N   1      27.387  18.514   9.268  0.00  0.00    -0.390 OA
HETATM   80  H   UNK N   1      27.372  19.226   9.926  0.00  0.00     0.210 HD
ENDBRANCH  58  79
BRANCH  59  81
HETATM   81  O   UNK N   1      27.178  18.934   6.423  0.00  0.00    -0.388 OA
HETATM   82  H   UNK N   1      26.526  19.529   6.823  0.00  0.00     0.210 HD
ENDBRANCH  59  81
ENDBRANCH  53  54
ENDBRANCH  51  53
ENDBRANCH  49  51
ENDBRANCH  47  48
ENDBRANCH  44  46
ENDBRANCH   2  43
TORSDOF 34
ENDMDL
MODEL 2
REMARK VINA RESULT:      -8.3      3.608      8.292
REMARK WARNING: 32 MAX_TORS EXCEEDED!!!
REMARK  34 active torsions:
REMARK  status: ('A' for Active; 'I' for Inactive)
REMARK    1  A    between atoms: C_36  and  O_5 
REMARK    2  A    between atoms: O_5  and  C_43 
REMARK    3  A    between atoms: C_35  and  O_6 
REMARK    4  A    between atoms: O_6  and  C_44 
REMARK    5  A    between atoms: C_27  and  O_7 
REMARK    6  A    between atoms: C_28  and  O_8 
REMARK    7  A    between atoms: C_29  and  O_9 
REMARK    8  A    between atoms: C_30  and  O_10 
REMARK    9  A    between atoms: C_32  and  O_11 
REMARK   10  A    between atoms: C_31  and  O_12 
REMARK   11  A    between atoms: C_33  and  O_13 
REMARK   12  A    between atoms: C_34  and  O_14 
REMARK   13  A    between atoms: C_37  and  O_15 
REMARK   14  A    between atoms: C_38  and  O_16 
REMARK   15  A    between atoms: C_42  and  O_17 
REMARK   16  A    between atoms: C_41  and  O_18 
REMARK   17  A    between atoms: C_45  and  O_19 
REMARK   18  A    between atoms: O_19  and  C_50 
REMARK   19  A    between atoms: C_46  and  O_20 
REMARK   20  A    between atoms: O_20  and  C_49 
REMARK   21  A    between atoms: O_21  and  C_48 
REMARK   22  A    between atoms: O_22  and  C_47 
REMARK   23  A    between atoms: C_25  and  C_44 
REMARK   24  A    between atoms: C_26  and  C_43 
REMARK   25  A    between atoms: C_39  and  C_47 
REMARK   26  A    between atoms: C_40  and  C_48 
REMARK   27  A    between atoms: C_49  and  C_51 
REMARK   28  A    between atoms: C_50  and  C_52 
REMARK   29  A    between atoms: C_55  and  C_57 
REMARK   30  A    between atoms: C_56  and  C_58 
REMARK   31  A    between atoms: C_59  and  C_61 
REMARK   32  A    between atoms: C_60  and  C_62 
REMARK   33  A    between atoms: C_65  and  C_68 
REMARK   34  A    between atoms: C_66  and  C_67 
ROOT
HETATM    1  C   UNK N   1      29.930  11.106   1.962  0.00  0.00     0.001 C 
HETATM    2  C   UNK N   1      29.496  10.230   2.887  0.00  0.00     0.001 C 
ENDROOT
BRANCH   1   3
HETATM    3  C   UNK N   1      29.230  12.356   1.592  0.00  0.00     0.007 C 
HETATM    4  C   UNK N   1      29.402  13.521   2.225  0.00  0.00    -0.062 C 
HETATM    5  C   UNK N   1      28.640  14.712   1.738  0.00  0.00     0.048 C 
BRANCH   4   6
HETATM    6  C   UNK N   1      30.281  13.613   3.417  0.00  0.00     0.007 C 
HETATM    7  C   UNK N   1      29.812  13.642   4.666  0.00  0.00     0.001 C 
BRANCH   7   8
HETATM    8  C   UNK N   1      28.373  13.486   4.947  0.00  0.00     0.013 C 
HETATM    9  C   UNK N   1      27.559  14.463   5.365  0.00  0.00     0.013 C 
HETATM   10  C   UNK N   1      26.122  14.127   5.558  0.00  0.00     0.054 C 
BRANCH   9  11
HETATM   11  C   UNK N   1      28.016  15.843   5.640  0.00  0.00     0.291 C 
HETATM   12  O   UNK N   1      28.233  16.215   6.783  0.00  0.00    -0.260 OA
BRANCH  11  13
HETATM   13  O   UNK N   1      28.226  16.683   4.589  0.00  0.00    -0.283 OA
BRANCH  13  14
HETATM   14  C   UNK N   1      27.338  17.674   4.244  0.00  0.00     0.301 C 
HETATM   15  O   UNK N   1      26.080  17.377   4.778  0.00  0.00    -0.348 OA
HETATM   16  C   UNK N   1      25.190  18.183   4.069  0.00  0.00     0.180 C 
HETATM   17  C   UNK N   1      25.288  19.598   4.640  0.00  0.00     0.180 C 
HETATM   18  C   UNK N   1      26.730  20.080   4.394  0.00  0.00     0.183 C 
HETATM   19  C   UNK N   1      27.771  19.027   4.815  0.00  0.00     0.205 C 
BRANCH  16  20
HETATM   20  C   UNK N   1      23.823  17.545   4.131  0.00  0.00     0.205 C 
BRANCH  20  21
HETATM   21  O   UNK N   1      23.117  18.160   5.175  0.00  0.00    -0.356 OA
BRANCH  21  22
HETATM   22  C   UNK N   1      21.834  18.396   4.684  0.00  0.00     0.291 C 
HETATM   23  O   UNK N   1      21.916  19.087   3.464  0.00  0.00    -0.348 OA
HETATM   24  C   UNK N   1      20.636  19.608   3.245  0.00  0.00     0.179 C 
HETATM   25  C   UNK N   1      19.710  18.456   2.819  0.00  0.00     0.180 C 
HETATM   26  C   UNK N   1      19.684  17.416   3.948  0.00  0.00     0.183 C 
HETATM   27  C   UNK N   1      21.098  17.076   4.430  0.00  0.00     0.204 C 
BRANCH  24  28
HETATM   28  C   UNK N   1      20.731  20.707   2.201  0.00  0.00     0.198 C 
BRANCH  28  29
HETATM   29  O   UNK N   1      21.804  21.548   2.493  0.00  0.00    -0.398 OA
HETATM   30  H   UNK N   1      22.335  21.724   3.285  0.00  0.00     0.209 HD
ENDBRANCH  28  29
ENDBRANCH  24  28
BRANCH  25  31
HETATM   31  O   UNK N   1      18.414  18.924   2.592  0.00  0.00    -0.390 OA
HETATM   32  H   UNK N   1      18.124  19.848   2.634  0.00  0.00     0.210 HD
ENDBRANCH  25  31
BRANCH  26  33
HETATM   33  O   UNK N   1      19.023  16.261   3.526  0.00  0.00    -0.390 OA
HETATM   34  H   UNK N   1      19.268  15.368   3.816  0.00  0.00     0.210 HD
ENDBRANCH  26  33
BRANCH  27  35
HETATM   35  O   UNK N   1      21.029  16.318   5.601  0.00  0.00    -0.388 OA
HETATM   36  H   UNK N   1      21.658  15.660   5.935  0.00  0.00     0.210 HD
ENDBRANCH  27  35
ENDBRANCH  21  22
ENDBRANCH  20  21
ENDBRANCH  16  20
BRANCH  17  37
HETATM   37  O   UNK N   1      24.396  20.449   3.984  0.00  0.00    -0.390 OA
HETATM   38  H   UNK N   1      23.839  20.178   3.237  0.00  0.00     0.210 HD
ENDBRANCH  17  37
BRANCH  18  39
HETATM   39  O   UNK N   1      26.962  21.283   5.061  0.00  0.00    -0.390 OA
HETATM   40  H   UNK N   1      27.638  21.927   4.798  0.00  0.00     0.210 HD
ENDBRANCH  18  39
BRANCH  19  41
HETATM   41  O   UNK N   1      29.030  19.380   4.325  0.00  0.00    -0.388 OA
HETATM   42  H   UNK N   1      29.903  19.429   4.742  0.00  0.00     0.210 HD
ENDBRANCH  19  41
ENDBRANCH  13  14
ENDBRANCH  11  13
ENDBRANCH   9  11
ENDBRANCH   7   8
ENDBRANCH   4   6
ENDBRANCH   1   3
BRANCH   2  43
HETATM   43  C   UNK N   1      28.313  10.394   3.780  0.00  0.00     0.007 C 
HETATM   44  C   UNK N   1      27.006  10.230   3.477  0.00  0.00    -0.062 C 
HETATM   45  C   UNK N   1      26.018  10.361   4.581  0.00  0.00     0.048 C 
BRANCH  44  46
HETATM   46  C   UNK N   1      26.475   9.912   2.126  0.00  0.00     0.007 C 
HETATM   47  C   UNK N   1      26.068  10.823   1.234  0.00  0.00     0.001 C 
BRANCH  47  48
HETATM   48  C   UNK N   1      25.960  12.250   1.582  0.00  0.00     0.013 C 
HETATM   49  C   UNK N   1      24.846  12.966   1.390  0.00  0.00     0.013 C 
HETATM   50  C   UNK N   1      24.857  14.397   1.809  0.00  0.00     0.054 C 
BRANCH  49  51
HETATM   51  C   UNK N   1      23.613  12.404   0.781  0.00  0.00     0.291 C 
HETATM   52  O   UNK N   1      23.393  12.520  -0.419  0.00  0.00    -0.260 OA
BRANCH  51  53
HETATM   53  O   UNK N   1      22.693  11.815   1.580  0.00  0.00    -0.283 OA
BRANCH  53  54
HETATM   54  C   UNK N   1      21.922  12.566   2.431  0.00  0.00     0.301 C 
HETATM   55  O   UNK N   1      22.219  12.159   3.742  0.00  0.00    -0.348 OA
HETATM   56  C   UNK N   1      21.637  13.094   4.601  0.00  0.00     0.180 C 
HETATM   57  C   UNK N   1      20.129  12.844   4.617  0.00  0.00     0.180 C 
HETATM   58  C   UNK N   1      19.619  13.104   3.192  0.00  0.00     0.183 C 
HETATM   59  C   UNK N   1      20.437  12.321   2.159  0.00  0.00     0.205 C 
BRANCH  56  60
HETATM   60  C   UNK N   1      22.283  12.948   5.963  0.00  0.00     0.205 C 
BRANCH  60  61
HETATM   61  O   UNK N   1      22.470  14.225   6.509  0.00  0.00    -0.356 OA
BRANCH  61  62
HETATM   62  C   UNK N   1      22.484  14.052   7.896  0.00  0.00     0.291 C 
HETATM   63  O   UNK N   1      23.352  12.999   8.233  0.00  0.00    -0.348 OA
HETATM   64  C   UNK N   1      23.564  13.095   9.616  0.00  0.00     0.179 C 
HETATM   65  C   UNK N   1      22.297  12.619  10.337  0.00  0.00     0.180 C 
HETATM   66  C   UNK N   1      21.141  13.536   9.922  0.00  0.00     0.183 C 
HETATM   67  C   UNK N   1      21.079  13.694   8.400  0.00  0.00     0.204 C 
BRANCH  64  68
HETATM   68  C   UNK N   1      24.773  12.259   9.996  0.00  0.00     0.198 C 
BRANCH  68  69
HETATM   69  O   UNK N   1      25.287  12.705  11.215  0.00  0.00    -0.398 OA
HETATM   70  H   UNK N   1      26.198  12.524  11.494  0.00  0.00     0.209 HD
ENDBRANCH  68  69
ENDBRANCH  64  68
BRANCH  65  71
HETATM   71  O   UNK N   1      22.469  12.686  11.721  0.00  0.00    -0.390 OA
HETATM   72  H   UNK N   1      22.374  13.470  12.283  0.00  0.00     0.210 HD
ENDBRANCH  65  71
BRANCH  66  73
HETATM   73  O   UNK N   1      19.932  13.036  10.407  0.00  0.00    -0.390 OA
HETATM   74  H   UNK N   1      19.867  12.405  11.141  0.00  0.00     0.210 HD
ENDBRANCH  66  73
BRANCH  67  75
HETATM   75  O   UNK N   1      20.168  14.699   8.067  0.00  0.00    -0.388 OA
HETATM   76  H   UNK N   1      19.982  15.051   7.183  0.00  0.00     0.210 HD
ENDBRANCH  67  75
ENDBRANCH  61  62
ENDBRANCH  60  61
ENDBRANCH  56  60
BRANCH  57  77
HETATM   77  O   UNK N   1      19.500  13.718   5.505  0.00  0.00    -0.390 OA
HETATM   78  H   UNK N   1      19.293  14.650   5.336  0.00  0.00     0.210 HD
ENDBRANCH  57  77
BRANCH  58  79
HETATM   79  O   UNK N   1      18.269  12.766   3.091  0.00  0.00    -0.390 OA
HETATM   80  H   UNK N   1      17.943  12.103   2.462  0.00  0.00     0.210 HD
ENDBRANCH  58  79
BRANCH  59  81
HETATM   81  O   UNK N   1      20.113  12.758   0.873  0.00  0.00    -0.388 OA
HETATM   82  H   UNK N   1      19.643  12.291   0.164  0.00  0.00     0.210 HD
ENDBRANCH  59  81
ENDBRANCH  53  54
ENDBRANCH  51  53
ENDBRANCH  49  51
ENDBRANCH  47  48
ENDBRANCH  44  46
ENDBRANCH   2  43
TORSDOF 34
ENDMDL
MODEL 3
REMARK VINA RESULT:      -8.2      2.176      4.642
REMARK WARNING: 32 MAX_TORS EXCEEDED!!!
REMARK  34 active torsions:
REMARK  status: ('A' for Active; 'I' for Inactive)
REMARK    1  A    between atoms: C_36  and  O_5 
REMARK    2  A    between atoms: O_5  and  C_43 
REMARK    3  A    between atoms: C_35  and  O_6 
REMARK    4  A    between atoms: O_6  and  C_44 
REMARK    5  A    between atoms: C_27  and  O_7 
REMARK    6  A    between atoms: C_28  and  O_8 
REMARK    7  A    between atoms: C_29  and  O_9 
REMARK    8  A    between atoms: C_30  and  O_10 
REMARK    9  A    between atoms: C_32  and  O_11 
REMARK   10  A    between atoms: C_31  and  O_12 
REMARK   11  A    between atoms: C_33  and  O_13 
REMARK   12  A    between atoms: C_34  and  O_14 
REMARK   13  A    between atoms: C_37  and  O_15 
REMARK   14  A    between atoms: C_38  and  O_16 
REMARK   15  A    between atoms: C_42  and  O_17 
REMARK   16  A    between atoms: C_41  and  O_18 
REMARK   17  A    between atoms: C_45  and  O_19 
REMARK   18  A    between atoms: O_19  and  C_50 
REMARK   19  A    between atoms: C_46  and  O_20 
REMARK   20  A    between atoms: O_20  and  C_49 
REMARK   21  A    between atoms: O_21  and  C_48 
REMARK   22  A    between atoms: O_22  and  C_47 
REMARK   23  A    between atoms: C_25  and  C_44 
REMARK   24  A    between atoms: C_26  and  C_43 
REMARK   25  A    between atoms: C_39  and  C_47 
REMARK   26  A    between atoms: C_40  and  C_48 
REMARK   27  A    between atoms: C_49  and  C_51 
REMARK   28  A    between atoms: C_50  and  C_52 
REMARK   29  A    between atoms: C_55  and  C_57 
REMARK   30  A    between atoms: C_56  and  C_58 
REMARK   31  A    between atoms: C_59  and  C_61 
REMARK   32  A    between atoms: C_60  and  C_62 
REMARK   33  A    between atoms: C_65  and  C_68 
REMARK   34  A    between atoms: C_66  and  C_67 
ROOT
HETATM    1  C   UNK N   1      24.308  15.073   2.766  0.00  0.00     0.001 C 
HETATM    2  C   UNK N   1      25.183  16.034   3.119  0.00  0.00     0.001 C 
ENDROOT
BRANCH   1   3
HETATM    3  C   UNK N   1      24.592  13.991   1.797  0.00  0.00     0.007 C 
HETATM    4  C   UNK N   1      23.715  13.038   1.468  0.00  0.00    -0.062 C 
HETATM    5  C   UNK N   1      24.128  12.010   0.464  0.00  0.00     0.048 C 
BRANCH   4   6
HETATM    6  C   UNK N   1      22.388  12.968   2.130  0.00  0.00     0.007 C 
HETATM    7  C   UNK N   1      22.121  12.136   3.139  0.00  0.00     0.001 C 
BRANCH   7   8
HETATM    8  C   UNK N   1      23.172  11.289   3.731  0.00  0.00     0.013 C 
HETATM    9  C   UNK N   1      23.778  11.518   4.903  0.00  0.00     0.013 C 
HETATM   10  C   UNK N   1      24.791  10.527   5.360  0.00  0.00     0.054 C 
BRANCH   9  11
HETATM   11  C   UNK N   1      23.491  12.693   5.754  0.00  0.00     0.291 C 
HETATM   12  O   UNK N   1      24.284  13.619   5.832  0.00  0.00    -0.260 OA
BRANCH  11  13
HETATM   13  O   UNK N   1      22.305  12.742   6.421  0.00  0.00    -0.283 OA
BRANCH  13  14
HETATM   14  C   UNK N   1      21.948  13.801   7.223  0.00  0.00     0.301 C 
HETATM   15  O   UNK N   1      21.471  14.847   6.426  0.00  0.00    -0.348 OA
HETATM   16  C   UNK N   1      21.516  15.972   7.247  0.00  0.00     0.180 C 
HETATM   17  C   UNK N   1      20.313  15.912   8.188  0.00  0.00     0.180 C 
HETATM   18  C   UNK N   1      20.478  14.641   9.043  0.00  0.00     0.183 C 
HETATM   19  C   UNK N   1      20.825  13.409   8.187  0.00  0.00     0.205 C 
BRANCH  16  20
HETATM   20  C   UNK N   1      21.598  17.196   6.367  0.00  0.00     0.205 C 
BRANCH  20  21
HETATM   21  O   UNK N   1      21.791  16.757   5.050  0.00  0.00    -0.356 OA
BRANCH  21  22
HETATM   22  C   UNK N   1      21.221  17.732   4.233  0.00  0.00     0.291 C 
HETATM   23  O   UNK N   1      22.233  18.431   3.555  0.00  0.00    -0.348 OA
HETATM   24  C   UNK N   1      21.626  19.599   3.081  0.00  0.00     0.179 C 
HETATM   25  C   UNK N   1      20.733  19.229   1.885  0.00  0.00     0.180 C 
HETATM   26  C   UNK N   1      19.674  18.226   2.366  0.00  0.00     0.183 C 
HETATM   27  C   UNK N   1      20.304  17.095   3.183  0.00  0.00     0.204 C 
BRANCH  24  28
HETATM   28  C   UNK N   1      22.711  20.599   2.722  0.00  0.00     0.198 C 
BRANCH  28  29
HETATM   29  O   UNK N   1      22.201  21.894   2.780  0.00  0.00    -0.398 OA
HETATM   30  H   UNK N   1      21.981  22.508   3.498  0.00  0.00     0.209 HD
ENDBRANCH  28  29
ENDBRANCH  24  28
BRANCH  25  31
HETATM   31  O   UNK N   1      20.097  20.363   1.375  0.00  0.00    -0.390 OA
HETATM   32  H   UNK N   1      19.155  20.576   1.458  0.00  0.00     0.210 HD
ENDBRANCH  25  31
BRANCH  26  33
HETATM   33  O   UNK N   1      18.970  17.707   1.277  0.00  0.00    -0.390 OA
HETATM   34  H   UNK N   1      18.868  18.175   0.434  0.00  0.00     0.210 HD
ENDBRANCH  26  33
BRANCH  27  35
HETATM   35  O   UNK N   1      19.302  16.341   3.799  0.00  0.00    -0.388 OA
HETATM   36  H   UNK N   1      18.712  16.594   4.526  0.00  0.00     0.210 HD
ENDBRANCH  27  35
ENDBRANCH  21  22
ENDBRANCH  20  21
ENDBRANCH  16  20
BRANCH  17  37
HETATM   37  O   UNK N   1      20.290  17.032   9.022  0.00  0.00    -0.390 OA
HETATM   38  H   UNK N   1      20.394  16.991   9.985  0.00  0.00     0.210 HD
ENDBRANCH  17  37
BRANCH  18  39
HETATM   39  O   UNK N   1      19.324  14.402   9.789  0.00  0.00    -0.390 OA
HETATM   40  H   UNK N   1      18.497  14.061   9.414  0.00  0.00     0.210 HD
ENDBRANCH  18  39
BRANCH  19  41
HETATM   41  O   UNK N   1      21.236  12.359   9.010  0.00  0.00    -0.388 OA
HETATM   42  H   UNK N   1      22.108  12.081   9.330  0.00  0.00     0.210 HD
ENDBRANCH  19  41
ENDBRANCH  13  14
ENDBRANCH  11  13
ENDBRANCH   9  11
ENDBRANCH   7   8
ENDBRANCH   4   6
ENDBRANCH   1   3
BRANCH   2  43
HETATM   43  C   UNK N   1      26.611  16.132   2.701  0.00  0.00     0.007 C 
HETATM   44  C   UNK N   1      27.710  15.721   3.371  0.00  0.00    -0.062 C 
HETATM   45  C   UNK N   1      29.025  15.849   2.687  0.00  0.00     0.048 C 
BRANCH  44  46
HETATM   46  C   UNK N   1      27.709  15.134   4.736  0.00  0.00     0.007 C 
HETATM   47  C   UNK N   1      27.509  13.839   5.008  0.00  0.00     0.001 C 
BRANCH  47  48
HETATM   48  C   UNK N   1      27.104  12.885   3.962  0.00  0.00     0.013 C 
HETATM   49  C   UNK N   1      27.934  11.970   3.446  0.00  0.00     0.013 C 
HETATM   50  C   UNK N   1      27.393  11.044   2.409  0.00  0.00     0.054 C 
BRANCH  49  51
HETATM   51  C   UNK N   1      29.356  11.842   3.854  0.00  0.00     0.291 C 
HETATM   52  O   UNK N   1      29.662  11.300   4.910  0.00  0.00    -0.260 OA
BRANCH  51  53
HETATM   53  O   UNK N   1      30.317  12.393   3.078  0.00  0.00    -0.283 OA
BRANCH  53  54
HETATM   54  C   UNK N   1      31.405  13.011   3.643  0.00  0.00     0.301 C 
HETATM   55  O   UNK N   1      30.929  13.892   4.627  0.00  0.00    -0.348 OA
HETATM   56  C   UNK N   1      32.035  14.313   5.368  0.00  0.00     0.180 C 
HETATM   57  C   UNK N   1      32.817  15.315   4.518  0.00  0.00     0.180 C 
HETATM   58  C   UNK N   1      33.317  14.555   3.281  0.00  0.00     0.183 C 
HETATM   59  C   UNK N   1      32.172  13.809   2.588  0.00  0.00     0.205 C 
BRANCH  56  60
HETATM   60  C   UNK N   1      31.533  14.897   6.672  0.00  0.00     0.205 C 
BRANCH  60  61
HETATM   61  O   UNK N   1      31.583  16.294   6.586  0.00  0.00    -0.356 OA
BRANCH  61  62
HETATM   62  C   UNK N   1      30.432  16.761   7.228  0.00  0.00     0.291 C 
HETATM   63  O   UNK N   1      29.781  17.700   6.408  0.00  0.00    -0.348 OA
HETATM   64  C   UNK N   1      28.501  17.874   6.955  0.00  0.00     0.179 C 
HETATM   65  C   UNK N   1      28.629  18.704   8.238  0.00  0.00     0.180 C 
HETATM   66  C   UNK N   1      29.513  17.929   9.220  0.00  0.00     0.183 C 
HETATM   67  C   UNK N   1      30.804  17.454   8.546  0.00  0.00     0.204 C 
BRANCH  64  68
HETATM   68  C   UNK N   1      27.610  18.555   5.932  0.00  0.00     0.198 C 
BRANCH  68  69
HETATM   69  O   UNK N   1      27.665  19.939   6.110  0.00  0.00    -0.398 OA
HETATM   70  H   UNK N   1      28.298  20.501   5.636  0.00  0.00     0.209 HD
ENDBRANCH  68  69
ENDBRANCH  64  68
BRANCH  65  71
HETATM   71  O   UNK N   1      27.372  18.914   8.810  0.00  0.00    -0.390 OA
HETATM   72  H   UNK N   1      26.509  18.779   8.388  0.00  0.00     0.210 HD
ENDBRANCH  65  71
BRANCH  66  73
HETATM   73  O   UNK N   1      29.809  18.720  10.331  0.00  0.00    -0.390 OA
HETATM   74  H   UNK N   1      29.472  19.621  10.453  0.00  0.00     0.210 HD
ENDBRANCH  66  73
BRANCH  67  75
HETATM   75  O   UNK N   1      31.480  16.571   9.390  0.00  0.00    -0.388 OA
HETATM   76  H   UNK N   1      32.433  16.390   9.407  0.00  0.00     0.210 HD
ENDBRANCH  67  75
ENDBRANCH  61  62
ENDBRANCH  60  61
ENDBRANCH  56  60
BRANCH  57  77
HETATM   77  O   UNK N   1      33.908  15.812   5.234  0.00  0.00    -0.390 OA
HETATM   78  H   UNK N   1      34.285  15.424   6.038  0.00  0.00     0.210 HD
ENDBRANCH  57  77
BRANCH  58  79
HETATM   79  O   UNK N   1      33.929  15.434   2.386  0.00  0.00    -0.390 OA
HETATM   80  H   UNK N   1      33.829  15.353   1.425  0.00  0.00     0.210 HD
ENDBRANCH  58  79
BRANCH  59  81
HETATM   81  O   UNK N   1      32.689  12.945   1.622  0.00  0.00    -0.388 OA
HETATM   82  H   UNK N   1      32.223  12.409   0.962  0.00  0.00     0.210 HD
ENDBRANCH  59  81
ENDBRANCH  53  54
ENDBRANCH  51  53
ENDBRANCH  49  51
ENDBRANCH  47  48
ENDBRANCH  44  46
ENDBRANCH   2  43
TORSDOF 34
ENDMDL
MODEL 4
REMARK VINA RESULT:      -8.1      1.787      3.246
REMARK WARNING: 32 MAX_TORS EXCEEDED!!!
REMARK  34 active torsions:
REMARK  status: ('A' for Active; 'I' for Inactive)
REMARK    1  A    between atoms: C_36  and  O_5 
REMARK    2  A    between atoms: O_5  and  C_43 
REMARK    3  A    between atoms: C_35  and  O_6 
REMARK    4  A    between atoms: O_6  and  C_44 
REMARK    5  A    between atoms: C_27  and  O_7 
REMARK    6  A    between atoms: C_28  and  O_8 
REMARK    7  A    between atoms: C_29  and  O_9 
REMARK    8  A    between atoms: C_30  and  O_10 
REMARK    9  A    between atoms: C_32  and  O_11 
REMARK   10  A    between atoms: C_31  and  O_12 
REMARK   11  A    between atoms: C_33  and  O_13 
REMARK   12  A    between atoms: C_34  and  O_14 
REMARK   13  A    between atoms: C_37  and  O_15 
REMARK   14  A    between atoms: C_38  and  O_16 
REMARK   15  A    between atoms: C_42  and  O_17 
REMARK   16  A    between atoms: C_41  and  O_18 
REMARK   17  A    between atoms: C_45  and  O_19 
REMARK   18  A    between atoms: O_19  and  C_50 
REMARK   19  A    between atoms: C_46  and  O_20 
REMARK   20  A    between atoms: O_20  and  C_49 
REMARK   21  A    between atoms: O_21  and  C_48 
REMARK   22  A    between atoms: O_22  and  C_47 
REMARK   23  A    between atoms: C_25  and  C_44 
REMARK   24  A    between atoms: C_26  and  C_43 
REMARK   25  A    between atoms: C_39  and  C_47 
REMARK   26  A    between atoms: C_40  and  C_48 
REMARK   27  A    between atoms: C_49  and  C_51 
REMARK   28  A    between atoms: C_50  and  C_52 
REMARK   29  A    between atoms: C_55  and  C_57 
REMARK   30  A    between atoms: C_56  and  C_58 
REMARK   31  A    between atoms: C_59  and  C_61 
REMARK   32  A    between atoms: C_60  and  C_62 
REMARK   33  A    between atoms: C_65  and  C_68 
REMARK   34  A    between atoms: C_66  and  C_67 
ROOT
HETATM    1  C   UNK N   1      27.098  12.790   5.329  0.00  0.00     0.001 C 
HETATM    2  C   UNK N   1      28.267  12.671   4.671  0.00  0.00     0.001 C 
ENDROOT
BRANCH   1   3
HETATM    3  C   UNK N   1      25.773  12.465   4.756  0.00  0.00     0.007 C 
HETATM    4  C   UNK N   1      24.698  13.250   4.875  0.00  0.00    -0.062 C 
HETATM    5  C   UNK N   1      23.422  12.806   4.235  0.00  0.00     0.048 C 
BRANCH   4   6
HETATM    6  C   UNK N   1      24.756  14.499   5.675  0.00  0.00     0.007 C 
HETATM    7  C   UNK N   1      24.562  14.528   6.995  0.00  0.00     0.001 C 
BRANCH   7   8
HETATM    8  C   UNK N   1      24.367  13.287   7.767  0.00  0.00     0.013 C 
HETATM    9  C   UNK N   1      23.190  12.837   8.218  0.00  0.00     0.013 C 
HETATM   10  C   UNK N   1      23.182  11.539   8.947  0.00  0.00     0.054 C 
BRANCH   9  11
HETATM   11  C   UNK N   1      21.913  13.561   8.030  0.00  0.00     0.291 C 
HETATM   12  O   UNK N   1      21.567  14.434   8.810  0.00  0.00    -0.260 OA
BRANCH  11  13
HETATM   13  O   UNK N   1      21.147  13.260   6.946  0.00  0.00    -0.283 OA
BRANCH  13  14
HETATM   14  C   UNK N   1      20.431  14.211   6.256  0.00  0.00     0.301 C 
HETATM   15  O   UNK N   1      21.272  15.282   5.935  0.00  0.00    -0.348 OA
HETATM   16  C   UNK N   1      20.412  16.330   5.615  0.00  0.00     0.180 C 
HETATM   17  C   UNK N   1      19.892  16.090   4.197  0.00  0.00     0.180 C 
HETATM   18  C   UNK N   1      19.106  14.766   4.228  0.00  0.00     0.183 C 
HETATM   19  C   UNK N   1      19.885  13.647   4.942  0.00  0.00     0.205 C 
BRANCH  16  20
HETATM   20  C   UNK N   1      21.149  17.630   5.830  0.00  0.00     0.205 C 
BRANCH  20  21
HETATM   21  O   UNK N   1      22.522  17.352   5.769  0.00  0.00    -0.356 OA
BRANCH  21  22
HETATM   22  C   UNK N   1      23.017  18.099   4.702  0.00  0.00     0.291 C 
HETATM   23  O   UNK N   1      22.087  19.090   4.348  0.00  0.00    -0.348 OA
HETATM   24  C   UNK N   1      22.470  19.522   3.073  0.00  0.00     0.179 C 
HETATM   25  C   UNK N   1      23.727  20.397   3.216  0.00  0.00     0.180 C 
HETATM   26  C   UNK N   1      24.836  19.549   3.856  0.00  0.00     0.183 C 
HETATM   27  C   UNK N   1      24.326  18.798   5.089  0.00  0.00     0.204 C 
BRANCH  24  28
HETATM   28  C   UNK N   1      21.305  20.260   2.439  0.00  0.00     0.198 C 
BRANCH  28  29
HETATM   29  O   UNK N   1      21.427  21.629   2.671  0.00  0.00    -0.398 OA
HETATM   30  H   UNK N   1      21.313  22.424   2.128  0.00  0.00     0.209 HD
ENDBRANCH  28  29
ENDBRANCH  24  28
BRANCH  25  31
HETATM   31  O   UNK N   1      24.156  20.852   1.968  0.00  0.00    -0.390 OA
HETATM   32  H   UNK N   1      24.984  21.322   1.783  0.00  0.00     0.210 HD
ENDBRANCH  25  31
BRANCH  26  33
HETATM   33  O   UNK N   1      25.927  20.353   4.192  0.00  0.00    -0.390 OA
HETATM   34  H   UNK N   1      25.954  20.914   4.982  0.00  0.00     0.210 HD
ENDBRANCH  26  33
BRANCH  27  35
HETATM   35  O   UNK N   1      25.278  17.863   5.501  0.00  0.00    -0.388 OA
HETATM   36  H   UNK N   1      26.124  18.016   5.950  0.00  0.00     0.210 HD
ENDBRANCH  27  35
ENDBRANCH  21  22
ENDBRANCH  20  21
ENDBRANCH  16  20
BRANCH  17  37
HETATM   37  O   UNK N   1      19.041  17.126   3.809  0.00  0.00    -0.390 OA
HETATM   38  H   UNK N   1      18.078  17.109   3.927  0.00  0.00     0.210 HD
ENDBRANCH  17  37
BRANCH  18  39
HETATM   39  O   UNK N   1      18.767  14.370   2.934  0.00  0.00    -0.390 OA
HETATM   40  H   UNK N   1      19.063  13.541   2.526  0.00  0.00     0.210 HD
ENDBRANCH  18  39
BRANCH  19  41
HETATM   41  O   UNK N   1      19.040  12.564   5.193  0.00  0.00    -0.388 OA
HETATM   42  H   UNK N   1      18.140  12.505   5.548  0.00  0.00     0.210 HD
ENDBRANCH  19  41
ENDBRANCH  13  14
ENDBRANCH  11  13
ENDBRANCH   9  11
ENDBRANCH   7   8
ENDBRANCH   4   6
ENDBRANCH   1   3
BRANCH   2  43
HETATM   43  C   UNK N   1      28.465  12.099   3.309  0.00  0.00     0.007 C 
HETATM   44  C   UNK N   1      29.201  12.597   2.290  0.00  0.00    -0.062 C 
HETATM   45  C   UNK N   1      29.314  11.778   1.054  0.00  0.00     0.048 C 
BRANCH  44  46
HETATM   46  C   UNK N   1      29.922  13.896   2.312  0.00  0.00     0.007 C 
HETATM   47  C   UNK N   1      29.330  15.096   2.345  0.00  0.00     0.001 C 
BRANCH  47  48
HETATM   48  C   UNK N   1      27.872  15.241   2.198  0.00  0.00     0.013 C 
HETATM   49  C   UNK N   1      27.141  16.075   2.948  0.00  0.00     0.013 C 
HETATM   50  C   UNK N   1      25.675  16.148   2.682  0.00  0.00     0.054 C 
BRANCH  49  51
HETATM   51  C   UNK N   1      27.721  16.918   4.024  0.00  0.00     0.291 C 
HETATM   52  O   UNK N   1      27.973  18.102   3.830  0.00  0.00    -0.260 OA
BRANCH  51  53
HETATM   53  O   UNK N   1      28.036  16.350   5.210  0.00  0.00    -0.283 OA
BRANCH  53  54
HETATM   54  C   UNK N   1      28.982  16.915   6.028  0.00  0.00     0.301 C 
HETATM   55  O   UNK N   1      29.885  15.903   6.393  0.00  0.00    -0.348 OA
HETATM   56  C   UNK N   1      30.977  16.529   6.999  0.00  0.00     0.180 C 
HETATM   57  C   UNK N   1      30.548  16.973   8.397  0.00  0.00     0.180 C 
HETATM   58  C   UNK N   1      29.430  18.009   8.214  0.00  0.00     0.183 C 
HETATM   59  C   UNK N   1      28.328  17.476   7.291  0.00  0.00     0.205 C 
BRANCH  56  60
HETATM   60  C   UNK N   1      32.134  15.553   7.008  0.00  0.00     0.205 C 
BRANCH  60  61
HETATM   61  O   UNK N   1      31.894  14.583   7.990  0.00  0.00    -0.356 OA
BRANCH  61  62
HETATM   62  C   UNK N   1      33.130  14.333   8.594  0.00  0.00     0.291 C 
HETATM   63  O   UNK N   1      33.633  15.521   9.154  0.00  0.00    -0.348 OA
HETATM   64  C   UNK N   1      34.683  15.139  10.002  0.00  0.00     0.179 C 
HETATM   65  C   UNK N   1      35.885  14.738   9.138  0.00  0.00     0.180 C 
HETATM   66  C   UNK N   1      35.466  13.552   8.262  0.00  0.00     0.183 C 
HETATM   67  C   UNK N   1      34.138  13.831   7.551  0.00  0.00     0.204 C 
BRANCH  64  68
HETATM   68  C   UNK N   1      35.020  16.292  10.930  0.00  0.00     0.198 C 
BRANCH  68  69
HETATM   69  O   UNK N   1      35.652  17.306  10.208  0.00  0.00    -0.398 OA
HETATM   70  H   UNK N   1      36.485  17.166   9.732  0.00  0.00     0.209 HD
ENDBRANCH  68  69
ENDBRANCH  64  68
BRANCH  65  71
HETATM   71  O   UNK N   1      36.961  14.362   9.944  0.00  0.00    -0.390 OA
HETATM   72  H   UNK N   1      37.712  14.915  10.210  0.00  0.00     0.210 HD
ENDBRANCH  65  71
BRANCH  66  73
HETATM   73  O   UNK N   1      36.464  13.265   7.329  0.00  0.00    -0.390 OA
HETATM   74  H   UNK N   1      37.197  12.654   7.498  0.00  0.00     0.210 HD
ENDBRANCH  66  73
BRANCH  67  75
HETATM   75  O   UNK N   1      33.673  12.663   6.943  0.00  0.00    -0.388 OA
HETATM   76  H   UNK N   1      33.616  11.780   7.339  0.00  0.00     0.210 HD
ENDBRANCH  67  75
ENDBRANCH  61  62
ENDBRANCH  60  61
ENDBRANCH  56  60
BRANCH  57  77
HETATM   77  O   UNK N   1      31.621  17.559   9.072  0.00  0.00    -0.390 OA
HETATM   78  H   UNK N   1      32.088  17.181   9.834  0.00  0.00     0.210 HD
ENDBRANCH  57  77
BRANCH  58  79
HETATM   79  O   UNK N   1      28.890  18.365   9.450  0.00  0.00    -0.390 OA
HETATM   80  H   UNK N   1      29.040  17.844  10.254  0.00  0.00     0.210 HD
ENDBRANCH  58  79
BRANCH  59  81
HETATM   81  O   UNK N   1      27.456  18.513   6.952  0.00  0.00    -0.388 OA
HETATM   82  H   UNK N   1      26.533  18.470   6.659  0.00  0.00     0.210 HD
ENDBRANCH  59  81
ENDBRANCH  53  54
ENDBRANCH  51  53
ENDBRANCH  49  51
ENDBRANCH  47  48
ENDBRANCH  44  46
ENDBRANCH   2  43
TORSDOF 34
ENDMDL
MODEL 5
REMARK VINA RESULT:      -8.1      2.382     12.458
REMARK WARNING: 32 MAX_TORS EXCEEDED!!!
REMARK  34 active torsions:
REMARK  status: ('A' for Active; 'I' for Inactive)
REMARK    1  A    between atoms: C_36  and  O_5 
REMARK    2  A    between atoms: O_5  and  C_43 
REMARK    3  A    between atoms: C_35  and  O_6 
REMARK    4  A    between atoms: O_6  and  C_44 
REMARK    5  A    between atoms: C_27  and  O_7 
REMARK    6  A    between atoms: C_28  and  O_8 
REMARK    7  A    between atoms: C_29  and  O_9 
REMARK    8  A    between atoms: C_30  and  O_10 
REMARK    9  A    between atoms: C_32  and  O_11 
REMARK   10  A    between atoms: C_31  and  O_12 
REMARK   11  A    between atoms: C_33  and  O_13 
REMARK   12  A    between atoms: C_34  and  O_14 
REMARK   13  A    between atoms: C_37  and  O_15 
REMARK   14  A    between atoms: C_38  and  O_16 
REMARK   15  A    between atoms: C_42  and  O_17 
REMARK   16  A    between atoms: C_41  and  O_18 
REMARK   17  A    between atoms: C_45  and  O_19 
REMARK   18  A    between atoms: O_19  and  C_50 
REMARK   19  A    between atoms: C_46  and  O_20 
REMARK   20  A    between atoms: O_20  and  C_49 
REMARK   21  A    between atoms: O_21  and  C_48 
REMARK   22  A    between atoms: O_22  and  C_47 
REMARK   23  A    between atoms: C_25  and  C_44 
REMARK   24  A    between atoms: C_26  and  C_43 
REMARK   25  A    between atoms: C_39  and  C_47 
REMARK   26  A    between atoms: C_40  and  C_48 
REMARK   27  A    between atoms: C_49  and  C_51 
REMARK   28  A    between atoms: C_50  and  C_52 
REMARK   29  A    between atoms: C_55  and  C_57 
REMARK   30  A    between atoms: C_56  and  C_58 
REMARK   31  A    between atoms: C_59  and  C_61 
REMARK   32  A    between atoms: C_60  and  C_62 
REMARK   33  A    between atoms: C_65  and  C_68 
REMARK   34  A    between atoms: C_66  and  C_67 
ROOT
HETATM    1  C   UNK N   1      26.852  15.976   6.803  0.00  0.00     0.001 C 
HETATM    2  C   UNK N   1      27.279  14.940   6.058  0.00  0.00     0.001 C 
ENDROOT
BRANCH   1   3
HETATM    3  C   UNK N   1      26.978  17.399   6.417  0.00  0.00     0.007 C 
HETATM    4  C   UNK N   1      28.016  18.172   6.750  0.00  0.00    -0.062 C 
HETATM    5  C   UNK N   1      28.023  19.592   6.282  0.00  0.00     0.048 C 
BRANCH   4   6
HETATM    6  C   UNK N   1      29.103  17.649   7.615  0.00  0.00     0.007 C 
HETATM    7  C   UNK N   1      30.236  17.136   7.131  0.00  0.00     0.001 C 
BRANCH   7   8
HETATM    8  C   UNK N   1      30.522  17.144   5.685  0.00  0.00     0.013 C 
HETATM    9  C   UNK N   1      31.280  16.246   5.044  0.00  0.00     0.013 C 
HETATM   10  C   UNK N   1      31.424  16.392   3.570  0.00  0.00     0.054 C 
BRANCH   9  11
HETATM   11  C   UNK N   1      31.972  15.128   5.725  0.00  0.00     0.291 C 
HETATM   12  O   UNK N   1      31.454  14.025   5.802  0.00  0.00    -0.260 OA
BRANCH  11  13
HETATM   13  O   UNK N   1      33.217  15.344   6.231  0.00  0.00    -0.283 OA
BRANCH  13  14
HETATM   14  C   UNK N   1      33.426  15.841   7.497  0.00  0.00     0.301 C 
HETATM   15  O   UNK N   1      34.053  14.867   8.280  0.00  0.00    -0.348 OA
HETATM   16  C   UNK N   1      33.865  15.287   9.595  0.00  0.00     0.180 C 
HETATM   17  C   UNK N   1      34.870  16.405   9.876  0.00  0.00     0.180 C 
HETATM   18  C   UNK N   1      34.537  17.558   8.910  0.00  0.00     0.183 C 
HETATM   19  C   UNK N   1      34.345  17.066   7.465  0.00  0.00     0.205 C 
BRANCH  16  20
HETATM   20  C   UNK N   1      33.961  14.080  10.497  0.00  0.00     0.205 C 
BRANCH  20  21
HETATM   21  O   UNK N   1      35.282  14.002  10.960  0.00  0.00    -0.356 OA
BRANCH  21  22
HETATM   22  C   UNK N   1      35.197  13.624  12.299  0.00  0.00     0.291 C 
HETATM   23  O   UNK N   1      35.123  12.225  12.390  0.00  0.00    -0.348 OA
HETATM   24  C   UNK N   1      34.663  11.960  13.685  0.00  0.00     0.179 C 
HETATM   25  C   UNK N   1      35.816  12.215  14.670  0.00  0.00     0.180 C 
HETATM   26  C   UNK N   1      36.247  13.683  14.539  0.00  0.00     0.183 C 
HETATM   27  C   UNK N   1      36.439  14.082  13.073  0.00  0.00     0.204 C 
BRANCH  24  28
HETATM   28  C   UNK N   1      34.147  10.534  13.735  0.00  0.00     0.198 C 
BRANCH  28  29
HETATM   29  O   UNK N   1      35.032   9.733  14.455  0.00  0.00    -0.398 OA
HETATM   30  H   UNK N   1      34.966   9.200  15.262  0.00  0.00     0.209 HD
ENDBRANCH  28  29
ENDBRANCH  24  28
BRANCH  25  31
HETATM   31  O   UNK N   1      35.407  11.970  15.982  0.00  0.00    -0.390 OA
HETATM   32  H   UNK N   1      35.506  12.574  16.734  0.00  0.00     0.210 HD
ENDBRANCH  25  31
BRANCH  26  33
HETATM   33  O   UNK N   1      37.421  13.909  15.261  0.00  0.00    -0.390 OA
HETATM   34  H   UNK N   1      38.283  13.545  15.008  0.00  0.00     0.210 HD
ENDBRANCH  26  33
BRANCH  27  35
HETATM   35  O   UNK N   1      36.595  15.467  12.975  0.00  0.00    -0.388 OA
HETATM   36  H   UNK N   1      36.125  16.092  12.402  0.00  0.00     0.210 HD
ENDBRANCH  27  35
ENDBRANCH  21  22
ENDBRANCH  20  21
ENDBRANCH  16  20
BRANCH  17  37
HETATM   37  O   UNK N   1      34.746  16.852  11.193  0.00  0.00    -0.390 OA
HETATM   38  H   UNK N   1      35.151  17.667  11.528  0.00  0.00     0.210 HD
ENDBRANCH  17  37
BRANCH  18  39
HETATM   39  O   UNK N   1      35.528  18.538   8.960  0.00  0.00    -0.390 OA
HETATM   40  H   UNK N   1      36.476  18.356   8.859  0.00  0.00     0.210 HD
ENDBRANCH  18  39
BRANCH  19  41
HETATM   41  O   UNK N   1      33.778  18.077   6.688  0.00  0.00    -0.388 OA
HETATM   42  H   UNK N   1      33.850  19.044   6.719  0.00  0.00     0.210 HD
ENDBRANCH  19  41
ENDBRANCH  13  14
ENDBRANCH  11  13
ENDBRANCH   9  11
ENDBRANCH   7   8
ENDBRANCH   4   6
ENDBRANCH   1   3
BRANCH   2  43
HETATM   43  C   UNK N   1      27.849  15.010   4.682  0.00  0.00     0.007 C 
HETATM   44  C   UNK N   1      27.208  15.277   3.522  0.00  0.00    -0.062 C 
HETATM   45  C   UNK N   1      28.029  15.383   2.287  0.00  0.00     0.048 C 
BRANCH  44  46
HETATM   46  C   UNK N   1      25.744  15.490   3.385  0.00  0.00     0.007 C 
HETATM   47  C   UNK N   1      25.171  16.657   3.063  0.00  0.00     0.001 C 
BRANCH  47  48
HETATM   48  C   UNK N   1      25.953  17.901   2.969  0.00  0.00     0.013 C 
HETATM   49  C   UNK N   1      25.522  19.073   3.451  0.00  0.00     0.013 C 
HETATM   50  C   UNK N   1      26.422  20.255   3.316  0.00  0.00     0.054 C 
BRANCH  49  51
HETATM   51  C   UNK N   1      24.200  19.245   4.105  0.00  0.00     0.291 C 
HETATM   52  O   UNK N   1      24.071  19.095   5.315  0.00  0.00    -0.260 OA
BRANCH  51  53
HETATM   53  O   UNK N   1      23.115  19.505   3.340  0.00  0.00    -0.283 OA
BRANCH  53  54
HETATM   54  C   UNK N   1      21.877  19.031   3.697  0.00  0.00     0.301 C 
HETATM   55  O   UNK N   1      22.069  17.828   4.395  0.00  0.00    -0.348 OA
HETATM   56  C   UNK N   1      20.844  17.494   4.977  0.00  0.00     0.180 C 
HETATM   57  C   UNK N   1      19.924  16.976   3.871  0.00  0.00     0.180 C 
HETATM   58  C   UNK N   1      19.701  18.140   2.895  0.00  0.00     0.183 C 
HETATM   59  C   UNK N   1      21.034  18.755   2.452  0.00  0.00     0.205 C 
BRANCH  56  60
HETATM   60  C   UNK N   1      21.102  16.476   6.067  0.00  0.00     0.205 C 
BRANCH  60  61
HETATM   61  O   UNK N   1      21.147  15.201   5.488  0.00  0.00    -0.356 OA
BRANCH  61  62
HETATM   62  C   UNK N   1      21.508  14.324   6.515  0.00  0.00     0.291 C 
HETATM   63  O   UNK N   1      21.007  14.799   7.741  0.00  0.00    -0.348 OA
HETATM   64  C   UNK N   1      21.120  13.734   8.647  0.00  0.00     0.179 C 
HETATM   65  C   UNK N   1      22.597  13.569   9.023  0.00  0.00     0.180 C 
HETATM   66  C   UNK N   1      23.381  13.250   7.745  0.00  0.00     0.183 C 
HETATM   67  C   UNK N   1      23.036  14.235   6.624  0.00  0.00     0.204 C 
BRANCH  64  68
HETATM   68  C   UNK N   1      20.260  14.021   9.864  0.00  0.00     0.198 C 
BRANCH  68  69
HETATM   69  O   UNK N   1      20.029  12.836  10.565  0.00  0.00    -0.398 OA
HETATM   70  H   UNK N   1      19.255  12.275  10.400  0.00  0.00     0.209 HD
ENDBRANCH  68  69
ENDBRANCH  64  68
BRANCH  65  71
HETATM   71  O   UNK N   1      22.754  12.525   9.937  0.00  0.00    -0.390 OA
HETATM   72  H   UNK N   1      22.730  12.588  10.905  0.00  0.00     0.210 HD
ENDBRANCH  65  71
BRANCH  66  73
HETATM   73  O   UNK N   1      24.752  13.270   8.003  0.00  0.00    -0.390 OA
HETATM   74  H   UNK N   1      25.430  13.243   7.309  0.00  0.00     0.210 HD
ENDBRANCH  66  73
BRANCH  67  75
HETATM   75  O   UNK N   1      23.588  13.792   5.421  0.00  0.00    -0.388 OA
HETATM   76  H   UNK N   1      23.116  13.407   4.666  0.00  0.00     0.210 HD
ENDBRANCH  67  75
ENDBRANCH  61  62
ENDBRANCH  60  61
ENDBRANCH  56  60
BRANCH  57  77
HETATM   77  O   UNK N   1      18.699  16.574   4.406  0.00  0.00    -0.390 OA
HETATM   78  H   UNK N   1      18.354  16.812   5.281  0.00  0.00     0.210 HD
ENDBRANCH  57  77
BRANCH  58  79
HETATM   79  O   UNK N   1      18.978  17.709   1.782  0.00  0.00    -0.390 OA
HETATM   80  H   UNK N   1      18.682  18.315   1.085  0.00  0.00     0.210 HD
ENDBRANCH  58  79
BRANCH  59  81
HETATM   81  O   UNK N   1      20.797  19.947   1.765  0.00  0.00    -0.388 OA
HETATM   82  H   UNK N   1      21.102  20.223   0.887  0.00  0.00     0.210 HD
ENDBRANCH  59  81
ENDBRANCH  53  54
ENDBRANCH  51  53
ENDBRANCH  49  51
ENDBRANCH  47  48
ENDBRANCH  44  46
ENDBRANCH   2  43
TORSDOF 34
ENDMDL
MODEL 6
REMARK VINA RESULT:      -8.1      2.193      3.995
REMARK WARNING: 32 MAX_TORS EXCEEDED!!!
REMARK  34 active torsions:
REMARK  status: ('A' for Active; 'I' for Inactive)
REMARK    1  A    between atoms: C_36  and  O_5 
REMARK    2  A    between atoms: O_5  and  C_43 
REMARK    3  A    between atoms: C_35  and  O_6 
REMARK    4  A    between atoms: O_6  and  C_44 
REMARK    5  A    between atoms: C_27  and  O_7 
REMARK    6  A    between atoms: C_28  and  O_8 
REMARK    7  A    between atoms: C_29  and  O_9 
REMARK    8  A    between atoms: C_30  and  O_10 
REMARK    9  A    between atoms: C_32  and  O_11 
REMARK   10  A    between atoms: C_31  and  O_12 
REMARK   11  A    between atoms: C_33  and  O_13 
REMARK   12  A    between atoms: C_34  and  O_14 
REMARK   13  A    between atoms: C_37  and  O_15 
REMARK   14  A    between atoms: C_38  and  O_16 
REMARK   15  A    between atoms: C_42  and  O_17 
REMARK   16  A    between atoms: C_41  and  O_18 
REMARK   17  A    between atoms: C_45  and  O_19 
REMARK   18  A    between atoms: O_19  and  C_50 
REMARK   19  A    between atoms: C_46  and  O_20 
REMARK   20  A    between atoms: O_20  and  C_49 
REMARK   21  A    between atoms: O_21  and  C_48 
REMARK   22  A    between atoms: O_22  and  C_47 
REMARK   23  A    between atoms: C_25  and  C_44 
REMARK   24  A    between atoms: C_26  and  C_43 
REMARK   25  A    between atoms: C_39  and  C_47 
REMARK   26  A    between atoms: C_40  and  C_48 
REMARK   27  A    between atoms: C_49  and  C_51 
REMARK   28  A    between atoms: C_50  and  C_52 
REMARK   29  A    between atoms: C_55  and  C_57 
REMARK   30  A    between atoms: C_56  and  C_58 
REMARK   31  A    between atoms: C_59  and  C_61 
REMARK   32  A    between atoms: C_60  and  C_62 
REMARK   33  A    between atoms: C_65  and  C_68 
REMARK   34  A    between atoms: C_66  and  C_67 
ROOT
HETATM    1  C   UNK N   1      24.885  14.516   7.417  0.00  0.00     0.001 C 
HETATM    2  C   UNK N   1      24.983  14.045   6.159  0.00  0.00     0.001 C 
ENDROOT
BRANCH   1   3
HETATM    3  C   UNK N   1      25.212  13.739   8.634  0.00  0.00     0.007 C 
HETATM    4  C   UNK N   1      24.307  13.072   9.356  0.00  0.00    -0.062 C 
HETATM    5  C   UNK N   1      24.776  12.316  10.558  0.00  0.00     0.048 C 
BRANCH   4   6
HETATM    6  C   UNK N   1      22.866  13.131   9.007  0.00  0.00     0.007 C 
HETATM    7  C   UNK N   1      22.265  12.221   8.237  0.00  0.00     0.001 C 
BRANCH   7   8
HETATM    8  C   UNK N   1      22.987  11.030   7.755  0.00  0.00     0.013 C 
HETATM    9  C   UNK N   1      22.776  10.424   6.581  0.00  0.00     0.013 C 
HETATM   10  C   UNK N   1      23.632   9.253   6.246  0.00  0.00     0.054 C 
BRANCH   9  11
HETATM   11  C   UNK N   1      21.743  10.856   5.613  0.00  0.00     0.291 C 
HETATM   12  O   UNK N   1      20.578  10.518   5.748  0.00  0.00    -0.260 OA
BRANCH  11  13
HETATM   13  O   UNK N   1      22.112  11.672   4.588  0.00  0.00    -0.283 OA
BRANCH  13  14
HETATM   14  C   UNK N   1      21.219  12.484   3.928  0.00  0.00     0.301 C 
HETATM   15  O   UNK N   1      21.784  13.751   3.753  0.00  0.00    -0.348 OA
HETATM   16  C   UNK N   1      20.708  14.586   3.457  0.00  0.00     0.180 C 
HETATM   17  C   UNK N   1      20.333  14.362   1.992  0.00  0.00     0.180 C 
HETATM   18  C   UNK N   1      19.897  12.891   1.863  0.00  0.00     0.183 C 
HETATM   19  C   UNK N   1      20.892  11.931   2.538  0.00  0.00     0.205 C 
BRANCH  16  20
HETATM   20  C   UNK N   1      21.091  15.999   3.826  0.00  0.00     0.205 C 
BRANCH  20  21
HETATM   21  O   UNK N   1      19.947  16.797   3.687  0.00  0.00    -0.356 OA
BRANCH  21  22
HETATM   22  C   UNK N   1      20.406  18.106   3.548  0.00  0.00     0.291 C 
HETATM   23  O   UNK N   1      21.801  18.102   3.387  0.00  0.00    -0.348 OA
HETATM   24  C   UNK N   1      22.209  19.416   3.639  0.00  0.00     0.179 C 
HETATM   25  C   UNK N   1      21.820  20.284   2.431  0.00  0.00     0.180 C 
HETATM   26  C   UNK N   1      20.295  20.215   2.258  0.00  0.00     0.183 C 
HETATM   27  C   UNK N   1      19.791  18.770   2.311  0.00  0.00     0.204 C 
BRANCH  24  28
HETATM   28  C   UNK N   1      23.702  19.418   3.912  0.00  0.00     0.198 C 
BRANCH  28  29
HETATM   29  O   UNK N   1      24.265  20.613   3.467  0.00  0.00    -0.398 OA
HETATM   30  H   UNK N   1      24.983  21.185   3.779  0.00  0.00     0.209 HD
ENDBRANCH  28  29
ENDBRANCH  24  28
BRANCH  25  31
HETATM   31  O   UNK N   1      22.201  21.612   2.634  0.00  0.00    -0.390 OA
HETATM   32  H   UNK N   1      22.851  21.927   3.280  0.00  0.00     0.210 HD
ENDBRANCH  25  31
BRANCH  26  33
HETATM   33  O   UNK N   1      19.917  20.818   1.057  0.00  0.00    -0.390 OA
HETATM   34  H   UNK N   1      18.996  20.887   0.760  0.00  0.00     0.210 HD
ENDBRANCH  26  33
BRANCH  27  35
HETATM   35  O   UNK N   1      18.396  18.758   2.389  0.00  0.00    -0.388 OA
HETATM   36  H   UNK N   1      17.832  18.860   3.171  0.00  0.00     0.210 HD
ENDBRANCH  27  35
ENDBRANCH  21  22
ENDBRANCH  20  21
ENDBRANCH  16  20
BRANCH  17  37
HETATM   37  O   UNK N   1      19.273  15.194   1.628  0.00  0.00    -0.390 OA
HETATM   38  H   UNK N   1      18.426  14.872   1.284  0.00  0.00     0.210 HD
ENDBRANCH  17  37
BRANCH  18  39
HETATM   39  O   UNK N   1      19.730  12.548   0.521  0.00  0.00    -0.390 OA
HETATM   40  H   UNK N   1      20.009  13.108  -0.221  0.00  0.00     0.210 HD
ENDBRANCH  18  39
BRANCH  19  41
HETATM   41  O   UNK N   1      20.329  10.658   2.643  0.00  0.00    -0.388 OA
HETATM   42  H   UNK N   1      20.151  10.082   3.401  0.00  0.00     0.210 HD
ENDBRANCH  19  41
ENDBRANCH  13  14
ENDBRANCH  11  13
ENDBRANCH   9  11
ENDBRANCH   7   8
ENDBRANCH   4   6
ENDBRANCH   1   3
BRANCH   2  43
HETATM   43  C   UNK N   1      25.532  12.722   5.746  0.00  0.00     0.007 C 
HETATM   44  C   UNK N   1      25.636  12.211   4.499  0.00  0.00    -0.062 C 
HETATM   45  C   UNK N   1      26.314  10.896   4.344  0.00  0.00     0.048 C 
BRANCH  44  46
HETATM   46  C   UNK N   1      25.139  12.868   3.262  0.00  0.00     0.007 C 
HETATM   47  C   UNK N   1      25.921  13.337   2.282  0.00  0.00     0.001 C 
BRANCH  47  48
HETATM   48  C   UNK N   1      27.386  13.386   2.421  0.00  0.00     0.013 C 
HETATM   49  C   UNK N   1      28.036  14.435   2.938  0.00  0.00     0.013 C 
HETATM   50  C   UNK N   1      29.522  14.350   3.047  0.00  0.00     0.054 C 
BRANCH  49  51
HETATM   51  C   UNK N   1      27.350  15.668   3.401  0.00  0.00     0.291 C 
HETATM   52  O   UNK N   1      27.008  16.535   2.605  0.00  0.00    -0.260 OA
BRANCH  51  53
HETATM   53  O   UNK N   1      27.165  15.862   4.727  0.00  0.00    -0.283 OA
BRANCH  53  54
HETATM   54  C   UNK N   1      28.039  16.633   5.451  0.00  0.00     0.301 C 
HETATM   55  O   UNK N   1      28.908  15.763   6.130  0.00  0.00    -0.348 OA
HETATM   56  C   UNK N   1      29.945  16.543   6.645  0.00  0.00     0.180 C 
HETATM   57  C   UNK N   1      29.402  17.312   7.849  0.00  0.00     0.180 C 
HETATM   58  C   UNK N   1      28.302  18.246   7.323  0.00  0.00     0.183 C 
HETATM   59  C   UNK N   1      27.282  17.477   6.476  0.00  0.00     0.205 C 
BRANCH  56  60
HETATM   60  C   UNK N   1      31.098  15.624   6.992  0.00  0.00     0.205 C 
BRANCH  60  61
HETATM   61  O   UNK N   1      32.189  15.944   6.174  0.00  0.00    -0.356 OA
BRANCH  61  62
HETATM   62  C   UNK N   1      33.281  16.102   7.032  0.00  0.00     0.291 C 
HETATM   63  O   UNK N   1      32.971  15.568   8.296  0.00  0.00    -0.348 OA
HETATM   64  C   UNK N   1      34.188  15.466   8.985  0.00  0.00     0.179 C 
HETATM   65  C   UNK N   1      34.629  16.873   9.405  0.00  0.00     0.180 C 
HETATM   66  C   UNK N   1      34.819  17.712   8.136  0.00  0.00     0.183 C 
HETATM   67  C   UNK N   1      33.607  17.592   7.208  0.00  0.00     0.204 C 
BRANCH  64  68
HETATM   68  C   UNK N   1      34.008  14.553  10.184  0.00  0.00     0.198 C 
BRANCH  68  69
HETATM   69  O   UNK N   1      33.364  15.249  11.210  0.00  0.00    -0.398 OA
HETATM   70  H   UNK N   1      33.289  16.216  11.217  0.00  0.00     0.209 HD
ENDBRANCH  68  69
ENDBRANCH  64  68
BRANCH  65  71
HETATM   71  O   UNK N   1      35.834  16.817  10.109  0.00  0.00    -0.390 OA
HETATM   72  H   UNK N   1      36.030  17.230  10.964  0.00  0.00     0.210 HD
ENDBRANCH  65  71
BRANCH  66  73
HETATM   73  O   UNK N   1      35.043  19.048   8.470  0.00  0.00    -0.390 OA
HETATM   74  H   UNK N   1      34.602  19.499   9.208  0.00  0.00     0.210 HD
ENDBRANCH  66  73
BRANCH  67  75
HETATM   75  O   UNK N   1      33.897  18.179   5.975  0.00  0.00    -0.388 OA
HETATM   76  H   UNK N   1      33.681  19.080   5.690  0.00  0.00     0.210 HD
ENDBRANCH  67  75
ENDBRANCH  61  62
ENDBRANCH  60  61
ENDBRANCH  56  60
BRANCH  57  77
HETATM   77  O   UNK N   1      30.414  18.069   8.441  0.00  0.00    -0.390 OA
HETATM   78  H   UNK N   1      30.889  18.807   8.027  0.00  0.00     0.210 HD
ENDBRANCH  57  77
BRANCH  58  79
HETATM   79  O   UNK N   1      27.661  18.888   8.382  0.00  0.00    -0.390 OA
HETATM   80  H   UNK N   1      27.047  18.428   8.975  0.00  0.00     0.210 HD
ENDBRANCH  58  79
BRANCH  59  81
HETATM   81  O   UNK N   1      26.441  18.378   5.819  0.00  0.00    -0.388 OA
HETATM   82  H   UNK N   1      26.638  19.261   5.470  0.00  0.00     0.210 HD
ENDBRANCH  59  81
ENDBRANCH  53  54
ENDBRANCH  51  53
ENDBRANCH  49  51
ENDBRANCH  47  48
ENDBRANCH  44  46
ENDBRANCH   2  43
TORSDOF 34
ENDMDL
MODEL 7
REMARK VINA RESULT:      -8.1      2.114      3.685
REMARK WARNING: 32 MAX_TORS EXCEEDED!!!
REMARK  34 active torsions:
REMARK  status: ('A' for Active; 'I' for Inactive)
REMARK    1  A    between atoms: C_36  and  O_5 
REMARK    2  A    between atoms: O_5  and  C_43 
REMARK    3  A    between atoms: C_35  and  O_6 
REMARK    4  A    between atoms: O_6  and  C_44 
REMARK    5  A    between atoms: C_27  and  O_7 
REMARK    6  A    between atoms: C_28  and  O_8 
REMARK    7  A    between atoms: C_29  and  O_9 
REMARK    8  A    between atoms: C_30  and  O_10 
REMARK    9  A    between atoms: C_32  and  O_11 
REMARK   10  A    between atoms: C_31  and  O_12 
REMARK   11  A    between atoms: C_33  and  O_13 
REMARK   12  A    between atoms: C_34  and  O_14 
REMARK   13  A    between atoms: C_37  and  O_15 
REMARK   14  A    between atoms: C_38  and  O_16 
REMARK   15  A    between atoms: C_42  and  O_17 
REMARK   16  A    between atoms: C_41  and  O_18 
REMARK   17  A    between atoms: C_45  and  O_19 
REMARK   18  A    between atoms: O_19  and  C_50 
REMARK   19  A    between atoms: C_46  and  O_20 
REMARK   20  A    between atoms: O_20  and  C_49 
REMARK   21  A    between atoms: O_21  and  C_48 
REMARK   22  A    between atoms: O_22  and  C_47 
REMARK   23  A    between atoms: C_25  and  C_44 
REMARK   24  A    between atoms: C_26  and  C_43 
REMARK   25  A    between atoms: C_39  and  C_47 
REMARK   26  A    between atoms: C_40  and  C_48 
REMARK   27  A    between atoms: C_49  and  C_51 
REMARK   28  A    between atoms: C_50  and  C_52 
REMARK   29  A    between atoms: C_55  and  C_57 
REMARK   30  A    between atoms: C_56  and  C_58 
REMARK   31  A    between atoms: C_59  and  C_61 
REMARK   32  A    between atoms: C_60  and  C_62 
REMARK   33  A    between atoms: C_65  and  C_68 
REMARK   34  A    between atoms: C_66  and  C_67 
ROOT
HETATM    1  C   UNK N   1      27.938  13.840   2.711  0.00  0.00     0.001 C 
HETATM    2  C   UNK N   1      27.162  14.934   2.837  0.00  0.00     0.001 C 
ENDROOT
BRANCH   1   3
HETATM    3  C   UNK N   1      27.462  12.521   2.240  0.00  0.00     0.007 C 
HETATM    4  C   UNK N   1      26.992  11.566   3.049  0.00  0.00    -0.062 C 
HETATM    5  C   UNK N   1      26.531  10.282   2.437  0.00  0.00     0.048 C 
BRANCH   4   6
HETATM    6  C   UNK N   1      26.987  11.755   4.520  0.00  0.00     0.007 C 
HETATM    7  C   UNK N   1      25.896  12.106   5.206  0.00  0.00     0.001 C 
BRANCH   7   8
HETATM    8  C   UNK N   1      24.586  12.238   4.544  0.00  0.00     0.013 C 
HETATM    9  C   UNK N   1      23.414  12.378   5.174  0.00  0.00     0.013 C 
HETATM   10  C   UNK N   1      22.195  12.538   4.336  0.00  0.00     0.054 C 
BRANCH   9  11
HETATM   11  C   UNK N   1      23.276  12.382   6.648  0.00  0.00     0.291 C 
HETATM   12  O   UNK N   1      22.888  11.388   7.243  0.00  0.00    -0.260 OA
BRANCH  11  13
HETATM   13  O   UNK N   1      23.626  13.505   7.333  0.00  0.00    -0.283 OA
BRANCH  13  14
HETATM   14  C   UNK N   1      22.699  14.332   7.924  0.00  0.00     0.301 C 
HETATM   15  O   UNK N   1      22.045  15.076   6.936  0.00  0.00    -0.348 OA
HETATM   16  C   UNK N   1      21.443  16.130   7.622  0.00  0.00     0.180 C 
HETATM   17  C   UNK N   1      20.181  15.589   8.293  0.00  0.00     0.180 C 
HETATM   18  C   UNK N   1      20.635  14.512   9.296  0.00  0.00     0.183 C 
HETATM   19  C   UNK N   1      21.635  13.524   8.670  0.00  0.00     0.205 C 
BRANCH  16  20
HETATM   20  C   UNK N   1      21.233  17.267   6.650  0.00  0.00     0.205 C 
BRANCH  20  21
HETATM   21  O   UNK N   1      21.388  16.750   5.356  0.00  0.00    -0.356 OA
BRANCH  21  22
HETATM   22  C   UNK N   1      20.948  17.749   4.489  0.00  0.00     0.291 C 
HETATM   23  O   UNK N   1      22.047  18.309   3.818  0.00  0.00    -0.348 OA
HETATM   24  C   UNK N   1      21.582  19.516   3.285  0.00  0.00     0.179 C 
HETATM   25  C   UNK N   1      20.685  19.198   2.076  0.00  0.00     0.180 C 
HETATM   26  C   UNK N   1      19.512  18.333   2.560  0.00  0.00     0.183 C 
HETATM   27  C   UNK N   1      19.995  17.173   3.435  0.00  0.00     0.204 C 
BRANCH  24  28
HETATM   28  C   UNK N   1      22.776  20.381   2.924  0.00  0.00     0.198 C 
BRANCH  28  29
HETATM   29  O   UNK N   1      22.378  21.709   2.787  0.00  0.00    -0.398 OA
HETATM   30  H   UNK N   1      21.624  22.154   2.370  0.00  0.00     0.209 HD
ENDBRANCH  28  29
ENDBRANCH  24  28
BRANCH  25  31
HETATM   31  O   UNK N   1      20.189  20.373   1.508  0.00  0.00    -0.390 OA
HETATM   32  H   UNK N   1      20.610  20.890   0.804  0.00  0.00     0.210 HD
ENDBRANCH  25  31
BRANCH  26  33
HETATM   33  O   UNK N   1      18.786  17.850   1.469  0.00  0.00    -0.390 OA
HETATM   34  H   UNK N   1      18.547  18.394   0.703  0.00  0.00     0.210 HD
ENDBRANCH  26  33
BRANCH  27  35
HETATM   35  O   UNK N   1      18.903  16.554   4.046  0.00  0.00    -0.388 OA
HETATM   36  H   UNK N   1      18.547  16.694   4.937  0.00  0.00     0.210 HD
ENDBRANCH  27  35
ENDBRANCH  21  22
ENDBRANCH  20  21
ENDBRANCH  16  20
BRANCH  17  37
HETATM   37  O   UNK N   1      19.518  16.610   8.976  0.00  0.00    -0.390 OA
HETATM   38  H   UNK N   1      18.554  16.659   9.074  0.00  0.00     0.210 HD
ENDBRANCH  17  37
BRANCH  18  39
HETATM   39  O   UNK N   1      19.532  13.827   9.807  0.00  0.00    -0.390 OA
HETATM   40  H   UNK N   1      19.290  13.814  10.746  0.00  0.00     0.210 HD
ENDBRANCH  18  39
BRANCH  19  41
HETATM   41  O   UNK N   1      22.226  12.749   9.669  0.00  0.00    -0.388 OA
HETATM   42  H   UNK N   1      23.139  12.675   9.986  0.00  0.00     0.210 HD
ENDBRANCH  19  41
ENDBRANCH  13  14
ENDBRANCH  11  13
ENDBRANCH   9  11
ENDBRANCH   7   8
ENDBRANCH   4   6
ENDBRANCH   1   3
BRANCH   2  43
HETATM   43  C   UNK N   1      25.733  15.061   2.433  0.00  0.00     0.007 C 
HETATM   44  C   UNK N   1      24.684  15.470   3.181  0.00  0.00    -0.062 C 
HETATM   45  C   UNK N   1      23.364  15.601   2.508  0.00  0.00     0.048 C 
BRANCH  44  46
HETATM   46  C   UNK N   1      24.747  15.816   4.624  0.00  0.00     0.007 C 
HETATM   47  C   UNK N   1      25.042  17.031   5.104  0.00  0.00     0.001 C 
BRANCH  47  48
HETATM   48  C   UNK N   1      25.495  18.120   4.222  0.00  0.00     0.013 C 
HETATM   49  C   UNK N   1      26.387  19.043   4.601  0.00  0.00     0.013 C 
HETATM   50  C   UNK N   1      26.783  20.079   3.603  0.00  0.00     0.054 C 
BRANCH  49  51
HETATM   51  C   UNK N   1      26.990  19.081   5.957  0.00  0.00     0.291 C 
HETATM   52  O   UNK N   1      27.030  20.124   6.600  0.00  0.00    -0.260 OA
BRANCH  51  53
HETATM   53  O   UNK N   1      27.562  17.962   6.456  0.00  0.00    -0.283 OA
BRANCH  53  54
HETATM   54  C   UNK N   1      28.701  18.037   7.219  0.00  0.00     0.301 C 
HETATM   55  O   UNK N   1      29.663  17.202   6.629  0.00  0.00    -0.348 OA
HETATM   56  C   UNK N   1      30.883  17.484   7.247  0.00  0.00     0.180 C 
HETATM   57  C   UNK N   1      30.858  16.859   8.642  0.00  0.00     0.180 C 
HETATM   58  C   UNK N   1      29.739  17.560   9.425  0.00  0.00     0.183 C 
HETATM   59  C   UNK N   1      28.422  17.548   8.641  0.00  0.00     0.205 C 
BRANCH  56  60
HETATM   60  C   UNK N   1      31.992  16.945   6.368  0.00  0.00     0.205 C 
BRANCH  60  61
HETATM   61  O   UNK N   1      31.570  16.997   5.033  0.00  0.00    -0.356 OA
BRANCH  61  62
HETATM   62  C   UNK N   1      31.936  15.771   4.466  0.00  0.00     0.291 C 
HETATM   63  O   UNK N   1      32.557  14.967   5.438  0.00  0.00    -0.348 OA
HETATM   64  C   UNK N   1      32.597  13.671   4.904  0.00  0.00     0.179 C 
HETATM   65  C   UNK N   1      33.674  13.627   3.813  0.00  0.00     0.180 C 
HETATM   66  C   UNK N   1      33.285  14.629   2.720  0.00  0.00     0.183 C 
HETATM   67  C   UNK N   1      32.932  15.993   3.320  0.00  0.00     0.204 C 
BRANCH  64  68
HETATM   68  C   UNK N   1      32.886  12.681   6.017  0.00  0.00     0.198 C 
BRANCH  68  69
HETATM   69  O   UNK N   1      32.255  11.466   5.740  0.00  0.00    -0.398 OA
HETATM   70  H   UNK N   1      31.476  11.160   6.230  0.00  0.00     0.209 HD
ENDBRANCH  68  69
ENDBRANCH  64  68
BRANCH  65  71
HETATM   71  O   UNK N   1      33.758  12.347   3.261  0.00  0.00    -0.390 OA
HETATM   72  H   UNK N   1      34.146  11.559   3.673  0.00  0.00     0.210 HD
ENDBRANCH  65  71
BRANCH  66  73
HETATM   73  O   UNK N   1      34.321  14.760   1.795  0.00  0.00    -0.390 OA
HETATM   74  H   UNK N   1      35.191  15.132   2.011  0.00  0.00     0.210 HD
ENDBRANCH  66  73
BRANCH  67  75
HETATM   75  O   UNK N   1      32.373  16.811   2.336  0.00  0.00    -0.388 OA
HETATM   76  H   UNK N   1      31.448  17.095   2.266  0.00  0.00     0.210 HD
ENDBRANCH  67  75
ENDBRANCH  61  62
ENDBRANCH  60  61
ENDBRANCH  56  60
BRANCH  57  77
HETATM   77  O   UNK N   1      32.079  17.063   9.288  0.00  0.00    -0.390 OA
HETATM   78  H   UNK N   1      32.210  17.140  10.246  0.00  0.00     0.210 HD
ENDBRANCH  57  77
BRANCH  58  79
HETATM   79  O   UNK N   1      29.562  16.952  10.669  0.00  0.00    -0.390 OA
HETATM   80  H   UNK N   1      29.564  17.453  11.499  0.00  0.00     0.210 HD
ENDBRANCH  58  79
BRANCH  59  81
HETATM   81  O   UNK N   1      27.498  18.391   9.260  0.00  0.00    -0.388 OA
HETATM   82  H   UNK N   1      27.470  19.360   9.288  0.00  0.00     0.210 HD
ENDBRANCH  59  81
ENDBRANCH  53  54
ENDBRANCH  51  53
ENDBRANCH  49  51
ENDBRANCH  47  48
ENDBRANCH  44  46
ENDBRANCH   2  43
TORSDOF 34
ENDMDL
MODEL 8
REMARK VINA RESULT:      -8.0      1.271      2.268
REMARK WARNING: 32 MAX_TORS EXCEEDED!!!
REMARK  34 active torsions:
REMARK  status: ('A' for Active; 'I' for Inactive)
REMARK    1  A    between atoms: C_36  and  O_5 
REMARK    2  A    between atoms: O_5  and  C_43 
REMARK    3  A    between atoms: C_35  and  O_6 
REMARK    4  A    between atoms: O_6  and  C_44 
REMARK    5  A    between atoms: C_27  and  O_7 
REMARK    6  A    between atoms: C_28  and  O_8 
REMARK    7  A    between atoms: C_29  and  O_9 
REMARK    8  A    between atoms: C_30  and  O_10 
REMARK    9  A    between atoms: C_32  and  O_11 
REMARK   10  A    between atoms: C_31  and  O_12 
REMARK   11  A    between atoms: C_33  and  O_13 
REMARK   12  A    between atoms: C_34  and  O_14 
REMARK   13  A    between atoms: C_37  and  O_15 
REMARK   14  A    between atoms: C_38  and  O_16 
REMARK   15  A    between atoms: C_42  and  O_17 
REMARK   16  A    between atoms: C_41  and  O_18 
REMARK   17  A    between atoms: C_45  and  O_19 
REMARK   18  A    between atoms: O_19  and  C_50 
REMARK   19  A    between atoms: C_46  and  O_20 
REMARK   20  A    between atoms: O_20  and  C_49 
REMARK   21  A    between atoms: O_21  and  C_48 
REMARK   22  A    between atoms: O_22  and  C_47 
REMARK   23  A    between atoms: C_25  and  C_44 
REMARK   24  A    between atoms: C_26  and  C_43 
REMARK   25  A    between atoms: C_39  and  C_47 
REMARK   26  A    between atoms: C_40  and  C_48 
REMARK   27  A    between atoms: C_49  and  C_51 
REMARK   28  A    between atoms: C_50  and  C_52 
REMARK   29  A    between atoms: C_55  and  C_57 
REMARK   30  A    between atoms: C_56  and  C_58 
REMARK   31  A    between atoms: C_59  and  C_61 
REMARK   32  A    between atoms: C_60  and  C_62 
REMARK   33  A    between atoms: C_65  and  C_68 
REMARK   34  A    between atoms: C_66  and  C_67 
ROOT
HETATM    1  C   UNK N   1      27.403  12.308   4.923  0.00  0.00     0.001 C 
HETATM    2  C   UNK N   1      28.605  12.120   4.345  0.00  0.00     0.001 C 
ENDROOT
BRANCH   1   3
HETATM    3  C   UNK N   1      26.131  12.472   4.185  0.00  0.00     0.007 C 
HETATM    4  C   UNK N   1      25.094  13.184   4.637  0.00  0.00    -0.062 C 
HETATM    5  C   UNK N   1      23.872  13.278   3.781  0.00  0.00     0.048 C 
BRANCH   4   6
HETATM    6  C   UNK N   1      25.135  13.812   5.980  0.00  0.00     0.007 C 
HETATM    7  C   UNK N   1      24.849  13.150   7.103  0.00  0.00     0.001 C 
BRANCH   7   8
HETATM    8  C   UNK N   1      24.560  11.705   7.086  0.00  0.00     0.013 C 
HETATM    9  C   UNK N   1      23.548  11.113   7.731  0.00  0.00     0.013 C 
HETATM   10  C   UNK N   1      23.389   9.642   7.563  0.00  0.00     0.054 C 
BRANCH   9  11
HETATM   11  C   UNK N   1      22.592  11.843   8.593  0.00  0.00     0.291 C 
HETATM   12  O   UNK N   1      22.711  11.833   9.809  0.00  0.00    -0.260 OA
BRANCH  11  13
HETATM   13  O   UNK N   1      21.596  12.558   8.002  0.00  0.00    -0.283 OA
BRANCH  13  14
HETATM   14  C   UNK N   1      21.579  13.934   7.989  0.00  0.00     0.301 C 
HETATM   15  O   UNK N   1      21.503  14.385   6.667  0.00  0.00    -0.348 OA
HETATM   16  C   UNK N   1      21.886  15.723   6.722  0.00  0.00     0.180 C 
HETATM   17  C   UNK N   1      20.696  16.528   7.246  0.00  0.00     0.180 C 
HETATM   18  C   UNK N   1      20.402  16.015   8.668  0.00  0.00     0.183 C 
HETATM   19  C   UNK N   1      20.355  14.478   8.731  0.00  0.00     0.205 C 
BRANCH  16  20
HETATM   20  C   UNK N   1      22.398  16.125   5.360  0.00  0.00     0.205 C 
BRANCH  20  21
HETATM   21  O   UNK N   1      23.040  17.364   5.498  0.00  0.00    -0.356 OA
BRANCH  21  22
HETATM   22  C   UNK N   1      22.736  18.084   4.344  0.00  0.00     0.291 C 
HETATM   23  O   UNK N   1      21.380  18.450   4.359  0.00  0.00    -0.348 OA
HETATM   24  C   UNK N   1      21.078  18.811   3.041  0.00  0.00     0.179 C 
HETATM   25  C   UNK N   1      21.706  20.186   2.759  0.00  0.00     0.180 C 
HETATM   26  C   UNK N   1      23.225  20.071   2.953  0.00  0.00     0.183 C 
HETATM   27  C   UNK N   1      23.571  19.367   4.268  0.00  0.00     0.204 C 
BRANCH  24  28
HETATM   28  C   UNK N   1      19.569  18.804   2.870  0.00  0.00     0.198 C 
BRANCH  28  29
HETATM   29  O   UNK N   1      19.229  18.153   1.685  0.00  0.00    -0.398 OA
HETATM   30  H   UNK N   1      19.672  18.012   0.834  0.00  0.00     0.209 HD
ENDBRANCH  28  29
ENDBRANCH  24  28
BRANCH  25  31
HETATM   31  O   UNK N   1      21.437  20.592   1.451  0.00  0.00    -0.390 OA
HETATM   32  H   UNK N   1      20.558  20.707   1.057  0.00  0.00     0.210 HD
ENDBRANCH  25  31
BRANCH  26  33
HETATM   33  O   UNK N   1      23.815  21.336   2.908  0.00  0.00    -0.390 OA
HETATM   34  H   UNK N   1      24.577  21.590   3.451  0.00  0.00     0.210 HD
ENDBRANCH  26  33
BRANCH  27  35
HETATM   35  O   UNK N   1      24.934  19.069   4.301  0.00  0.00    -0.388 OA
HETATM   36  H   UNK N   1      25.422  18.401   3.795  0.00  0.00     0.210 HD
ENDBRANCH  27  35
ENDBRANCH  21  22
ENDBRANCH  20  21
ENDBRANCH  16  20
BRANCH  17  37
HETATM   37  O   UNK N   1      21.013  17.886   7.299  0.00  0.00    -0.390 OA
HETATM   38  H   UNK N   1      21.088  18.455   6.517  0.00  0.00     0.210 HD
ENDBRANCH  17  37
BRANCH  18  39
HETATM   39  O   UNK N   1      19.206  16.555   9.143  0.00  0.00    -0.390 OA
HETATM   40  H   UNK N   1      19.146  17.147   9.909  0.00  0.00     0.210 HD
ENDBRANCH  18  39
BRANCH  19  41
HETATM   41  O   UNK N   1      20.367  14.055  10.061  0.00  0.00    -0.388 OA
HETATM   42  H   UNK N   1      20.973  13.488  10.562  0.00  0.00     0.210 HD
ENDBRANCH  19  41
ENDBRANCH  13  14
ENDBRANCH  11  13
ENDBRANCH   9  11
ENDBRANCH   7   8
ENDBRANCH   4   6
ENDBRANCH   1   3
BRANCH   2  43
HETATM   43  C   UNK N   1      28.872  11.933   2.891  0.00  0.00     0.007 C 
HETATM   44  C   UNK N   1      29.665  12.672   2.082  0.00  0.00    -0.062 C 
HETATM   45  C   UNK N   1      29.839  12.215   0.678  0.00  0.00     0.048 C 
BRANCH  44  46
HETATM   46  C   UNK N   1      30.393  13.900   2.492  0.00  0.00     0.007 C 
HETATM   47  C   UNK N   1      29.824  15.098   2.674  0.00  0.00     0.001 C 
BRANCH  47  48
HETATM   48  C   UNK N   1      28.416  15.345   2.321  0.00  0.00     0.013 C 
HETATM   49  C   UNK N   1      27.544  15.922   3.157  0.00  0.00     0.013 C 
HETATM   50  C   UNK N   1      26.152  16.140   2.670  0.00  0.00     0.054 C 
BRANCH  49  51
HETATM   51  C   UNK N   1      27.900  16.348   4.535  0.00  0.00     0.291 C 
HETATM   52  O   UNK N   1      27.667  15.625   5.497  0.00  0.00    -0.260 OA
BRANCH  51  53
HETATM   53  O   UNK N   1      28.425  17.579   4.730  0.00  0.00    -0.283 OA
BRANCH  53  54
HETATM   54  C   UNK N   1      28.953  17.931   5.947  0.00  0.00     0.301 C 
HETATM   55  O   UNK N   1      29.821  16.902   6.346  0.00  0.00    -0.348 OA
HETATM   56  C   UNK N   1      30.546  17.380   7.439  0.00  0.00     0.180 C 
HETATM   57  C   UNK N   1      29.617  17.383   8.654  0.00  0.00     0.180 C 
HETATM   58  C   UNK N   1      28.484  18.373   8.347  0.00  0.00     0.183 C 
HETATM   59  C   UNK N   1      27.842  18.075   6.988  0.00  0.00     0.205 C 
BRANCH  56  60
HETATM   60  C   UNK N   1      31.764  16.499   7.619  0.00  0.00     0.205 C 
BRANCH  60  61
HETATM   61  O   UNK N   1      32.572  17.050   8.623  0.00  0.00    -0.356 OA
BRANCH  61  62
HETATM   62  C   UNK N   1      33.646  16.168   8.780  0.00  0.00     0.291 C 
HETATM   63  O   UNK N   1      33.182  14.944   9.294  0.00  0.00    -0.348 OA
HETATM   64  C   UNK N   1      34.229  14.027   9.120  0.00  0.00     0.179 C 
HETATM   65  C   UNK N   1      35.322  14.335  10.150  0.00  0.00     0.180 C 
HETATM   66  C   UNK N   1      35.830  15.759   9.893  0.00  0.00     0.183 C 
HETATM   67  C   UNK N   1      34.666  16.747   9.770  0.00  0.00     0.204 C 
BRANCH  64  68
HETATM   68  C   UNK N   1      33.689  12.617   9.280  0.00  0.00     0.198 C 
BRANCH  68  69
HETATM   69  O   UNK N   1      32.293  12.643   9.250  0.00  0.00    -0.398 OA
HETATM   70  H   UNK N   1      31.757  11.836   9.233  0.00  0.00     0.209 HD
ENDBRANCH  68  69
ENDBRANCH  64  68
BRANCH  65  71
HETATM   71  O   UNK N   1      36.381  13.435  10.021  0.00  0.00    -0.390 OA
HETATM   72  H   UNK N   1      36.965  13.117  10.727  0.00  0.00     0.210 HD
ENDBRANCH  65  71
BRANCH  66  73
HETATM   73  O   UNK N   1      36.695  16.154  10.913  0.00  0.00    -0.390 OA
HETATM   74  H   UNK N   1      36.395  16.517  11.762  0.00  0.00     0.210 HD
ENDBRANCH  66  73
BRANCH  67  75
HETATM   75  O   UNK N   1      35.140  17.981   9.319  0.00  0.00    -0.388 OA
HETATM   76  H   UNK N   1      35.767  18.567   9.770  0.00  0.00     0.210 HD
ENDBRANCH  67  75
ENDBRANCH  61  62
ENDBRANCH  60  61
ENDBRANCH  56  60
BRANCH  57  77
HETATM   77  O   UNK N   1      30.307  17.801   9.793  0.00  0.00    -0.390 OA
HETATM   78  H   UNK N   1      30.182  18.644  10.257  0.00  0.00     0.210 HD
ENDBRANCH  57  77
BRANCH  58  79
HETATM   79  O   UNK N   1      27.519  18.333   9.353  0.00  0.00    -0.390 OA
HETATM   80  H   UNK N   1      27.159  17.502   9.699  0.00  0.00     0.210 HD
ENDBRANCH  58  79
BRANCH  59  81
HETATM   81  O   UNK N   1      26.990  19.122   6.630  0.00  0.00    -0.388 OA
HETATM   82  H   UNK N   1      26.805  19.493   5.753  0.00  0.00     0.210 HD
ENDBRANCH  59  81
ENDBRANCH  53  54
ENDBRANCH  51  53
ENDBRANCH  49  51
ENDBRANCH  47  48
ENDBRANCH  44  46
ENDBRANCH   2  43
TORSDOF 34
ENDMDL
MODEL 9
REMARK VINA RESULT:      -8.0      1.937      3.460
REMARK WARNING: 32 MAX_TORS EXCEEDED!!!
REMARK  34 active torsions:
REMARK  status: ('A' for Active; 'I' for Inactive)
REMARK    1  A    between atoms: C_36  and  O_5 
REMARK    2  A    between atoms: O_5  and  C_43 
REMARK    3  A    between atoms: C_35  and  O_6 
REMARK    4  A    between atoms: O_6  and  C_44 
REMARK    5  A    between atoms: C_27  and  O_7 
REMARK    6  A    between atoms: C_28  and  O_8 
REMARK    7  A    between atoms: C_29  and  O_9 
REMARK    8  A    between atoms: C_30  and  O_10 
REMARK    9  A    between atoms: C_32  and  O_11 
REMARK   10  A    between atoms: C_31  and  O_12 
REMARK   11  A    between atoms: C_33  and  O_13 
REMARK   12  A    between atoms: C_34  and  O_14 
REMARK   13  A    between atoms: C_37  and  O_15 
REMARK   14  A    between atoms: C_38  and  O_16 
REMARK   15  A    between atoms: C_42  and  O_17 
REMARK   16  A    between atoms: C_41  and  O_18 
REMARK   17  A    between atoms: C_45  and  O_19 
REMARK   18  A    between atoms: O_19  and  C_50 
REMARK   19  A    between atoms: C_46  and  O_20 
REMARK   20  A    between atoms: O_20  and  C_49 
REMARK   21  A    between atoms: O_21  and  C_48 
REMARK   22  A    between atoms: O_22  and  C_47 
REMARK   23  A    between atoms: C_25  and  C_44 
REMARK   24  A    between atoms: C_26  and  C_43 
REMARK   25  A    between atoms: C_39  and  C_47 
REMARK   26  A    between atoms: C_40  and  C_48 
REMARK   27  A    between atoms: C_49  and  C_51 
REMARK   28  A    between atoms: C_50  and  C_52 
REMARK   29  A    between atoms: C_55  and  C_57 
REMARK   30  A    between atoms: C_56  and  C_58 
REMARK   31  A    between atoms: C_59  and  C_61 
REMARK   32  A    between atoms: C_60  and  C_62 
REMARK   33  A    between atoms: C_65  and  C_68 
REMARK   34  A    between atoms: C_66  and  C_67 
ROOT
HETATM    1  C   UNK N   1      25.261  11.828   2.801  0.00  0.00     0.001 C 
HETATM    2  C   UNK N   1      26.544  12.166   3.030  0.00  0.00     0.001 C 
ENDROOT
BRANCH   1   3
HETATM    3  C   UNK N   1      24.748  11.295   1.519  0.00  0.00     0.007 C 
HETATM    4  C   UNK N   1      24.184  12.049   0.571  0.00  0.00    -0.062 C 
HETATM    5  C   UNK N   1      23.719  11.382  -0.684  0.00  0.00     0.048 C 
BRANCH   4   6
HETATM    6  C   UNK N   1      23.969  13.501   0.787  0.00  0.00     0.007 C 
HETATM    7  C   UNK N   1      22.764  14.074   0.743  0.00  0.00     0.001 C 
BRANCH   7   8
HETATM    8  C   UNK N   1      21.541  13.270   0.567  0.00  0.00     0.013 C 
HETATM    9  C   UNK N   1      20.293  13.716   0.749  0.00  0.00     0.013 C 
HETATM   10  C   UNK N   1      19.176  12.767   0.484  0.00  0.00     0.054 C 
BRANCH   9  11
HETATM   11  C   UNK N   1      19.974  15.090   1.197  0.00  0.00     0.291 C 
HETATM   12  O   UNK N   1      20.096  16.040   0.438  0.00  0.00    -0.260 OA
BRANCH  11  13
HETATM   13  O   UNK N   1      19.504  15.272   2.461  0.00  0.00    -0.283 OA
BRANCH  13  14
HETATM   14  C   UNK N   1      20.208  14.881   3.577  0.00  0.00     0.301 C 
HETATM   15  O   UNK N   1      21.393  15.620   3.660  0.00  0.00    -0.348 OA
HETATM   16  C   UNK N   1      22.198  14.907   4.547  0.00  0.00     0.180 C 
HETATM   17  C   UNK N   1      21.710  15.207   5.964  0.00  0.00     0.180 C 
HETATM   18  C   UNK N   1      20.261  14.694   6.055  0.00  0.00     0.183 C 
HETATM   19  C   UNK N   1      19.410  15.148   4.855  0.00  0.00     0.205 C 
BRANCH  16  20
HETATM   20  C   UNK N   1      23.639  15.257   4.263  0.00  0.00     0.205 C 
BRANCH  20  21
HETATM   21  O   UNK N   1      23.969  16.365   5.058  0.00  0.00    -0.356 OA
BRANCH  21  22
HETATM   22  C   UNK N   1      24.159  17.427   4.175  0.00  0.00     0.291 C 
HETATM   23  O   UNK N   1      23.187  18.414   4.409  0.00  0.00    -0.348 OA
HETATM   24  C   UNK N   1      23.204  19.230   3.273  0.00  0.00     0.179 C 
HETATM   25  C   UNK N   1      24.468  20.105   3.322  0.00  0.00     0.180 C 
HETATM   26  C   UNK N   1      25.694  19.180   3.342  0.00  0.00     0.183 C 
HETATM   27  C   UNK N   1      25.538  18.064   4.380  0.00  0.00     0.204 C 
BRANCH  24  28
HETATM   28  C   UNK N   1      21.923  20.044   3.240  0.00  0.00     0.198 C 
BRANCH  28  29
HETATM   29  O   UNK N   1      21.840  20.751   2.041  0.00  0.00    -0.398 OA
HETATM   30  H   UNK N   1      21.679  21.678   1.808  0.00  0.00     0.209 HD
ENDBRANCH  28  29
ENDBRANCH  24  28
BRANCH  25  31
HETATM   31  O   UNK N   1      24.536  20.937   2.204  0.00  0.00    -0.390 OA
HETATM   32  H   UNK N   1      25.345  21.293   1.804  0.00  0.00     0.210 HD
ENDBRANCH  25  31
BRANCH  26  33
HETATM   33  O   UNK N   1      26.853  19.918   3.593  0.00  0.00    -0.390 OA
HETATM   34  H   UNK N   1      27.456  20.219   2.896  0.00  0.00     0.210 HD
ENDBRANCH  26  33
BRANCH  27  35
HETATM   35  O   UNK N   1      26.547  17.114   4.209  0.00  0.00    -0.388 OA
HETATM   36  H   UNK N   1      27.048  16.898   3.408  0.00  0.00     0.210 HD
ENDBRANCH  27  35
ENDBRANCH  21  22
ENDBRANCH  20  21
ENDBRANCH  16  20
BRANCH  17  37
HETATM   37  O   UNK N   1      22.499  14.537   6.902  0.00  0.00    -0.390 OA
HETATM   38  H   UNK N   1      23.432  14.742   7.068  0.00  0.00     0.210 HD
ENDBRANCH  17  37
BRANCH  18  39
HETATM   39  O   UNK N   1      19.671  15.106   7.250  0.00  0.00    -0.390 OA
HETATM   40  H   UNK N   1      20.021  14.891   8.129  0.00  0.00     0.210 HD
ENDBRANCH  18  39
BRANCH  19  41
HETATM   41  O   UNK N   1      18.205  14.443   4.832  0.00  0.00    -0.388 OA
HETATM   42  H   UNK N   1      17.372  14.587   4.357  0.00  0.00     0.210 HD
ENDBRANCH  19  41
ENDBRANCH  13  14
ENDBRANCH  11  13
ENDBRANCH   9  11
ENDBRANCH   7   8
ENDBRANCH   4   6
ENDBRANCH   1   3
BRANCH   2  43
HETATM   43  C   UNK N   1      27.694  11.973   2.101  0.00  0.00     0.007 C 
HETATM   44  C   UNK N   1      28.487  12.914   1.542  0.00  0.00    -0.062 C 
HETATM   45  C   UNK N   1      29.636  12.451   0.719  0.00  0.00     0.048 C 
BRANCH  44  46
HETATM   46  C   UNK N   1      28.313  14.381   1.699  0.00  0.00     0.007 C 
HETATM   47  C   UNK N   1      29.089  15.164   2.459  0.00  0.00     0.001 C 
BRANCH  47  48
HETATM   48  C   UNK N   1      30.113  14.599   3.354  0.00  0.00     0.013 C 
HETATM   49  C   UNK N   1      30.716  15.310   4.315  0.00  0.00     0.013 C 
HETATM   50  C   UNK N   1      31.718  14.614   5.171  0.00  0.00     0.054 C 
BRANCH  49  51
HETATM   51  C   UNK N   1      30.435  16.748   4.559  0.00  0.00     0.291 C 
HETATM   52  O   UNK N   1      31.191  17.618   4.142  0.00  0.00    -0.260 OA
BRANCH  51  53
HETATM   53  O   UNK N   1      29.364  17.092   5.311  0.00  0.00    -0.283 OA
BRANCH  53  54
HETATM   54  C   UNK N   1      29.531  17.667   6.546  0.00  0.00     0.301 C 
HETATM   55  O   UNK N   1      30.323  16.797   7.314  0.00  0.00    -0.348 OA
HETATM   56  C   UNK N   1      30.705  17.498   8.460  0.00  0.00     0.180 C 
HETATM   57  C   UNK N   1      29.491  17.585   9.385  0.00  0.00     0.180 C 
HETATM   58  C   UNK N   1      28.423  18.402   8.645  0.00  0.00     0.183 C 
HETATM   59  C   UNK N   1      28.179  17.848   7.236  0.00  0.00     0.205 C 
BRANCH  56  60
HETATM   60  C   UNK N   1      31.882  16.777   9.082  0.00  0.00     0.205 C 
BRANCH  60  61
HETATM   61  O   UNK N   1      33.057  17.218   8.458  0.00  0.00    -0.356 OA
BRANCH  61  62
HETATM   62  C   UNK N   1      34.033  16.262   8.757  0.00  0.00     0.291 C 
HETATM   63  O   UNK N   1      33.417  15.036   9.064  0.00  0.00    -0.348 OA
HETATM   64  C   UNK N   1      34.433  14.069   9.031  0.00  0.00     0.179 C 
HETATM   65  C   UNK N   1      35.303  14.236  10.283  0.00  0.00     0.180 C 
HETATM   66  C   UNK N   1      35.918  15.639  10.252  0.00  0.00     0.183 C 
HETATM   67  C   UNK N   1      34.853  16.704   9.977  0.00  0.00     0.204 C 
BRANCH  64  68
HETATM   68  C   UNK N   1      33.806  12.689   8.963  0.00  0.00     0.198 C 
BRANCH  68  69
HETATM   69  O   UNK N   1      32.449  12.774   9.278  0.00  0.00    -0.398 OA
HETATM   70  H   UNK N   1      32.086  12.443  10.115  0.00  0.00     0.209 HD
ENDBRANCH  68  69
ENDBRANCH  64  68
BRANCH  65  71
HETATM   71  O   UNK N   1      36.322  13.282  10.298  0.00  0.00    -0.390 OA
HETATM   72  H   UNK N   1      36.440  12.543   9.680  0.00  0.00     0.210 HD
ENDBRANCH  65  71
BRANCH  66  73
HETATM   73  O   UNK N   1      36.571  15.906  11.456  0.00  0.00    -0.390 OA
HETATM   74  H   UNK N   1      37.508  16.149  11.516  0.00  0.00     0.210 HD
ENDBRANCH  66  73
BRANCH  67  75
HETATM   75  O   UNK N   1      35.467  17.935   9.735  0.00  0.00    -0.388 OA
HETATM   76  H   UNK N   1      36.412  18.140   9.799  0.00  0.00     0.210 HD
ENDBRANCH  67  75
ENDBRANCH  61  62
ENDBRANCH  60  61
ENDBRANCH  56  60
BRANCH  57  77
HETATM   77  O   UNK N   1      29.831  18.230  10.575  0.00  0.00    -0.390 OA
HETATM   78  H   UNK N   1      29.432  19.046  10.914  0.00  0.00     0.210 HD
ENDBRANCH  57  77
BRANCH  58  79
HETATM   79  O   UNK N   1      27.230  18.413   9.369  0.00  0.00    -0.390 OA
HETATM   80  H   UNK N   1      27.124  17.933  10.205  0.00  0.00     0.210 HD
ENDBRANCH  58  79
BRANCH  59  81
HETATM   81  O   UNK N   1      27.392  18.743   6.509  0.00  0.00    -0.388 OA
HETATM   82  H   UNK N   1      27.396  19.713   6.514  0.00  0.00     0.210 HD
ENDBRANCH  59  81
ENDBRANCH  53  54
ENDBRANCH  51  53
ENDBRANCH  49  51
ENDBRANCH  47  48
ENDBRANCH  44  46
ENDBRANCH   2  43
TORSDOF 34
ENDMDL
