MODEL 1
REMARK VINA RESULT:      -6.8      0.000      0.000
REMARK  7 active torsions:
REMARK  status: ('A' for Active; 'I' for Inactive)
REMARK    1  A    between atoms: C_1  and  C_3 
REMARK    2  A    between atoms: C_2  and  N_4 
REMARK    3  A    between atoms: C_3  and  O_15 
REMARK       I    between atoms: N_4  and  C_5 
REMARK    4  A    between atoms: C_5  and  C_6 
REMARK    5  A    between atoms: C_7  and  O_17 
REMARK    6  A    between atoms: C_8  and  C_13 
REMARK    7  A    between atoms: C_9  and  O_19 
ROOT
HETATM    1  N   UNK N   1      28.515  18.139   5.941  0.00  0.00    -0.323 N 
HETATM    2  C   UNK N   1      27.445  17.497   5.403  0.00  0.00     0.245 C 
HETATM    3  O   UNK N   1      27.272  16.298   5.564  0.00  0.00    -0.268 OA
HETATM    4  H   UNK N   1      28.572  19.106   5.764  0.00  0.00     0.169 HD
ENDROOT
BRANCH   2   5
HETATM    5  C   UNK N   1      26.485  18.270   4.612  0.00  0.00     0.075 C 
HETATM    6  C   UNK N   1      25.185  18.190   4.911  0.00  0.00     0.017 C 
BRANCH   6   7
HETATM    7  C   UNK N   1      24.152  18.919   4.182  0.00  0.00    -0.033 A 
HETATM    8  C   UNK N   1      22.809  18.555   4.276  0.00  0.00     0.051 A 
HETATM    9  C   UNK N   1      21.821  19.263   3.576  0.00  0.00     0.102 A 
HETATM   10  C   UNK N   1      22.207  20.364   2.761  0.00  0.00     0.101 A 
HETATM   11  C   UNK N   1      23.560  20.712   2.679  0.00  0.00     0.040 A 
HETATM   12  C   UNK N   1      24.526  19.996   3.383  0.00  0.00     0.014 A 
BRANCH   9  13
HETATM   13  O   UNK N   1      20.521  18.895   3.679  0.00  0.00    -0.353 OA
HETATM   14  C   UNK N   1      20.031  17.698   3.203  0.00  0.00     0.210 C 
ENDBRANCH   9  13
BRANCH  10  15
HETATM   15  O   UNK N   1      21.326  21.112   2.046  0.00  0.00    -0.353 OA
HETATM   16  C   UNK N   1      20.770  20.754   0.841  0.00  0.00     0.210 C 
ENDBRANCH  10  15
ENDBRANCH   6   7
ENDBRANCH   2   5
BRANCH   1  17
HETATM   17  C   UNK N   1      29.558  17.586   6.727  0.00  0.00     0.051 A 
HETATM   18  C   UNK N   1      29.388  17.468   8.129  0.00  0.00     0.064 A 
HETATM   19  C   UNK N   1      30.426  16.925   8.898  0.00  0.00     0.020 A 
HETATM   20  C   UNK N   1      31.614  16.504   8.298  0.00  0.00     0.001 A 
HETATM   21  C   UNK N   1      31.780  16.620   6.919  0.00  0.00     0.002 A 
HETATM   22  C   UNK N   1      30.758  17.158   6.138  0.00  0.00     0.030 A 
BRANCH  18  23
HETATM   23  C   UNK N   1      28.142  17.900   8.826  0.00  0.00     0.178 C 
HETATM   24  O   UNK N   1      27.588  17.175   9.639  0.00  0.00    -0.646 OA
BRANCH  23  25
HETATM   25  O   UNK N   1      27.611  19.109   8.561  0.00  0.00    -0.773 OA
HETATM   26  H   UNK N   1      27.526  19.744   9.245  0.00  0.00     0.167 HD
ENDBRANCH  23  25
ENDBRANCH  18  23
ENDBRANCH   1  17
TORSDOF 7
ENDMDL
MODEL 2
REMARK VINA RESULT:      -6.7      3.480      5.496
REMARK  7 active torsions:
REMARK  status: ('A' for Active; 'I' for Inactive)
REMARK    1  A    between atoms: C_1  and  C_3 
REMARK    2  A    between atoms: C_2  and  N_4 
REMARK    3  A    between atoms: C_3  and  O_15 
REMARK       I    between atoms: N_4  and  C_5 
REMARK    4  A    between atoms: C_5  and  C_6 
REMARK    5  A    between atoms: C_7  and  O_17 
REMARK    6  A    between atoms: C_8  and  C_13 
REMARK    7  A    between atoms: C_9  and  O_19 
ROOT
HETATM    1  N   UNK N   1      32.189  16.695   7.983  0.00  0.00    -0.323 N 
HETATM    2  C   UNK N   1      31.829  16.032   6.854  0.00  0.00     0.245 C 
HETATM    3  O   UNK N   1      32.352  14.973   6.539  0.00  0.00    -0.268 OA
HETATM    4  H   UNK N   1      31.713  17.538   8.160  0.00  0.00     0.169 HD
ENDROOT
BRANCH   2   5
HETATM    5  C   UNK N   1      30.789  16.611   6.000  0.00  0.00     0.075 C 
HETATM    6  C   UNK N   1      29.707  17.149   6.570  0.00  0.00     0.017 C 
BRANCH   6   7
HETATM    7  C   UNK N   1      28.616  17.747   5.807  0.00  0.00    -0.033 A 
HETATM    8  C   UNK N   1      27.887  18.824   6.312  0.00  0.00     0.051 A 
HETATM    9  C   UNK N   1      26.844  19.397   5.570  0.00  0.00     0.102 A 
HETATM   10  C   UNK N   1      26.534  18.864   4.288  0.00  0.00     0.101 A 
HETATM   11  C   UNK N   1      27.276  17.782   3.800  0.00  0.00     0.040 A 
HETATM   12  C   UNK N   1      28.309  17.228   4.552  0.00  0.00     0.014 A 
BRANCH   9  13
HETATM   13  O   UNK N   1      26.146  20.442   6.077  0.00  0.00    -0.353 OA
HETATM   14  C   UNK N   1      26.732  21.627   6.469  0.00  0.00     0.210 C 
ENDBRANCH   9  13
BRANCH  10  15
HETATM   15  O   UNK N   1      25.544  19.350   3.494  0.00  0.00    -0.353 OA
HETATM   16  C   UNK N   1      25.633  20.472   2.705  0.00  0.00     0.210 C 
ENDBRANCH  10  15
ENDBRANCH   6   7
ENDBRANCH   2   5
BRANCH   1  17
HETATM   17  C   UNK N   1      33.169  16.319   8.939  0.00  0.00     0.051 A 
HETATM   18  C   UNK N   1      34.383  17.046   9.015  0.00  0.00     0.064 A 
HETATM   19  C   UNK N   1      35.347  16.665   9.958  0.00  0.00     0.020 A 
HETATM   20  C   UNK N   1      35.121  15.585  10.813  0.00  0.00     0.001 A 
HETATM   21  C   UNK N   1      33.926  14.872  10.737  0.00  0.00     0.002 A 
HETATM   22  C   UNK N   1      32.956  15.236   9.806  0.00  0.00     0.030 A 
BRANCH  18  23
HETATM   23  C   UNK N   1      34.681  18.208   8.128  0.00  0.00     0.178 C 
HETATM   24  O   UNK N   1      34.370  18.198   6.947  0.00  0.00    -0.646 OA
BRANCH  23  25
HETATM   25  O   UNK N   1      35.305  19.292   8.630  0.00  0.00    -0.773 OA
HETATM   26  H   UNK N   1      35.927  19.195   9.324  0.00  0.00     0.167 HD
ENDBRANCH  23  25
ENDBRANCH  18  23
ENDBRANCH   1  17
TORSDOF 7
ENDMDL
MODEL 3
REMARK VINA RESULT:      -6.6      8.839     12.150
REMARK  7 active torsions:
REMARK  status: ('A' for Active; 'I' for Inactive)
REMARK    1  A    between atoms: C_1  and  C_3 
REMARK    2  A    between atoms: C_2  and  N_4 
REMARK    3  A    between atoms: C_3  and  O_15 
REMARK       I    between atoms: N_4  and  C_5 
REMARK    4  A    between atoms: C_5  and  C_6 
REMARK    5  A    between atoms: C_7  and  O_17 
REMARK    6  A    between atoms: C_8  and  C_13 
REMARK    7  A    between atoms: C_9  and  O_19 
ROOT
HETATM    1  N   UNK N   1      34.699  12.728  12.625  0.00  0.00    -0.323 N 
HETATM    2  C   UNK N   1      35.245  12.297  11.458  0.00  0.00     0.245 C 
HETATM    3  O   UNK N   1      35.929  11.285  11.407  0.00  0.00    -0.268 OA
HETATM    4  H   UNK N   1      34.160  13.550  12.573  0.00  0.00     0.169 HD
ENDROOT
BRANCH   2   5
HETATM    5  C   UNK N   1      35.003  13.073  10.240  0.00  0.00     0.075 C 
HETATM    6  C   UNK N   1      35.014  14.407  10.309  0.00  0.00     0.017 C 
BRANCH   6   7
HETATM    7  C   UNK N   1      34.782  15.268   9.153  0.00  0.00    -0.033 A 
HETATM    8  C   UNK N   1      35.256  14.921   7.888  0.00  0.00     0.051 A 
HETATM    9  C   UNK N   1      35.025  15.751   6.780  0.00  0.00     0.102 A 
HETATM   10  C   UNK N   1      34.298  16.960   6.963  0.00  0.00     0.101 A 
HETATM   11  C   UNK N   1      33.832  17.291   8.241  0.00  0.00     0.040 A 
HETATM   12  C   UNK N   1      34.072  16.453   9.328  0.00  0.00     0.014 A 
BRANCH   9  13
HETATM   13  O   UNK N   1      35.493  15.398   5.558  0.00  0.00    -0.353 OA
HETATM   14  C   UNK N   1      35.453  14.108   5.074  0.00  0.00     0.210 C 
ENDBRANCH   9  13
BRANCH  10  15
HETATM   15  O   UNK N   1      34.022  17.828   5.955  0.00  0.00    -0.353 OA
HETATM   16  C   UNK N   1      33.111  17.617   4.948  0.00  0.00     0.210 C 
ENDBRANCH  10  15
ENDBRANCH   6   7
ENDBRANCH   2   5
BRANCH   1  17
HETATM   17  C   UNK N   1      34.812  12.137  13.910  0.00  0.00     0.051 A 
HETATM   18  C   UNK N   1      35.690  12.708  14.866  0.00  0.00     0.064 A 
HETATM   19  C   UNK N   1      35.798  12.115  16.131  0.00  0.00     0.020 A 
HETATM   20  C   UNK N   1      35.057  10.977  16.452  0.00  0.00     0.001 A 
HETATM   21  C   UNK N   1      34.194  10.417  15.512  0.00  0.00     0.002 A 
HETATM   22  C   UNK N   1      34.072  10.993  14.248  0.00  0.00     0.030 A 
BRANCH  18  23
HETATM   23  C   UNK N   1      36.508  13.922  14.581  0.00  0.00     0.178 C 
HETATM   24  O   UNK N   1      36.194  14.703  13.695  0.00  0.00    -0.646 OA
BRANCH  23  25
HETATM   25  O   UNK N   1      37.614  14.171  15.308  0.00  0.00    -0.773 OA
HETATM   26  H   UNK N   1      38.299  14.702  14.953  0.00  0.00     0.167 HD
ENDBRANCH  23  25
ENDBRANCH  18  23
ENDBRANCH   1  17
TORSDOF 7
ENDMDL
MODEL 4
REMARK VINA RESULT:      -6.6      9.599     13.542
REMARK  7 active torsions:
REMARK  status: ('A' for Active; 'I' for Inactive)
REMARK    1  A    between atoms: C_1  and  C_3 
REMARK    2  A    between atoms: C_2  and  N_4 
REMARK    3  A    between atoms: C_3  and  O_15 
REMARK       I    between atoms: N_4  and  C_5 
REMARK    4  A    between atoms: C_5  and  C_6 
REMARK    5  A    between atoms: C_7  and  O_17 
REMARK    6  A    between atoms: C_8  and  C_13 
REMARK    7  A    between atoms: C_9  and  O_19 
ROOT
HETATM    1  N   UNK N   1      35.259  13.201  15.579  0.00  0.00    -0.323 N 
HETATM    2  C   UNK N   1      36.274  13.320  14.684  0.00  0.00     0.245 C 
HETATM    3  O   UNK N   1      37.314  12.690  14.810  0.00  0.00    -0.268 OA
HETATM    4  H   UNK N   1      34.457  13.743  15.396  0.00  0.00     0.169 HD
ENDROOT
BRANCH   2   5
HETATM    5  C   UNK N   1      36.109  14.229  13.549  0.00  0.00     0.075 C 
HETATM    6  C   UNK N   1      35.343  13.850  12.521  0.00  0.00     0.017 C 
BRANCH   6   7
HETATM    7  C   UNK N   1      35.118  14.683  11.344  0.00  0.00    -0.033 A 
HETATM    8  C   UNK N   1      34.542  14.157  10.187  0.00  0.00     0.051 A 
HETATM    9  C   UNK N   1      34.325  14.965   9.061  0.00  0.00     0.102 A 
HETATM   10  C   UNK N   1      34.702  16.336   9.111  0.00  0.00     0.101 A 
HETATM   11  C   UNK N   1      35.280  16.843  10.280  0.00  0.00     0.040 A 
HETATM   12  C   UNK N   1      35.487  16.025  11.388  0.00  0.00     0.014 A 
BRANCH   9  13
HETATM   13  O   UNK N   1      33.764  14.437   7.945  0.00  0.00    -0.353 OA
HETATM   14  C   UNK N   1      32.408  14.451   7.699  0.00  0.00     0.210 C 
ENDBRANCH   9  13
BRANCH  10  15
HETATM   15  O   UNK N   1      34.532  17.198   8.074  0.00  0.00    -0.353 OA
HETATM   16  C   UNK N   1      33.588  18.196   8.013  0.00  0.00     0.210 C 
ENDBRANCH  10  15
ENDBRANCH   6   7
ENDBRANCH   2   5
BRANCH   1  17
HETATM   17  C   UNK N   1      35.213  12.391  16.743  0.00  0.00     0.051 A 
HETATM   18  C   UNK N   1      35.345  12.995  18.018  0.00  0.00     0.064 A 
HETATM   19  C   UNK N   1      35.304  12.186  19.162  0.00  0.00     0.020 A 
HETATM   20  C   UNK N   1      35.135  10.805  19.054  0.00  0.00     0.001 A 
HETATM   21  C   UNK N   1      35.004  10.213  17.799  0.00  0.00     0.002 A 
HETATM   22  C   UNK N   1      35.042  11.001  16.650  0.00  0.00     0.030 A 
BRANCH  18  23
HETATM   23  C   UNK N   1      35.528  14.464  18.196  0.00  0.00     0.178 C 
HETATM   24  O   UNK N   1      34.840  15.097  18.982  0.00  0.00    -0.646 OA
BRANCH  23  25
HETATM   25  O   UNK N   1      36.468  15.114  17.481  0.00  0.00    -0.773 OA
HETATM   26  H   UNK N   1      36.485  16.051  17.471  0.00  0.00     0.167 HD
ENDBRANCH  23  25
ENDBRANCH  18  23
ENDBRANCH   1  17
TORSDOF 7
ENDMDL
MODEL 5
REMARK VINA RESULT:      -6.6      1.327      2.086
REMARK  7 active torsions:
REMARK  status: ('A' for Active; 'I' for Inactive)
REMARK    1  A    between atoms: C_1  and  C_3 
REMARK    2  A    between atoms: C_2  and  N_4 
REMARK    3  A    between atoms: C_3  and  O_15 
REMARK       I    between atoms: N_4  and  C_5 
REMARK    4  A    between atoms: C_5  and  C_6 
REMARK    5  A    between atoms: C_7  and  O_17 
REMARK    6  A    between atoms: C_8  and  C_13 
REMARK    7  A    between atoms: C_9  and  O_19 
ROOT
HETATM    1  N   UNK N   1      27.854  17.800   6.001  0.00  0.00    -0.323 N 
HETATM    2  C   UNK N   1      27.422  18.949   5.419  0.00  0.00     0.245 C 
HETATM    3  O   UNK N   1      28.142  19.934   5.336  0.00  0.00    -0.268 OA
HETATM    4  H   UNK N   1      27.208  17.056   6.020  0.00  0.00     0.169 HD
ENDROOT
BRANCH   2   5
HETATM    5  C   UNK N   1      26.060  18.998   4.883  0.00  0.00     0.075 C 
HETATM    6  C   UNK N   1      25.350  17.868   4.812  0.00  0.00     0.017 C 
BRANCH   6   7
HETATM    7  C   UNK N   1      23.987  17.813   4.293  0.00  0.00    -0.033 A 
HETATM    8  C   UNK N   1      23.194  18.958   4.223  0.00  0.00     0.051 A 
HETATM    9  C   UNK N   1      21.887  18.898   3.718  0.00  0.00     0.102 A 
HETATM   10  C   UNK N   1      21.374  17.646   3.276  0.00  0.00     0.101 A 
HETATM   11  C   UNK N   1      22.185  16.509   3.357  0.00  0.00     0.040 A 
HETATM   12  C   UNK N   1      23.481  16.590   3.861  0.00  0.00     0.014 A 
BRANCH   9  13
HETATM   13  O   UNK N   1      21.131  20.021   3.658  0.00  0.00    -0.353 OA
HETATM   14  C   UNK N   1      21.016  20.798   2.525  0.00  0.00     0.210 C 
ENDBRANCH   9  13
BRANCH  10  15
HETATM   15  O   UNK N   1      20.123  17.486   2.771  0.00  0.00    -0.353 OA
HETATM   16  C   UNK N   1      19.821  17.228   1.455  0.00  0.00     0.210 C 
ENDBRANCH  10  15
ENDBRANCH   6   7
ENDBRANCH   2   5
BRANCH   1  17
HETATM   17  C   UNK N   1      29.121  17.541   6.584  0.00  0.00     0.051 A 
HETATM   18  C   UNK N   1      29.255  17.553   7.995  0.00  0.00     0.064 A 
HETATM   19  C   UNK N   1      30.511  17.302   8.562  0.00  0.00     0.020 A 
HETATM   20  C   UNK N   1      31.620  17.043   7.755  0.00  0.00     0.001 A 
HETATM   21  C   UNK N   1      31.487  17.030   6.368  0.00  0.00     0.002 A 
HETATM   22  C   UNK N   1      30.245  17.278   5.785  0.00  0.00     0.030 A 
BRANCH  18  23
HETATM   23  C   UNK N   1      28.107  17.824   8.909  0.00  0.00     0.178 C 
HETATM   24  O   UNK N   1      27.709  16.976   9.692  0.00  0.00    -0.646 OA
BRANCH  23  25
HETATM   25  O   UNK N   1      27.492  19.023   8.876  0.00  0.00    -0.773 OA
HETATM   26  H   UNK N   1      27.126  19.383   9.659  0.00  0.00     0.167 HD
ENDBRANCH  23  25
ENDBRANCH  18  23
ENDBRANCH   1  17
TORSDOF 7
ENDMDL
MODEL 6
REMARK VINA RESULT:      -6.6      5.479      6.765
REMARK  7 active torsions:
REMARK  status: ('A' for Active; 'I' for Inactive)
REMARK    1  A    between atoms: C_1  and  C_3 
REMARK    2  A    between atoms: C_2  and  N_4 
REMARK    3  A    between atoms: C_3  and  O_15 
REMARK       I    between atoms: N_4  and  C_5 
REMARK    4  A    between atoms: C_5  and  C_6 
REMARK    5  A    between atoms: C_7  and  O_17 
REMARK    6  A    between atoms: C_8  and  C_13 
REMARK    7  A    between atoms: C_9  and  O_19 
ROOT
HETATM    1  N   UNK N   1      21.811  14.247   8.691  0.00  0.00    -0.323 N 
HETATM    2  C   UNK N   1      21.246  13.981   7.484  0.00  0.00     0.245 C 
HETATM    3  O   UNK N   1      20.745  12.894   7.238  0.00  0.00    -0.268 OA
HETATM    4  H   UNK N   1      22.187  15.150   8.803  0.00  0.00     0.169 HD
ENDROOT
BRANCH   2   5
HETATM    5  C   UNK N   1      21.247  15.029   6.462  0.00  0.00     0.075 C 
HETATM    6  C   UNK N   1      22.138  16.021   6.549  0.00  0.00     0.017 C 
BRANCH   6   7
HETATM    7  C   UNK N   1      22.217  17.111   5.583  0.00  0.00    -0.033 A 
HETATM    8  C   UNK N   1      23.448  17.612   5.158  0.00  0.00     0.051 A 
HETATM    9  C   UNK N   1      23.515  18.657   4.225  0.00  0.00     0.102 A 
HETATM   10  C   UNK N   1      22.306  19.207   3.714  0.00  0.00     0.101 A 
HETATM   11  C   UNK N   1      21.082  18.691   4.154  0.00  0.00     0.040 A 
HETATM   12  C   UNK N   1      21.036  17.652   5.081  0.00  0.00     0.014 A 
BRANCH   9  13
HETATM   13  O   UNK N   1      24.720  19.131   3.823  0.00  0.00    -0.353 OA
HETATM   14  C   UNK N   1      25.602  19.773   4.665  0.00  0.00     0.210 C 
ENDBRANCH   9  13
BRANCH  10  15
HETATM   15  O   UNK N   1      22.268  20.218   2.807  0.00  0.00    -0.353 OA
HETATM   16  C   UNK N   1      21.174  20.573   2.054  0.00  0.00     0.210 C 
ENDBRANCH  10  15
ENDBRANCH   6   7
ENDBRANCH   2   5
BRANCH   1  17
HETATM   17  C   UNK N   1      21.924  13.381   9.809  0.00  0.00     0.051 A 
HETATM   18  C   UNK N   1      23.199  12.887  10.183  0.00  0.00     0.064 A 
HETATM   19  C   UNK N   1      23.301  12.029  11.286  0.00  0.00     0.020 A 
HETATM   20  C   UNK N   1      22.166  11.661  12.011  0.00  0.00     0.001 A 
HETATM   21  C   UNK N   1      20.913  12.149  11.643  0.00  0.00     0.002 A 
HETATM   22  C   UNK N   1      20.792  13.003  10.549  0.00  0.00     0.030 A 
BRANCH  18  23
HETATM   23  C   UNK N   1      24.446  13.245   9.447  0.00  0.00     0.178 C 
HETATM   24  O   UNK N   1      24.535  13.086   8.239  0.00  0.00    -0.646 OA
BRANCH  23  25
HETATM   25  O   UNK N   1      25.498  13.753  10.118  0.00  0.00    -0.773 OA
HETATM   26  H   UNK N   1      26.098  14.328   9.684  0.00  0.00     0.167 HD
ENDBRANCH  23  25
ENDBRANCH  18  23
ENDBRANCH   1  17
TORSDOF 7
ENDMDL
MODEL 7
REMARK VINA RESULT:      -6.6      5.377      6.614
REMARK  7 active torsions:
REMARK  status: ('A' for Active; 'I' for Inactive)
REMARK    1  A    between atoms: C_1  and  C_3 
REMARK    2  A    between atoms: C_2  and  N_4 
REMARK    3  A    between atoms: C_3  and  O_15 
REMARK       I    between atoms: N_4  and  C_5 
REMARK    4  A    between atoms: C_5  and  C_6 
REMARK    5  A    between atoms: C_7  and  O_17 
REMARK    6  A    between atoms: C_8  and  C_13 
REMARK    7  A    between atoms: C_9  and  O_19 
ROOT
HETATM    1  N   UNK N   1      22.186  14.156   8.507  0.00  0.00    -0.323 N 
HETATM    2  C   UNK N   1      21.510  13.974   7.342  0.00  0.00     0.245 C 
HETATM    3  O   UNK N   1      20.731  13.044   7.193  0.00  0.00    -0.268 OA
HETATM    4  H   UNK N   1      22.790  14.933   8.539  0.00  0.00     0.169 HD
ENDROOT
BRANCH   2   5
HETATM    5  C   UNK N   1      21.730  14.920   6.247  0.00  0.00     0.075 C 
HETATM    6  C   UNK N   1      20.826  15.879   6.025  0.00  0.00     0.017 C 
BRANCH   6   7
HETATM    7  C   UNK N   1      20.953  16.866   4.958  0.00  0.00    -0.033 A 
HETATM    8  C   UNK N   1      20.276  16.713   3.748  0.00  0.00     0.051 A 
HETATM    9  C   UNK N   1      20.400  17.669   2.729  0.00  0.00     0.102 A 
HETATM   10  C   UNK N   1      21.231  18.804   2.943  0.00  0.00     0.101 A 
HETATM   11  C   UNK N   1      21.903  18.937   4.163  0.00  0.00     0.040 A 
HETATM   12  C   UNK N   1      21.766  17.978   5.163  0.00  0.00     0.014 A 
BRANCH   9  13
HETATM   13  O   UNK N   1      19.734  17.504   1.560  0.00  0.00    -0.353 OA
HETATM   14  C   UNK N   1      20.024  16.504   0.657  0.00  0.00     0.210 C 
ENDBRANCH   9  13
BRANCH  10  15
HETATM   15  O   UNK N   1      21.414  19.783   2.019  0.00  0.00    -0.353 OA
HETATM   16  C   UNK N   1      20.683  20.944   1.932  0.00  0.00     0.210 C 
ENDBRANCH  10  15
ENDBRANCH   6   7
ENDBRANCH   2   5
BRANCH   1  17
HETATM   17  C   UNK N   1      22.128  13.362   9.681  0.00  0.00     0.051 A 
HETATM   18  C   UNK N   1      23.328  12.861  10.244  0.00  0.00     0.064 A 
HETATM   19  C   UNK N   1      23.261  12.073  11.401  0.00  0.00     0.020 A 
HETATM   20  C   UNK N   1      22.032  11.781  11.995  0.00  0.00     0.001 A 
HETATM   21  C   UNK N   1      20.853  12.275  11.441  0.00  0.00     0.002 A 
HETATM   22  C   UNK N   1      20.900  13.061  10.290  0.00  0.00     0.030 A 
BRANCH  18  23
HETATM   23  C   UNK N   1      24.670  13.138   9.654  0.00  0.00     0.178 C 
HETATM   24  O   UNK N   1      24.869  13.025   8.454  0.00  0.00    -0.646 OA
BRANCH  23  25
HETATM   25  O   UNK N   1      25.686  13.521  10.451  0.00  0.00    -0.773 OA
HETATM   26  H   UNK N   1      25.558  13.582  11.377  0.00  0.00     0.167 HD
ENDBRANCH  23  25
ENDBRANCH  18  23
ENDBRANCH   1  17
TORSDOF 7
ENDMDL
MODEL 8
REMARK VINA RESULT:      -6.6      7.623     13.675
REMARK  7 active torsions:
REMARK  status: ('A' for Active; 'I' for Inactive)
REMARK    1  A    between atoms: C_1  and  C_3 
REMARK    2  A    between atoms: C_2  and  N_4 
REMARK    3  A    between atoms: C_3  and  O_15 
REMARK       I    between atoms: N_4  and  C_5 
REMARK    4  A    between atoms: C_5  and  C_6 
REMARK    5  A    between atoms: C_7  and  O_17 
REMARK    6  A    between atoms: C_8  and  C_13 
REMARK    7  A    between atoms: C_9  and  O_19 
ROOT
HETATM    1  N   UNK N   1      33.933  15.883   9.081  0.00  0.00    -0.323 N 
HETATM    2  C   UNK N   1      34.747  16.539   9.948  0.00  0.00     0.245 C 
HETATM    3  O   UNK N   1      35.318  17.573   9.633  0.00  0.00    -0.268 OA
HETATM    4  H   UNK N   1      33.512  15.060   9.421  0.00  0.00     0.169 HD
ENDROOT
BRANCH   2   5
HETATM    5  C   UNK N   1      34.940  15.983  11.289  0.00  0.00     0.075 C 
HETATM    6  C   UNK N   1      35.422  14.742  11.413  0.00  0.00     0.017 C 
BRANCH   6   7
HETATM    7  C   UNK N   1      35.647  14.099  12.704  0.00  0.00    -0.033 A 
HETATM    8  C   UNK N   1      36.512  14.655  13.647  0.00  0.00     0.051 A 
HETATM    9  C   UNK N   1      36.719  14.033  14.887  0.00  0.00     0.102 A 
HETATM   10  C   UNK N   1      36.035  12.820  15.175  0.00  0.00     0.101 A 
HETATM   11  C   UNK N   1      35.173  12.278  14.215  0.00  0.00     0.040 A 
HETATM   12  C   UNK N   1      34.979  12.911  12.989  0.00  0.00     0.014 A 
BRANCH   9  13
HETATM   13  O   UNK N   1      37.564  14.588  15.791  0.00  0.00    -0.353 OA
HETATM   14  C   UNK N   1      37.186  15.576  16.674  0.00  0.00     0.210 C 
ENDBRANCH   9  13
BRANCH  10  15
HETATM   15  O   UNK N   1      36.168  12.144  16.346  0.00  0.00    -0.353 OA
HETATM   16  C   UNK N   1      35.162  11.917  17.255  0.00  0.00     0.210 C 
ENDBRANCH  10  15
ENDBRANCH   6   7
ENDBRANCH   2   5
BRANCH   1  17
HETATM   17  C   UNK N   1      33.616  16.239   7.745  0.00  0.00     0.051 A 
HETATM   18  C   UNK N   1      32.403  16.921   7.474  0.00  0.00     0.064 A 
HETATM   19  C   UNK N   1      32.095  17.264   6.151  0.00  0.00     0.020 A 
HETATM   20  C   UNK N   1      32.966  16.943   5.108  0.00  0.00     0.001 A 
HETATM   21  C   UNK N   1      34.159  16.274   5.376  0.00  0.00     0.002 A 
HETATM   22  C   UNK N   1      34.482  15.923   6.686  0.00  0.00     0.030 A 
BRANCH  18  23
HETATM   23  C   UNK N   1      31.433  17.291   8.545  0.00  0.00     0.178 C 
HETATM   24  O   UNK N   1      30.946  18.409   8.599  0.00  0.00    -0.646 OA
BRANCH  23  25
HETATM   25  O   UNK N   1      31.081  16.380   9.474  0.00  0.00    -0.773 OA
HETATM   26  H   UNK N   1      30.912  16.651  10.355  0.00  0.00     0.167 HD
ENDBRANCH  23  25
ENDBRANCH  18  23
ENDBRANCH   1  17
TORSDOF 7
ENDMDL
MODEL 9
REMARK VINA RESULT:      -6.5     10.823     14.330
REMARK  7 active torsions:
REMARK  status: ('A' for Active; 'I' for Inactive)
REMARK    1  A    between atoms: C_1  and  C_3 
REMARK    2  A    between atoms: C_2  and  N_4 
REMARK    3  A    between atoms: C_3  and  O_15 
REMARK       I    between atoms: N_4  and  C_5 
REMARK    4  A    between atoms: C_5  and  C_6 
REMARK    5  A    between atoms: C_7  and  O_17 
REMARK    6  A    between atoms: C_8  and  C_13 
REMARK    7  A    between atoms: C_9  and  O_19 
ROOT
HETATM    1  N   UNK N   1      27.971  25.043  -4.117  0.00  0.00    -0.323 N 
HETATM    2  C   UNK N   1      27.980  24.038  -3.202  0.00  0.00     0.245 C 
HETATM    3  O   UNK N   1      27.025  23.833  -2.468  0.00  0.00    -0.268 OA
HETATM    4  H   UNK N   1      28.782  25.132  -4.668  0.00  0.00     0.169 HD
ENDROOT
BRANCH   2   5
HETATM    5  C   UNK N   1      29.169  23.190  -3.102  0.00  0.00     0.075 C 
HETATM    6  C   UNK N   1      29.750  22.751  -4.223  0.00  0.00     0.017 C 
BRANCH   6   7
HETATM    7  C   UNK N   1      30.935  21.899  -4.228  0.00  0.00    -0.033 A 
HETATM    8  C   UNK N   1      31.289  21.162  -5.357  0.00  0.00     0.051 A 
HETATM    9  C   UNK N   1      32.433  20.349  -5.356  0.00  0.00     0.102 A 
HETATM   10  C   UNK N   1      33.232  20.284  -4.180  0.00  0.00     0.101 A 
HETATM   11  C   UNK N   1      32.858  21.030  -3.057  0.00  0.00     0.040 A 
HETATM   12  C   UNK N   1      31.719  21.832  -3.079  0.00  0.00     0.014 A 
BRANCH   9  13
HETATM   13  O   UNK N   1      32.762  19.640  -6.463  0.00  0.00    -0.353 OA
HETATM   14  C   UNK N   1      32.197  19.859  -7.700  0.00  0.00     0.210 C 
ENDBRANCH   9  13
BRANCH  10  15
HETATM   15  O   UNK N   1      34.357  19.528  -4.081  0.00  0.00    -0.353 OA
HETATM   16  C   UNK N   1      34.401  18.154  -4.108  0.00  0.00     0.210 C 
ENDBRANCH  10  15
ENDBRANCH   6   7
ENDBRANCH   2   5
BRANCH   1  17
HETATM   17  C   UNK N   1      26.935  25.978  -4.373  0.00  0.00     0.051 A 
HETATM   18  C   UNK N   1      26.035  25.745  -5.443  0.00  0.00     0.064 A 
HETATM   19  C   UNK N   1      25.018  26.677  -5.692  0.00  0.00     0.020 A 
HETATM   20  C   UNK N   1      24.889  27.821  -4.902  0.00  0.00     0.001 A 
HETATM   21  C   UNK N   1      25.775  28.048  -3.851  0.00  0.00     0.002 A 
HETATM   22  C   UNK N   1      26.792  27.132  -3.587  0.00  0.00     0.030 A 
BRANCH  18  23
HETATM   23  C   UNK N   1      26.123  24.543  -6.320  0.00  0.00     0.178 C 
HETATM   24  O   UNK N   1      25.210  23.734  -6.379  0.00  0.00    -0.646 OA
BRANCH  23  25
HETATM   25  O   UNK N   1      27.227  24.336  -7.065  0.00  0.00    -0.773 OA
HETATM   26  H   UNK N   1      27.149  24.188  -7.987  0.00  0.00     0.167 HD
ENDBRANCH  23  25
ENDBRANCH  18  23
ENDBRANCH   1  17
TORSDOF 7
ENDMDL
