REMARK  6 active torsions:
REMARK  status: ('A' for Active; 'I' for Inactive)
REMARK    1  A    between atoms: C_2  and  C_3 
REMARK    2  A    between atoms: C_3  and  C_4 
REMARK    3  A    between atoms: C_4  and  C_8 
REMARK    4  A    between atoms: C_4  and  C_5 
REMARK    5  A    between atoms: C_5  and  O_9 
REMARK    6  A    between atoms: C_6  and  C_8 
ROOT
HETATM    1  C   UNK N   1       1.188  -0.038  -0.000  0.00  0.00     0.083 C 
ENDROOT
BRANCH   1   2
HETATM    2  C   UNK N   1      -0.132   0.763   0.000  0.00  0.00     0.015 C 
BRANCH   2   3
HETATM    3  C   UNK N   1      -1.428  -0.025  -0.000  0.00  0.00    -0.004 C 
HETATM    4  C   UNK N   1      -2.599   0.938   0.000  0.00  0.00     0.005 C 
ENDBRANCH   2   3
ENDBRANCH   1   2
BRANCH   1   5
HETATM    5  C   UNK N   1       1.384  -1.569   0.000  0.00  0.00     0.015 C 
BRANCH   5   6
HETATM    6  C   UNK N   1       0.137  -2.433  -0.000  0.00  0.00    -0.004 C 
HETATM    7  C   UNK N   1       0.540  -3.894   0.000  0.00  0.00     0.005 C 
ENDBRANCH   5   6
ENDBRANCH   1   5
BRANCH   1   8
HETATM    8  C   UNK N   1       2.454   0.778  -0.000  0.00  0.00     0.143 C 
HETATM    9  O   UNK N   1       2.401   1.999   0.000  0.00  0.00    -0.650 OA
BRANCH   8  10
HETATM   10  O   UNK N   1       3.655   0.169   0.000  0.00  0.00    -0.776 OA
HETATM   11  H   UNK N   1       3.707  -0.766   0.000  0.00  0.00     0.167 HD
ENDBRANCH   8  10
ENDBRANCH   1   8
TORSDOF 6
