MODEL 1
REMARK VINA RESULT:      -8.0      0.000      0.000
REMARK  21 active torsions:
REMARK  status: ('A' for Active; 'I' for Inactive)
REMARK    1  A    between atoms: C_41  and  C_2 
REMARK    2  A    between atoms: C_12  and  C_24 
REMARK    3  A    between atoms: C_13  and  C_15 
REMARK    4  A    between atoms: C_14  and  N_17 
REMARK       I    between atoms: N_21  and  C_15 
REMARK    5  A    between atoms: C_16  and  C_24 
REMARK       I    between atoms: C_19  and  N_17 
REMARK    6  A    between atoms: C_18  and  C_37 
REMARK    7  A    between atoms: C_30  and  C_19 
REMARK    8  A    between atoms: C_26  and  N_21 
REMARK    9  A    between atoms: C_23  and  C_53 
REMARK   10  A    between atoms: C_43  and  C_26 
REMARK   11  A    between atoms: C_26  and  C_50 
REMARK   12  A    between atoms: C_30  and  C_42 
REMARK   13  A    between atoms: N_44  and  C_30 
REMARK   14  A    between atoms: C_45  and  C_37 
REMARK   15  A    between atoms: C_41  and  O_48 
REMARK   16  A    between atoms: C_46  and  C_42 
REMARK   17  A    between atoms: N_47  and  C_55 
REMARK   18  A    between atoms: O_51  and  C_50 
REMARK   19  A    between atoms: C_62  and  C_53 
REMARK   20  A    between atoms: C_55  and  C_63 
REMARK   21  A    between atoms: C_63  and  C_62 
ROOT
HETATM    1  C   UNK N   1      28.563  18.227   6.562  0.00  0.00     0.139 C 
HETATM    2  O   UNK N   1      28.978  18.218   5.230  0.00  0.00    -0.394 OA
HETATM    3  C   UNK N   1      27.852  19.526   6.888  0.00  0.00     0.041 C 
HETATM    4  H   UNK N   1      29.380  18.299   4.351  0.00  0.00     0.210 HD
ENDROOT
BRANCH   1   5
HETATM    5  C   UNK N   1      29.714  17.939   7.539  0.00  0.00     0.136 C 
BRANCH   5   6
HETATM    6  N   UNK N   1      30.677  16.912   7.160  0.00  0.00    -0.350 N 
HETATM    7  C   UNK N   1      32.026  17.061   7.065  0.00  0.00     0.241 C 
HETATM    8  O   UNK N   1      32.565  18.102   7.406  0.00  0.00    -0.271 OA
HETATM    9  H   UNK N   1      30.314  16.021   6.951  0.00  0.00     0.163 HD
BRANCH   7  10
HETATM   10  C   UNK N   1      32.847  15.951   6.433  0.00  0.00     0.186 C 
HETATM   11  N   UNK N   1      32.141  14.685   6.486  0.00  0.00    -0.345 N 
HETATM   12  C   UNK N   1      31.908  13.840   5.448  0.00  0.00     0.243 C 
HETATM   13  H   UNK N   1      31.794  14.409   7.365  0.00  0.00     0.163 HD
HETATM   14  C   UNK N   1      32.272  14.163   4.014  0.00  0.00     0.205 C 
HETATM   15  O   UNK N   1      31.397  12.758   5.688  0.00  0.00    -0.271 OA
HETATM   16  N   UNK N   1      33.696  14.427   3.891  0.00  0.00    -0.344 N 
HETATM   17  C   UNK N   1      34.641  13.447   3.918  0.00  0.00     0.241 C 
HETATM   18  H   UNK N   1      33.991  15.359   3.782  0.00  0.00     0.163 HD
HETATM   19  C   UNK N   1      34.246  11.985   3.904  0.00  0.00     0.176 C 
HETATM   20  O   UNK N   1      35.818  13.759   3.851  0.00  0.00    -0.271 OA
HETATM   21  N   UNK N   1      34.405  11.216   5.125  0.00  0.00    -0.346 N 
HETATM   22  C   UNK N   1      35.535  10.992   5.844  0.00  0.00     0.241 C 
HETATM   23  H   UNK N   1      33.585  10.802   5.479  0.00  0.00     0.163 HD
HETATM   24  C   UNK N   1      36.836  11.698   5.552  0.00  0.00     0.181 C 
HETATM   25  O   UNK N   1      35.488  10.184   6.756  0.00  0.00    -0.271 OA
HETATM   26  N   UNK N   1      37.114  12.923   6.260  0.00  0.00    -0.346 N 
HETATM   27  C   UNK N   1      36.820  13.253   7.541  0.00  0.00     0.241 C 
HETATM   28  H   UNK N   1      37.582  13.616   5.741  0.00  0.00     0.163 HD
HETATM   29  C   UNK N   1      36.114  12.307   8.522  0.00  0.00     0.180 C 
HETATM   30  O   UNK N   1      37.033  14.407   7.879  0.00  0.00    -0.271 OA
HETATM   31  N   UNK N   1      35.531  13.055   9.616  0.00  0.00    -0.346 N 
HETATM   32  C   UNK N   1      36.302  13.731  10.511  0.00  0.00     0.242 C 
HETATM   33  H   UNK N   1      34.552  13.076   9.717  0.00  0.00     0.163 HD
HETATM   34  O   UNK N   1      37.519  13.725  10.402  0.00  0.00    -0.271 OA
HETATM   35  C   UNK N   1      35.674  14.563  11.578  0.00  0.00     0.186 C 
HETATM   36  C   UNK N   1      34.656  15.656  11.331  0.00  0.00     0.120 C 
HETATM   37  S   UNK N   1      34.997  16.608   9.837  0.00  0.00    -0.095 SA
HETATM   38  S   UNK N   1      33.647  15.282   8.919  0.00  0.00    -0.095 SA
HETATM   39  C   UNK N   1      34.122  15.777   7.240  0.00  0.00     0.120 C 
BRANCH  14  40
HETATM   40  C   UNK N   1      31.410  15.315   3.463  0.00  0.00     0.146 C 
HETATM   41  C   UNK N   1      32.231  16.551   3.163  0.00  0.00     0.042 C 
BRANCH  40  42
HETATM   42  O   UNK N   1      30.366  15.669   4.313  0.00  0.00    -0.393 OA
HETATM   43  H   UNK N   1      29.428  15.424   4.317  0.00  0.00     0.210 HD
ENDBRANCH  40  42
ENDBRANCH  14  40
BRANCH  19  44
HETATM   44  C   UNK N   1      34.723  11.213   2.686  0.00  0.00     0.035 C 
BRANCH  44  45
HETATM   45  C   UNK N   1      33.848  11.559   1.498  0.00  0.00     0.004 C 
BRANCH  45  46
HETATM   46  C   UNK N   1      34.680  12.152   0.375  0.00  0.00     0.019 C 
BRANCH  46  47
HETATM   47  C   UNK N   1      36.151  12.180   0.754  0.00  0.00     0.111 C 
BRANCH  47  48
HETATM   48  N   UNK N   1      36.641  13.546   0.835  0.00  0.00    -0.430 N 
HETATM   49  H   UNK N   1      36.311  14.473   0.564  0.00  0.00     0.149 HD
HETATM   50  H   UNK N   1      37.556  13.590   1.282  0.00  0.00     0.149 HD
ENDBRANCH  47  48
ENDBRANCH  46  47
ENDBRANCH  45  46
ENDBRANCH  44  45
ENDBRANCH  19  44
BRANCH  24  51
HETATM   51  C   UNK N   1      38.081  10.889   5.261  0.00  0.00     0.075 C 
BRANCH  51  52
HETATM   52  C   UNK N   1      39.243  11.685   5.713  0.00  0.00    -0.028 A 
HETATM   53  C   UNK N   1      39.764  12.822   5.107  0.00  0.00     0.096 A 
HETATM   54  N   UNK N   1      40.877  13.219   5.780  0.00  0.00    -0.365 N 
HETATM   55  C   UNK N   1      41.034  12.337   6.780  0.00  0.00     0.042 A 
HETATM   56  H   UNK N   1      41.450  13.993   5.577  0.00  0.00     0.165 HD
HETATM   57  C   UNK N   1      40.050  11.392   6.772  0.00  0.00    -0.002 A 
HETATM   58  C   UNK N   1      42.054  12.314   7.729  0.00  0.00     0.030 A 
HETATM   59  C   UNK N   1      39.994  10.359   7.699  0.00  0.00     0.014 A 
HETATM   60  C   UNK N   1      41.004  10.312   8.676  0.00  0.00     0.001 A 
HETATM   61  C   UNK N   1      42.032  11.283   8.688  0.00  0.00     0.002 A 
ENDBRANCH  51  52
ENDBRANCH  24  51
BRANCH  29  62
HETATM   62  C   UNK N   1      36.882  11.139   9.177  0.00  0.00     0.073 C 
BRANCH  62  63
HETATM   63  C   UNK N   1      36.347  10.321  10.299  0.00  0.00    -0.056 A 
HETATM   64  C   UNK N   1      37.039  10.265  11.513  0.00  0.00     0.007 A 
HETATM   65  C   UNK N   1      36.446   9.659  12.627  0.00  0.00     0.001 A 
HETATM   66  C   UNK N   1      35.156   9.127  12.532  0.00  0.00     0.000 A 
HETATM   67  C   UNK N   1      34.456   9.204  11.325  0.00  0.00     0.001 A 
HETATM   68  C   UNK N   1      35.044   9.819  10.217  0.00  0.00     0.007 A 
ENDBRANCH  62  63
ENDBRANCH  29  62
BRANCH  35  69
HETATM   69  N   UNK N   1      35.867  14.259  12.968  0.00  0.00    -0.345 N 
HETATM   70  C   UNK N   1      35.376  13.165  13.593  0.00  0.00     0.240 C 
HETATM   71  O   UNK N   1      34.467  12.509  13.109  0.00  0.00    -0.271 OA
HETATM   72  H   UNK N   1      36.396  14.893  13.505  0.00  0.00     0.163 HD
BRANCH  70  73
HETATM   73  C   UNK N   1      36.112  12.664  14.791  0.00  0.00     0.171 C 
BRANCH  73  74
HETATM   74  C   UNK N   1      35.604  13.405  16.045  0.00  0.00     0.072 C 
BRANCH  74  75
HETATM   75  C   UNK N   1      35.506  12.583  17.307  0.00  0.00    -0.056 A 
HETATM   76  C   UNK N   1      35.312  13.196  18.554  0.00  0.00     0.007 A 
HETATM   77  C   UNK N   1      35.219  12.415  19.713  0.00  0.00     0.001 A 
HETATM   78  C   UNK N   1      35.313  11.022  19.632  0.00  0.00     0.000 A 
HETATM   79  C   UNK N   1      35.509  10.408  18.391  0.00  0.00     0.001 A 
HETATM   80  C   UNK N   1      35.606  11.187  17.232  0.00  0.00     0.007 A 
ENDBRANCH  74  75
ENDBRANCH  73  74
BRANCH  73  81
HETATM   81  N   UNK N   1      37.538  12.912  14.653  0.00  0.00    -0.418 N 
HETATM   82  H   UNK N   1      37.889  13.741  14.174  0.00  0.00     0.150 HD
HETATM   83  H   UNK N   1      38.201  12.242  15.044  0.00  0.00     0.150 HD
ENDBRANCH  73  81
ENDBRANCH  70  73
ENDBRANCH  35  69
ENDBRANCH   7  10
ENDBRANCH   5   6
BRANCH   5  84
HETATM   84  C   UNK N   1      29.295  17.843   9.008  0.00  0.00     0.191 C 
BRANCH  84  85
HETATM   85  O   UNK N   1      30.063  18.686   9.813  0.00  0.00    -0.399 OA
HETATM   86  H   UNK N   1      30.806  19.066  10.308  0.00  0.00     0.209 HD
ENDBRANCH  84  85
ENDBRANCH   5  84
ENDBRANCH   1   5
TORSDOF 21
ENDMDL
MODEL 2
REMARK VINA RESULT:      -8.0      1.292      2.139
REMARK  21 active torsions:
REMARK  status: ('A' for Active; 'I' for Inactive)
REMARK    1  A    between atoms: C_41  and  C_2 
REMARK    2  A    between atoms: C_12  and  C_24 
REMARK    3  A    between atoms: C_13  and  C_15 
REMARK    4  A    between atoms: C_14  and  N_17 
REMARK       I    between atoms: N_21  and  C_15 
REMARK    5  A    between atoms: C_16  and  C_24 
REMARK       I    between atoms: C_19  and  N_17 
REMARK    6  A    between atoms: C_18  and  C_37 
REMARK    7  A    between atoms: C_30  and  C_19 
REMARK    8  A    between atoms: C_26  and  N_21 
REMARK    9  A    between atoms: C_23  and  C_53 
REMARK   10  A    between atoms: C_43  and  C_26 
REMARK   11  A    between atoms: C_26  and  C_50 
REMARK   12  A    between atoms: C_30  and  C_42 
REMARK   13  A    between atoms: N_44  and  C_30 
REMARK   14  A    between atoms: C_45  and  C_37 
REMARK   15  A    between atoms: C_41  and  O_48 
REMARK   16  A    between atoms: C_46  and  C_42 
REMARK   17  A    between atoms: N_47  and  C_55 
REMARK   18  A    between atoms: O_51  and  C_50 
REMARK   19  A    between atoms: C_62  and  C_53 
REMARK   20  A    between atoms: C_55  and  C_63 
REMARK   21  A    between atoms: C_63  and  C_62 
ROOT
HETATM    1  C   UNK N   1      28.598  18.178   7.571  0.00  0.00     0.139 C 
HETATM    2  O   UNK N   1      27.648  18.708   8.445  0.00  0.00    -0.394 OA
HETATM    3  C   UNK N   1      28.185  16.791   7.117  0.00  0.00     0.041 C 
HETATM    4  H   UNK N   1      27.053  18.989   9.159  0.00  0.00     0.210 HD
ENDROOT
BRANCH   1   5
HETATM    5  C   UNK N   1      30.016  18.192   8.163  0.00  0.00     0.136 C 
BRANCH   5   6
HETATM    6  N   UNK N   1      30.944  17.163   7.708  0.00  0.00    -0.350 N 
HETATM    7  C   UNK N   1      32.286  17.304   7.527  0.00  0.00     0.241 C 
HETATM    8  O   UNK N   1      32.854  18.337   7.845  0.00  0.00    -0.271 OA
HETATM    9  H   UNK N   1      30.562  16.277   7.513  0.00  0.00     0.163 HD
BRANCH   7  10
HETATM   10  C   UNK N   1      33.055  16.197   6.829  0.00  0.00     0.186 C 
HETATM   11  N   UNK N   1      32.306  14.954   6.841  0.00  0.00    -0.345 N 
HETATM   12  C   UNK N   1      32.024  14.165   5.772  0.00  0.00     0.243 C 
HETATM   13  H   UNK N   1      31.967  14.651   7.714  0.00  0.00     0.163 HD
HETATM   14  C   UNK N   1      32.370  14.540   4.347  0.00  0.00     0.205 C 
HETATM   15  O   UNK N   1      31.480  13.092   5.975  0.00  0.00    -0.271 OA
HETATM   16  N   UNK N   1      33.799  14.760   4.205  0.00  0.00    -0.344 N 
HETATM   17  C   UNK N   1      34.710  13.749   4.168  0.00  0.00     0.241 C 
HETATM   18  H   UNK N   1      34.125  15.686   4.131  0.00  0.00     0.163 HD
HETATM   19  C   UNK N   1      34.264  12.303   4.097  0.00  0.00     0.176 C 
HETATM   20  O   UNK N   1      35.896  14.023   4.090  0.00  0.00    -0.271 OA
HETATM   21  N   UNK N   1      34.420  11.475   5.280  0.00  0.00    -0.346 N 
HETATM   22  C   UNK N   1      35.556  11.181   5.963  0.00  0.00     0.241 C 
HETATM   23  H   UNK N   1      33.593  11.074   5.632  0.00  0.00     0.163 HD
HETATM   24  C   UNK N   1      36.874  11.855   5.676  0.00  0.00     0.181 C 
HETATM   25  O   UNK N   1      35.499  10.335   6.839  0.00  0.00    -0.271 OA
HETATM   26  N   UNK N   1      37.209  13.036   6.430  0.00  0.00    -0.346 N 
HETATM   27  C   UNK N   1      36.952  13.318   7.731  0.00  0.00     0.241 C 
HETATM   28  H   UNK N   1      37.691  13.736   5.933  0.00  0.00     0.163 HD
HETATM   29  C   UNK N   1      36.234  12.353   8.684  0.00  0.00     0.180 C 
HETATM   30  O   UNK N   1      37.213  14.447   8.116  0.00  0.00    -0.271 OA
HETATM   31  N   UNK N   1      35.699  13.071   9.823  0.00  0.00    -0.346 N 
HETATM   32  C   UNK N   1      36.510  13.679  10.730  0.00  0.00     0.242 C 
HETATM   33  H   UNK N   1      34.723  13.120   9.945  0.00  0.00     0.163 HD
HETATM   34  O   UNK N   1      37.724  13.637  10.595  0.00  0.00    -0.271 OA
HETATM   35  C   UNK N   1      35.933  14.483  11.846  0.00  0.00     0.186 C 
HETATM   36  C   UNK N   1      34.949  15.620  11.669  0.00  0.00     0.120 C 
HETATM   37  S   UNK N   1      35.294  16.626  10.212  0.00  0.00    -0.095 SA
HETATM   38  S   UNK N   1      33.880  15.389   9.265  0.00  0.00    -0.095 SA
HETATM   39  C   UNK N   1      34.339  15.944   7.601  0.00  0.00     0.120 C 
BRANCH  14  40
HETATM   40  C   UNK N   1      31.538  15.744   3.865  0.00  0.00     0.146 C 
HETATM   41  C   UNK N   1      32.396  16.962   3.596  0.00  0.00     0.042 C 
BRANCH  40  42
HETATM   42  O   UNK N   1      30.528  16.099   4.756  0.00  0.00    -0.393 OA
HETATM   43  H   UNK N   1      30.457  16.004   5.718  0.00  0.00     0.210 HD
ENDBRANCH  40  42
ENDBRANCH  14  40
BRANCH  19  44
HETATM   44  C   UNK N   1      34.690  11.571   2.837  0.00  0.00     0.035 C 
BRANCH  44  45
HETATM   45  C   UNK N   1      34.343  12.414   1.626  0.00  0.00     0.004 C 
BRANCH  45  46
HETATM   46  C   UNK N   1      35.486  12.413   0.627  0.00  0.00     0.019 C 
BRANCH  46  47
HETATM   47  C   UNK N   1      35.679  13.797   0.030  0.00  0.00     0.111 C 
BRANCH  47  48
HETATM   48  N   UNK N   1      35.157  14.823   0.916  0.00  0.00    -0.430 N 
HETATM   49  H   UNK N   1      34.246  15.231   1.130  0.00  0.00     0.149 HD
HETATM   50  H   UNK N   1      35.897  15.249   1.474  0.00  0.00     0.149 HD
ENDBRANCH  47  48
ENDBRANCH  46  47
ENDBRANCH  45  46
ENDBRANCH  44  45
ENDBRANCH  19  44
BRANCH  24  51
HETATM   51  C   UNK N   1      38.085  11.018   5.322  0.00  0.00     0.075 C 
BRANCH  51  52
HETATM   52  C   UNK N   1      38.844  11.752   4.286  0.00  0.00    -0.028 A 
HETATM   53  C   UNK N   1      38.555  11.819   2.929  0.00  0.00     0.096 A 
HETATM   54  N   UNK N   1      39.529  12.528   2.298  0.00  0.00    -0.365 N 
HETATM   55  C   UNK N   1      40.400  12.886   3.255  0.00  0.00     0.042 A 
HETATM   56  H   UNK N   1      39.585  12.736   1.337  0.00  0.00     0.165 HD
HETATM   57  C   UNK N   1      40.008  12.435   4.481  0.00  0.00    -0.002 A 
HETATM   58  C   UNK N   1      41.581  13.608   3.091  0.00  0.00     0.030 A 
HETATM   59  C   UNK N   1      40.746  12.664   5.635  0.00  0.00     0.014 A 
HETATM   60  C   UNK N   1      41.938  13.397   5.506  0.00  0.00     0.001 A 
HETATM   61  C   UNK N   1      42.356  13.863   4.238  0.00  0.00     0.002 A 
ENDBRANCH  51  52
ENDBRANCH  24  51
BRANCH  29  62
HETATM   62  C   UNK N   1      36.973  11.132   9.270  0.00  0.00     0.073 C 
BRANCH  62  63
HETATM   63  C   UNK N   1      38.323  10.689   8.830  0.00  0.00    -0.056 A 
HETATM   64  C   UNK N   1      39.427  11.528   9.015  0.00  0.00     0.007 A 
HETATM   65  C   UNK N   1      40.719  11.042   8.783  0.00  0.00     0.001 A 
HETATM   66  C   UNK N   1      40.908   9.714   8.384  0.00  0.00     0.000 A 
HETATM   67  C   UNK N   1      39.806   8.870   8.222  0.00  0.00     0.001 A 
HETATM   68  C   UNK N   1      38.518   9.353   8.465  0.00  0.00     0.007 A 
ENDBRANCH  62  63
ENDBRANCH  29  62
BRANCH  35  69
HETATM   69  N   UNK N   1      36.143  14.110  13.217  0.00  0.00    -0.345 N 
HETATM   70  C   UNK N   1      35.507  13.097  13.846  0.00  0.00     0.240 C 
HETATM   71  O   UNK N   1      34.476  12.617  13.399  0.00  0.00    -0.271 OA
HETATM   72  H   UNK N   1      36.798  14.631  13.736  0.00  0.00     0.163 HD
BRANCH  70  73
HETATM   73  C   UNK N   1      36.208  12.444  14.991  0.00  0.00     0.171 C 
BRANCH  73  74
HETATM   74  C   UNK N   1      36.019  13.304  16.257  0.00  0.00     0.072 C 
BRANCH  74  75
HETATM   75  C   UNK N   1      35.622  12.562  17.510  0.00  0.00    -0.056 A 
HETATM   76  C   UNK N   1      35.270  13.254  18.678  0.00  0.00     0.007 A 
HETATM   77  C   UNK N   1      34.899  12.546  19.829  0.00  0.00     0.001 A 
HETATM   78  C   UNK N   1      34.872  11.149  19.816  0.00  0.00     0.000 A 
HETATM   79  C   UNK N   1      35.224  10.455  18.654  0.00  0.00     0.001 A 
HETATM   80  C   UNK N   1      35.599  11.160  17.504  0.00  0.00     0.007 A 
ENDBRANCH  74  75
ENDBRANCH  73  74
BRANCH  73  81
HETATM   81  N   UNK N   1      37.631  12.328  14.717  0.00  0.00    -0.418 N 
HETATM   82  H   UNK N   1      37.974  11.931  13.842  0.00  0.00     0.150 HD
HETATM   83  H   UNK N   1      38.302  12.652  15.415  0.00  0.00     0.150 HD
ENDBRANCH  73  81
ENDBRANCH  70  73
ENDBRANCH  35  69
ENDBRANCH   7  10
ENDBRANCH   5   6
BRANCH   5  84
HETATM   84  C   UNK N   1      30.075  18.415   9.676  0.00  0.00     0.191 C 
BRANCH  84  85
HETATM   85  O   UNK N   1      29.661  17.279  10.375  0.00  0.00    -0.399 OA
HETATM   86  H   UNK N   1      29.245  16.700  11.033  0.00  0.00     0.209 HD
ENDBRANCH  84  85
ENDBRANCH   5  84
ENDBRANCH   1   5
TORSDOF 21
ENDMDL
MODEL 3
REMARK VINA RESULT:      -8.0      1.383      2.202
REMARK  21 active torsions:
REMARK  status: ('A' for Active; 'I' for Inactive)
REMARK    1  A    between atoms: C_41  and  C_2 
REMARK    2  A    between atoms: C_12  and  C_24 
REMARK    3  A    between atoms: C_13  and  C_15 
REMARK    4  A    between atoms: C_14  and  N_17 
REMARK       I    between atoms: N_21  and  C_15 
REMARK    5  A    between atoms: C_16  and  C_24 
REMARK       I    between atoms: C_19  and  N_17 
REMARK    6  A    between atoms: C_18  and  C_37 
REMARK    7  A    between atoms: C_30  and  C_19 
REMARK    8  A    between atoms: C_26  and  N_21 
REMARK    9  A    between atoms: C_23  and  C_53 
REMARK   10  A    between atoms: C_43  and  C_26 
REMARK   11  A    between atoms: C_26  and  C_50 
REMARK   12  A    between atoms: C_30  and  C_42 
REMARK   13  A    between atoms: N_44  and  C_30 
REMARK   14  A    between atoms: C_45  and  C_37 
REMARK   15  A    between atoms: C_41  and  O_48 
REMARK   16  A    between atoms: C_46  and  C_42 
REMARK   17  A    between atoms: N_47  and  C_55 
REMARK   18  A    between atoms: O_51  and  C_50 
REMARK   19  A    between atoms: C_62  and  C_53 
REMARK   20  A    between atoms: C_55  and  C_63 
REMARK   21  A    between atoms: C_63  and  C_62 
ROOT
HETATM    1  C   UNK N   1      28.881  17.537   6.257  0.00  0.00     0.139 C 
HETATM    2  O   UNK N   1      29.227  17.389   4.914  0.00  0.00    -0.394 OA
HETATM    3  C   UNK N   1      28.042  18.784   6.456  0.00  0.00     0.041 C 
HETATM    4  H   UNK N   1      29.573  17.392   4.007  0.00  0.00     0.210 HD
ENDROOT
BRANCH   1   5
HETATM    5  C   UNK N   1      30.106  17.512   7.186  0.00  0.00     0.136 C 
BRANCH   5   6
HETATM    6  N   UNK N   1      31.117  16.491   6.939  0.00  0.00    -0.350 N 
HETATM    7  C   UNK N   1      32.460  16.688   6.840  0.00  0.00     0.241 C 
HETATM    8  O   UNK N   1      32.949  17.785   7.062  0.00  0.00    -0.271 OA
HETATM    9  H   UNK N   1      30.796  15.567   6.832  0.00  0.00     0.163 HD
BRANCH   7  10
HETATM   10  C   UNK N   1      33.337  15.549   6.350  0.00  0.00     0.186 C 
HETATM   11  N   UNK N   1      32.648  14.277   6.458  0.00  0.00    -0.345 N 
HETATM   12  C   UNK N   1      32.496  13.350   5.477  0.00  0.00     0.243 C 
HETATM   13  H   UNK N   1      32.249  14.063   7.332  0.00  0.00     0.163 HD
HETATM   14  C   UNK N   1      32.946  13.568   4.048  0.00  0.00     0.205 C 
HETATM   15  O   UNK N   1      31.986  12.280   5.768  0.00  0.00    -0.271 OA
HETATM   16  N   UNK N   1      34.371  13.850   3.994  0.00  0.00    -0.344 N 
HETATM   17  C   UNK N   1      35.327  12.895   4.158  0.00  0.00     0.241 C 
HETATM   18  H   UNK N   1      34.658  14.777   3.832  0.00  0.00     0.163 HD
HETATM   19  C   UNK N   1      34.956  11.427   4.234  0.00  0.00     0.176 C 
HETATM   20  O   UNK N   1      36.501  13.224   4.141  0.00  0.00    -0.271 OA
HETATM   21  N   UNK N   1      35.047  10.759   5.519  0.00  0.00    -0.346 N 
HETATM   22  C   UNK N   1      36.131  10.614   6.323  0.00  0.00     0.241 C 
HETATM   23  H   UNK N   1      34.212  10.357   5.852  0.00  0.00     0.163 HD
HETATM   24  C   UNK N   1      37.437  11.322   6.060  0.00  0.00     0.181 C 
HETATM   25  O   UNK N   1      36.038   9.879   7.291  0.00  0.00    -0.271 OA
HETATM   26  N   UNK N   1      37.651  12.602   6.685  0.00  0.00    -0.346 N 
HETATM   27  C   UNK N   1      37.270  13.025   7.915  0.00  0.00     0.241 C 
HETATM   28  H   UNK N   1      38.141  13.263   6.144  0.00  0.00     0.163 HD
HETATM   29  C   UNK N   1      36.517  12.143   8.922  0.00  0.00     0.180 C 
HETATM   30  O   UNK N   1      37.444  14.205   8.175  0.00  0.00    -0.271 OA
HETATM   31  N   UNK N   1      35.853  12.963   9.914  0.00  0.00    -0.346 N 
HETATM   32  C   UNK N   1      36.554  13.721  10.800  0.00  0.00     0.242 C 
HETATM   33  H   UNK N   1      34.869  12.971   9.951  0.00  0.00     0.163 HD
HETATM   34  O   UNK N   1      37.775  13.731  10.769  0.00  0.00    -0.271 OA
HETATM   35  C   UNK N   1      35.846  14.620  11.757  0.00  0.00     0.186 C 
HETATM   36  C   UNK N   1      34.830  15.670  11.360  0.00  0.00     0.120 C 
HETATM   37  S   UNK N   1      35.252  16.510   9.821  0.00  0.00    -0.095 SA
HETATM   38  S   UNK N   1      33.984  15.090   8.926  0.00  0.00    -0.095 SA
HETATM   39  C   UNK N   1      34.559  15.464   7.248  0.00  0.00     0.120 C 
BRANCH  14  40
HETATM   40  C   UNK N   1      32.104  14.657   3.354  0.00  0.00     0.146 C 
HETATM   41  C   UNK N   1      32.912  15.903   3.059  0.00  0.00     0.042 C 
BRANCH  40  42
HETATM   42  O   UNK N   1      30.976  15.019   4.084  0.00  0.00    -0.393 OA
HETATM   43  H   UNK N   1      30.131  15.408   3.811  0.00  0.00     0.210 HD
ENDBRANCH  40  42
ENDBRANCH  14  40
BRANCH  19  44
HETATM   44  C   UNK N   1      35.522  10.574   3.113  0.00  0.00     0.035 C 
BRANCH  44  45
HETATM   45  C   UNK N   1      34.920  11.014   1.793  0.00  0.00     0.004 C 
BRANCH  45  46
HETATM   46  C   UNK N   1      35.975  11.657   0.911  0.00  0.00     0.019 C 
BRANCH  46  47
HETATM   47  C   UNK N   1      35.392  12.836   0.150  0.00  0.00     0.111 C 
BRANCH  47  48
HETATM   48  N   UNK N   1      34.009  13.067   0.529  0.00  0.00    -0.430 N 
HETATM   49  H   UNK N   1      33.482  13.790   1.020  0.00  0.00     0.149 HD
HETATM   50  H   UNK N   1      33.404  12.306   0.222  0.00  0.00     0.149 HD
ENDBRANCH  47  48
ENDBRANCH  46  47
ENDBRANCH  45  46
ENDBRANCH  44  45
ENDBRANCH  19  44
BRANCH  24  51
HETATM   51  C   UNK N   1      38.711  10.517   5.912  0.00  0.00     0.075 C 
BRANCH  51  52
HETATM   52  C   UNK N   1      38.713   9.936   4.552  0.00  0.00    -0.028 A 
HETATM   53  C   UNK N   1      38.423   8.621   4.205  0.00  0.00     0.096 A 
HETATM   54  N   UNK N   1      38.606   8.460   2.868  0.00  0.00    -0.365 N 
HETATM   55  C   UNK N   1      39.004   9.656   2.406  0.00  0.00     0.042 A 
HETATM   56  H   UNK N   1      38.475   7.636   2.345  0.00  0.00     0.165 HD
HETATM   57  C   UNK N   1      39.073  10.581   3.406  0.00  0.00    -0.002 A 
HETATM   58  C   UNK N   1      39.339   9.983   1.093  0.00  0.00     0.030 A 
HETATM   59  C   UNK N   1      39.470  11.893   3.189  0.00  0.00     0.014 A 
HETATM   60  C   UNK N   1      39.807  12.258   1.873  0.00  0.00     0.001 A 
HETATM   61  C   UNK N   1      39.746  11.304   0.831  0.00  0.00     0.002 A 
ENDBRANCH  51  52
ENDBRANCH  24  51
BRANCH  29  62
HETATM   62  C   UNK N   1      37.257  11.046   9.713  0.00  0.00     0.073 C 
BRANCH  62  63
HETATM   63  C   UNK N   1      36.663  10.303  10.857  0.00  0.00    -0.056 A 
HETATM   64  C   UNK N   1      37.266  10.364  12.118  0.00  0.00     0.007 A 
HETATM   65  C   UNK N   1      36.608   9.832  13.233  0.00  0.00     0.001 A 
HETATM   66  C   UNK N   1      35.342   9.256  13.091  0.00  0.00     0.000 A 
HETATM   67  C   UNK N   1      34.729   9.216  11.835  0.00  0.00     0.001 A 
HETATM   68  C   UNK N   1      35.381   9.758  10.725  0.00  0.00     0.007 A 
ENDBRANCH  62  63
ENDBRANCH  29  62
BRANCH  35  69
HETATM   69  N   UNK N   1      35.954  14.428  13.176  0.00  0.00    -0.345 N 
HETATM   70  C   UNK N   1      35.414  13.392  13.856  0.00  0.00     0.240 C 
HETATM   71  O   UNK N   1      34.527  12.706  13.373  0.00  0.00    -0.271 OA
HETATM   72  H   UNK N   1      36.457  15.100  13.691  0.00  0.00     0.163 HD
BRANCH  70  73
HETATM   73  C   UNK N   1      36.072  12.985  15.133  0.00  0.00     0.171 C 
BRANCH  73  74
HETATM   74  C   UNK N   1      35.048  13.076  16.283  0.00  0.00     0.072 C 
BRANCH  74  75
HETATM   75  C   UNK N   1      35.357  12.258  17.513  0.00  0.00    -0.056 A 
HETATM   76  C   UNK N   1      35.312  12.832  18.792  0.00  0.00     0.007 A 
HETATM   77  C   UNK N   1      35.597  12.054  19.921  0.00  0.00     0.001 A 
HETATM   78  C   UNK N   1      35.923  10.701  19.779  0.00  0.00     0.000 A 
HETATM   79  C   UNK N   1      35.972  10.126  18.506  0.00  0.00     0.001 A 
HETATM   80  C   UNK N   1      35.691  10.903  17.375  0.00  0.00     0.007 A 
ENDBRANCH  74  75
ENDBRANCH  73  74
BRANCH  73  81
HETATM   81  N   UNK N   1      37.188  13.867  15.434  0.00  0.00    -0.418 N 
HETATM   82  H   UNK N   1      37.921  14.049  14.750  0.00  0.00     0.150 HD
HETATM   83  H   UNK N   1      37.237  14.315  16.350  0.00  0.00     0.150 HD
ENDBRANCH  73  81
ENDBRANCH  70  73
ENDBRANCH  35  69
ENDBRANCH   7  10
ENDBRANCH   5   6
BRANCH   5  84
HETATM   84  C   UNK N   1      29.782  17.676   8.673  0.00  0.00     0.191 C 
BRANCH  84  85
HETATM   85  O   UNK N   1      30.814  18.327   9.351  0.00  0.00    -0.399 OA
HETATM   86  H   UNK N   1      31.526  18.949   9.572  0.00  0.00     0.209 HD
ENDBRANCH  84  85
ENDBRANCH   5  84
ENDBRANCH   1   5
TORSDOF 21
ENDMDL
MODEL 4
REMARK VINA RESULT:      -7.9      1.213      2.468
REMARK  21 active torsions:
REMARK  status: ('A' for Active; 'I' for Inactive)
REMARK    1  A    between atoms: C_41  and  C_2 
REMARK    2  A    between atoms: C_12  and  C_24 
REMARK    3  A    between atoms: C_13  and  C_15 
REMARK    4  A    between atoms: C_14  and  N_17 
REMARK       I    between atoms: N_21  and  C_15 
REMARK    5  A    between atoms: C_16  and  C_24 
REMARK       I    between atoms: C_19  and  N_17 
REMARK    6  A    between atoms: C_18  and  C_37 
REMARK    7  A    between atoms: C_30  and  C_19 
REMARK    8  A    between atoms: C_26  and  N_21 
REMARK    9  A    between atoms: C_23  and  C_53 
REMARK   10  A    between atoms: C_43  and  C_26 
REMARK   11  A    between atoms: C_26  and  C_50 
REMARK   12  A    between atoms: C_30  and  C_42 
REMARK   13  A    between atoms: N_44  and  C_30 
REMARK   14  A    between atoms: C_45  and  C_37 
REMARK   15  A    between atoms: C_41  and  O_48 
REMARK   16  A    between atoms: C_46  and  C_42 
REMARK   17  A    between atoms: N_47  and  C_55 
REMARK   18  A    between atoms: O_51  and  C_50 
REMARK   19  A    between atoms: C_62  and  C_53 
REMARK   20  A    between atoms: C_55  and  C_63 
REMARK   21  A    between atoms: C_63  and  C_62 
ROOT
HETATM    1  C   UNK N   1      28.630  17.423   6.956  0.00  0.00     0.139 C 
HETATM    2  O   UNK N   1      28.822  16.850   5.698  0.00  0.00    -0.394 OA
HETATM    3  C   UNK N   1      28.031  18.809   6.822  0.00  0.00     0.041 C 
HETATM    4  H   UNK N   1      29.079  16.539   4.815  0.00  0.00     0.210 HD
ENDROOT
BRANCH   1   5
HETATM    5  C   UNK N   1      29.913  17.428   7.802  0.00  0.00     0.136 C 
BRANCH   5   6
HETATM    6  N   UNK N   1      30.977  16.509   7.416  0.00  0.00    -0.350 N 
HETATM    7  C   UNK N   1      32.288  16.820   7.227  0.00  0.00     0.241 C 
HETATM    8  O   UNK N   1      32.707  17.939   7.477  0.00  0.00    -0.271 OA
HETATM    9  H   UNK N   1      30.721  15.568   7.278  0.00  0.00     0.163 HD
BRANCH   7  10
HETATM   10  C   UNK N   1      33.208  15.785   6.603  0.00  0.00     0.186 C 
HETATM   11  N   UNK N   1      32.593  14.471   6.607  0.00  0.00    -0.345 N 
HETATM   12  C   UNK N   1      32.457  13.634   5.546  0.00  0.00     0.243 C 
HETATM   13  H   UNK N   1      32.238  14.152   7.468  0.00  0.00     0.163 HD
HETATM   14  C   UNK N   1      32.844  14.013   4.132  0.00  0.00     0.205 C 
HETATM   15  O   UNK N   1      32.017  12.514   5.747  0.00  0.00    -0.271 OA
HETATM   16  N   UNK N   1      34.248  14.380   4.063  0.00  0.00    -0.344 N 
HETATM   17  C   UNK N   1      35.260  13.470   4.105  0.00  0.00     0.241 C 
HETATM   18  H   UNK N   1      34.479  15.334   3.982  0.00  0.00     0.163 HD
HETATM   19  C   UNK N   1      34.973  11.984   4.049  0.00  0.00     0.176 C 
HETATM   20  O   UNK N   1      36.414  13.867   4.084  0.00  0.00    -0.271 OA
HETATM   21  N   UNK N   1      35.146  11.203   5.260  0.00  0.00    -0.346 N 
HETATM   22  C   UNK N   1      36.264  11.044   6.013  0.00  0.00     0.241 C 
HETATM   23  H   UNK N   1      34.346  10.723   5.577  0.00  0.00     0.163 HD
HETATM   24  C   UNK N   1      37.520  11.848   5.780  0.00  0.00     0.181 C 
HETATM   25  O   UNK N   1      36.246  10.216   6.907  0.00  0.00    -0.271 OA
HETATM   26  N   UNK N   1      37.685  13.073   6.520  0.00  0.00    -0.346 N 
HETATM   27  C   UNK N   1      37.326  13.354   7.796  0.00  0.00     0.241 C 
HETATM   28  H   UNK N   1      38.119  13.809   6.031  0.00  0.00     0.163 HD
HETATM   29  C   UNK N   1      36.658  12.339   8.735  0.00  0.00     0.180 C 
HETATM   30  O   UNK N   1      37.444  14.512   8.164  0.00  0.00    -0.271 OA
HETATM   31  N   UNK N   1      35.986  13.020   9.822  0.00  0.00    -0.346 N 
HETATM   32  C   UNK N   1      36.675  13.730  10.755  0.00  0.00     0.242 C 
HETATM   33  H   UNK N   1      35.005  12.969   9.888  0.00  0.00     0.163 HD
HETATM   34  O   UNK N   1      37.892  13.813  10.689  0.00  0.00    -0.271 OA
HETATM   35  C   UNK N   1      35.954  14.492  11.816  0.00  0.00     0.186 C 
HETATM   36  C   UNK N   1      34.869  15.515  11.554  0.00  0.00     0.120 C 
HETATM   37  S   UNK N   1      35.190  16.520  10.091  0.00  0.00    -0.095 SA
HETATM   38  S   UNK N   1      33.970  15.121   9.101  0.00  0.00    -0.095 SA
HETATM   39  C   UNK N   1      34.464  15.685   7.451  0.00  0.00     0.120 C 
BRANCH  14  40
HETATM   40  C   UNK N   1      31.920  15.113   3.572  0.00  0.00     0.146 C 
HETATM   41  C   UNK N   1      32.660  16.410   3.325  0.00  0.00     0.042 C 
BRANCH  40  42
HETATM   42  O   UNK N   1      30.827  15.373   4.393  0.00  0.00    -0.393 OA
HETATM   43  H   UNK N   1      30.711  15.301   5.353  0.00  0.00     0.210 HD
ENDBRANCH  40  42
ENDBRANCH  14  40
BRANCH  19  44
HETATM   44  C   UNK N   1      35.545  11.275   2.834  0.00  0.00     0.035 C 
BRANCH  44  45
HETATM   45  C   UNK N   1      34.730  11.642   1.609  0.00  0.00     0.004 C 
BRANCH  45  46
HETATM   46  C   UNK N   1      35.633  12.141   0.495  0.00  0.00     0.019 C 
BRANCH  46  47
HETATM   47  C   UNK N   1      35.740  13.656   0.530  0.00  0.00     0.111 C 
BRANCH  47  48
HETATM   48  N   UNK N   1      35.313  14.236  -0.732  0.00  0.00    -0.430 N 
HETATM   49  H   UNK N   1      35.608  14.197  -1.708  0.00  0.00     0.149 HD
HETATM   50  H   UNK N   1      34.503  14.844  -0.610  0.00  0.00     0.149 HD
ENDBRANCH  47  48
ENDBRANCH  46  47
ENDBRANCH  45  46
ENDBRANCH  44  45
ENDBRANCH  19  44
BRANCH  24  51
HETATM   51  C   UNK N   1      38.829  11.136   5.517  0.00  0.00     0.075 C 
BRANCH  51  52
HETATM   52  C   UNK N   1      39.761  12.123   4.929  0.00  0.00    -0.028 A 
HETATM   53  C   UNK N   1      40.728  12.862   5.600  0.00  0.00     0.096 A 
HETATM   54  N   UNK N   1      41.328  13.713   4.726  0.00  0.00    -0.365 N 
HETATM   55  C   UNK N   1      40.735  13.499   3.541  0.00  0.00     0.042 A 
HETATM   56  H   UNK N   1      42.048  14.355   4.921  0.00  0.00     0.165 HD
HETATM   57  C   UNK N   1      39.779  12.530   3.628  0.00  0.00    -0.002 A 
HETATM   58  C   UNK N   1      40.996  14.154   2.339  0.00  0.00     0.030 A 
HETATM   59  C   UNK N   1      39.014  12.131   2.540  0.00  0.00     0.014 A 
HETATM   60  C   UNK N   1      39.258  12.767   1.310  0.00  0.00     0.001 A 
HETATM   61  C   UNK N   1      40.242  13.778   1.212  0.00  0.00     0.002 A 
ENDBRANCH  51  52
ENDBRANCH  24  51
BRANCH  29  62
HETATM   62  C   UNK N   1      37.485  11.215   9.393  0.00  0.00     0.073 C 
BRANCH  62  63
HETATM   63  C   UNK N   1      38.877  10.870   8.999  0.00  0.00    -0.056 A 
HETATM   64  C   UNK N   1      39.885  11.837   9.078  0.00  0.00     0.007 A 
HETATM   65  C   UNK N   1      41.223  11.466   8.896  0.00  0.00     0.001 A 
HETATM   66  C   UNK N   1      41.553  10.129   8.655  0.00  0.00     0.000 A 
HETATM   67  C   UNK N   1      40.548   9.159   8.600  0.00  0.00     0.001 A 
HETATM   68  C   UNK N   1      39.215   9.528   8.792  0.00  0.00     0.007 A 
ENDBRANCH  62  63
ENDBRANCH  29  62
BRANCH  35  69
HETATM   69  N   UNK N   1      36.122  14.172  13.206  0.00  0.00    -0.345 N 
HETATM   70  C   UNK N   1      35.465  13.184  13.854  0.00  0.00     0.240 C 
HETATM   71  O   UNK N   1      34.447  12.689  13.396  0.00  0.00    -0.271 OA
HETATM   72  H   UNK N   1      36.762  14.712  13.724  0.00  0.00     0.163 HD
BRANCH  70  73
HETATM   73  C   UNK N   1      36.130  12.576  15.044  0.00  0.00     0.171 C 
BRANCH  73  74
HETATM   74  C   UNK N   1      35.554  13.211  16.326  0.00  0.00     0.072 C 
BRANCH  74  75
HETATM   75  C   UNK N   1      35.405  12.290  17.513  0.00  0.00    -0.056 A 
HETATM   76  C   UNK N   1      35.312  12.802  18.815  0.00  0.00     0.007 A 
HETATM   77  C   UNK N   1      35.170  11.931  19.903  0.00  0.00     0.001 A 
HETATM   78  C   UNK N   1      35.113  10.549  19.695  0.00  0.00     0.000 A 
HETATM   79  C   UNK N   1      35.208  10.035  18.398  0.00  0.00     0.001 A 
HETATM   80  C   UNK N   1      35.355  10.904  17.310  0.00  0.00     0.007 A 
ENDBRANCH  74  75
ENDBRANCH  73  74
BRANCH  73  81
HETATM   81  N   UNK N   1      37.563  12.823  15.008  0.00  0.00    -0.418 N 
HETATM   82  H   UNK N   1      38.167  12.563  15.788  0.00  0.00     0.150 HD
HETATM   83  H   UNK N   1      37.972  13.266  14.185  0.00  0.00     0.150 HD
ENDBRANCH  73  81
ENDBRANCH  70  73
ENDBRANCH  35  69
ENDBRANCH   7  10
ENDBRANCH   5   6
BRANCH   5  84
HETATM   84  C   UNK N   1      29.680  17.462   9.314  0.00  0.00     0.191 C 
BRANCH  84  85
HETATM   85  O   UNK N   1      30.063  18.687   9.862  0.00  0.00    -0.399 OA
HETATM   86  H   UNK N   1      30.156  19.440  10.468  0.00  0.00     0.209 HD
ENDBRANCH  84  85
ENDBRANCH   5  84
ENDBRANCH   1   5
TORSDOF 21
ENDMDL
MODEL 5
REMARK VINA RESULT:      -7.8      1.755      2.821
REMARK  21 active torsions:
REMARK  status: ('A' for Active; 'I' for Inactive)
REMARK    1  A    between atoms: C_41  and  C_2 
REMARK    2  A    between atoms: C_12  and  C_24 
REMARK    3  A    between atoms: C_13  and  C_15 
REMARK    4  A    between atoms: C_14  and  N_17 
REMARK       I    between atoms: N_21  and  C_15 
REMARK    5  A    between atoms: C_16  and  C_24 
REMARK       I    between atoms: C_19  and  N_17 
REMARK    6  A    between atoms: C_18  and  C_37 
REMARK    7  A    between atoms: C_30  and  C_19 
REMARK    8  A    between atoms: C_26  and  N_21 
REMARK    9  A    between atoms: C_23  and  C_53 
REMARK   10  A    between atoms: C_43  and  C_26 
REMARK   11  A    between atoms: C_26  and  C_50 
REMARK   12  A    between atoms: C_30  and  C_42 
REMARK   13  A    between atoms: N_44  and  C_30 
REMARK   14  A    between atoms: C_45  and  C_37 
REMARK   15  A    between atoms: C_41  and  O_48 
REMARK   16  A    between atoms: C_46  and  C_42 
REMARK   17  A    between atoms: N_47  and  C_55 
REMARK   18  A    between atoms: O_51  and  C_50 
REMARK   19  A    between atoms: C_62  and  C_53 
REMARK   20  A    between atoms: C_55  and  C_63 
REMARK   21  A    between atoms: C_63  and  C_62 
ROOT
HETATM    1  C   UNK N   1      27.879  18.403   6.789  0.00  0.00     0.139 C 
HETATM    2  O   UNK N   1      27.176  17.243   6.461  0.00  0.00    -0.394 OA
HETATM    3  C   UNK N   1      28.199  19.201   5.539  0.00  0.00     0.041 C 
HETATM    4  H   UNK N   1      26.822  16.380   6.194  0.00  0.00     0.210 HD
ENDROOT
BRANCH   1   5
HETATM    5  C   UNK N   1      29.135  18.114   7.625  0.00  0.00     0.136 C 
BRANCH   5   6
HETATM    6  N   UNK N   1      30.054  17.097   7.129  0.00  0.00    -0.350 N 
HETATM    7  C   UNK N   1      31.411  17.186   7.076  0.00  0.00     0.241 C 
HETATM    8  O   UNK N   1      31.993  18.144   7.560  0.00  0.00    -0.271 OA
HETATM    9  H   UNK N   1      29.652  16.261   6.798  0.00  0.00     0.163 HD
BRANCH   7  10
HETATM   10  C   UNK N   1      32.190  16.127   6.317  0.00  0.00     0.186 C 
HETATM   11  N   UNK N   1      31.505  14.847   6.356  0.00  0.00    -0.345 N 
HETATM   12  C   UNK N   1      31.197  14.058   5.294  0.00  0.00     0.243 C 
HETATM   13  H   UNK N   1      31.237  14.518   7.243  0.00  0.00     0.163 HD
HETATM   14  C   UNK N   1      31.436  14.466   3.856  0.00  0.00     0.205 C 
HETATM   15  O   UNK N   1      30.721  12.956   5.514  0.00  0.00    -0.271 OA
HETATM   16  N   UNK N   1      32.841  14.760   3.630  0.00  0.00    -0.344 N 
HETATM   17  C   UNK N   1      33.797  13.796   3.524  0.00  0.00     0.241 C 
HETATM   18  H   UNK N   1      33.115  15.702   3.551  0.00  0.00     0.163 HD
HETATM   19  C   UNK N   1      33.420  12.330   3.459  0.00  0.00     0.176 C 
HETATM   20  O   UNK N   1      34.960  14.131   3.377  0.00  0.00    -0.271 OA
HETATM   21  N   UNK N   1      33.689  11.498   4.617  0.00  0.00    -0.346 N 
HETATM   22  C   UNK N   1      34.878  11.253   5.226  0.00  0.00     0.241 C 
HETATM   23  H   UNK N   1      32.906  11.051   5.014  0.00  0.00     0.163 HD
HETATM   24  C   UNK N   1      36.141  11.996   4.868  0.00  0.00     0.181 C 
HETATM   25  O   UNK N   1      34.917  10.396   6.091  0.00  0.00    -0.271 OA
HETATM   26  N   UNK N   1      36.463  13.184   5.619  0.00  0.00    -0.346 N 
HETATM   27  C   UNK N   1      36.273  13.437   6.936  0.00  0.00     0.241 C 
HETATM   28  H   UNK N   1      36.877  13.913   5.103  0.00  0.00     0.163 HD
HETATM   29  C   UNK N   1      35.664  12.427   7.918  0.00  0.00     0.180 C 
HETATM   30  O   UNK N   1      36.500  14.574   7.321  0.00  0.00    -0.271 OA
HETATM   31  N   UNK N   1      35.165  13.104   9.097  0.00  0.00    -0.346 N 
HETATM   32  C   UNK N   1      35.999  13.741   9.961  0.00  0.00     0.242 C 
HETATM   33  H   UNK N   1      34.197  13.102   9.279  0.00  0.00     0.163 HD
HETATM   34  O   UNK N   1      37.203  13.761   9.752  0.00  0.00    -0.271 OA
HETATM   35  C   UNK N   1      35.453  14.502  11.123  0.00  0.00     0.186 C 
HETATM   36  C   UNK N   1      34.405  15.590  11.023  0.00  0.00     0.120 C 
HETATM   37  S   UNK N   1      34.609  16.629   9.562  0.00  0.00    -0.095 SA
HETATM   38  S   UNK N   1      33.202  15.334   8.685  0.00  0.00    -0.095 SA
HETATM   39  C   UNK N   1      33.530  15.930   7.004  0.00  0.00     0.120 C 
BRANCH  14  40
HETATM   40  C   UNK N   1      30.517  15.633   3.444  0.00  0.00     0.146 C 
HETATM   41  C   UNK N   1      31.293  16.904   3.174  0.00  0.00     0.042 C 
BRANCH  40  42
HETATM   42  O   UNK N   1      29.529  15.905   4.385  0.00  0.00    -0.393 OA
HETATM   43  H   UNK N   1      29.116  16.738   4.663  0.00  0.00     0.210 HD
ENDBRANCH  40  42
ENDBRANCH  14  40
BRANCH  19  44
HETATM   44  C   UNK N   1      33.803  11.636   2.164  0.00  0.00     0.035 C 
BRANCH  44  45
HETATM   45  C   UNK N   1      33.142  12.346   0.999  0.00  0.00     0.004 C 
BRANCH  45  46
HETATM   46  C   UNK N   1      33.991  12.226  -0.253  0.00  0.00     0.019 C 
BRANCH  46  47
HETATM   47  C   UNK N   1      33.138  12.392  -1.499  0.00  0.00     0.111 C 
BRANCH  47  48
HETATM   48  N   UNK N   1      33.745  13.334  -2.423  0.00  0.00    -0.430 N 
HETATM   49  H   UNK N   1      34.689  13.645  -2.658  0.00  0.00     0.149 HD
HETATM   50  H   UNK N   1      33.043  13.811  -2.988  0.00  0.00     0.149 HD
ENDBRANCH  47  48
ENDBRANCH  46  47
ENDBRANCH  45  46
ENDBRANCH  44  45
ENDBRANCH  19  44
BRANCH  24  51
HETATM   51  C   UNK N   1      37.367  11.226   4.429  0.00  0.00     0.075 C 
BRANCH  51  52
HETATM   52  C   UNK N   1      37.680  11.640   3.044  0.00  0.00    -0.028 A 
HETATM   53  C   UNK N   1      38.251  12.841   2.640  0.00  0.00     0.096 A 
HETATM   54  N   UNK N   1      38.308  12.875   1.282  0.00  0.00    -0.365 N 
HETATM   55  C   UNK N   1      37.780  11.714   0.864  0.00  0.00     0.042 A 
HETATM   56  H   UNK N   1      38.664  13.602   0.721  0.00  0.00     0.165 HD
HETATM   57  C   UNK N   1      37.393  10.934   1.914  0.00  0.00    -0.002 A 
HETATM   58  C   UNK N   1      37.599  11.298  -0.454  0.00  0.00     0.030 A 
HETATM   59  C   UNK N   1      36.806   9.687   1.745  0.00  0.00     0.014 A 
HETATM   60  C   UNK N   1      36.617   9.233   0.428  0.00  0.00     0.001 A 
HETATM   61  C   UNK N   1      37.009  10.039  -0.667  0.00  0.00     0.002 A 
ENDBRANCH  51  52
ENDBRANCH  24  51
BRANCH  29  62
HETATM   62  C   UNK N   1      36.497  11.238   8.439  0.00  0.00     0.073 C 
BRANCH  62  63
HETATM   63  C   UNK N   1      36.053  10.329   9.531  0.00  0.00    -0.056 A 
HETATM   64  C   UNK N   1      36.811  10.222  10.701  0.00  0.00     0.007 A 
HETATM   65  C   UNK N   1      36.301   9.524  11.802  0.00  0.00     0.001 A 
HETATM   66  C   UNK N   1      35.027   8.950  11.739  0.00  0.00     0.000 A 
HETATM   67  C   UNK N   1      34.260   9.077  10.577  0.00  0.00     0.001 A 
HETATM   68  C   UNK N   1      34.766   9.784   9.484  0.00  0.00     0.007 A 
ENDBRANCH  62  63
ENDBRANCH  29  62
BRANCH  35  69
HETATM   69  N   UNK N   1      35.766  14.125  12.472  0.00  0.00    -0.345 N 
HETATM   70  C   UNK N   1      35.306  13.012  13.087  0.00  0.00     0.240 C 
HETATM   71  O   UNK N   1      34.338  12.401  12.659  0.00  0.00    -0.271 OA
HETATM   72  H   UNK N   1      36.358  14.719  12.988  0.00  0.00     0.163 HD
BRANCH  70  73
HETATM   73  C   UNK N   1      36.135  12.435  14.186  0.00  0.00     0.171 C 
BRANCH  73  74
HETATM   74  C   UNK N   1      36.049  13.354  15.422  0.00  0.00     0.072 C 
BRANCH  74  75
HETATM   75  C   UNK N   1      35.771  12.670  16.739  0.00  0.00    -0.056 A 
HETATM   76  C   UNK N   1      35.888  11.279  16.868  0.00  0.00     0.007 A 
HETATM   77  C   UNK N   1      35.630  10.663  18.100  0.00  0.00     0.001 A 
HETATM   78  C   UNK N   1      35.262  11.434  19.207  0.00  0.00     0.000 A 
HETATM   79  C   UNK N   1      35.141  12.821  19.081  0.00  0.00     0.001 A 
HETATM   80  C   UNK N   1      35.395  13.437  17.850  0.00  0.00     0.007 A 
ENDBRANCH  74  75
ENDBRANCH  73  74
BRANCH  73  81
HETATM   81  N   UNK N   1      37.527  12.339  13.776  0.00  0.00    -0.418 N 
HETATM   82  H   UNK N   1      37.784  12.072  12.826  0.00  0.00     0.150 HD
HETATM   83  H   UNK N   1      38.262  12.544  14.453  0.00  0.00     0.150 HD
ENDBRANCH  73  81
ENDBRANCH  70  73
ENDBRANCH  35  69
ENDBRANCH   7  10
ENDBRANCH   5   6
BRANCH   5  84
HETATM   84  C   UNK N   1      28.888  18.004   9.132  0.00  0.00     0.191 C 
BRANCH  84  85
HETATM   85  O   UNK N   1      27.523  17.966   9.422  0.00  0.00    -0.399 OA
HETATM   86  H   UNK N   1      26.569  18.143   9.401  0.00  0.00     0.209 HD
ENDBRANCH  84  85
ENDBRANCH   5  84
ENDBRANCH   1   5
TORSDOF 21
ENDMDL
MODEL 6
REMARK VINA RESULT:      -7.6      1.800      3.835
REMARK  21 active torsions:
REMARK  status: ('A' for Active; 'I' for Inactive)
REMARK    1  A    between atoms: C_41  and  C_2 
REMARK    2  A    between atoms: C_12  and  C_24 
REMARK    3  A    between atoms: C_13  and  C_15 
REMARK    4  A    between atoms: C_14  and  N_17 
REMARK       I    between atoms: N_21  and  C_15 
REMARK    5  A    between atoms: C_16  and  C_24 
REMARK       I    between atoms: C_19  and  N_17 
REMARK    6  A    between atoms: C_18  and  C_37 
REMARK    7  A    between atoms: C_30  and  C_19 
REMARK    8  A    between atoms: C_26  and  N_21 
REMARK    9  A    between atoms: C_23  and  C_53 
REMARK   10  A    between atoms: C_43  and  C_26 
REMARK   11  A    between atoms: C_26  and  C_50 
REMARK   12  A    between atoms: C_30  and  C_42 
REMARK   13  A    between atoms: N_44  and  C_30 
REMARK   14  A    between atoms: C_45  and  C_37 
REMARK   15  A    between atoms: C_41  and  O_48 
REMARK   16  A    between atoms: C_46  and  C_42 
REMARK   17  A    between atoms: N_47  and  C_55 
REMARK   18  A    between atoms: O_51  and  C_50 
REMARK   19  A    between atoms: C_62  and  C_53 
REMARK   20  A    between atoms: C_55  and  C_63 
REMARK   21  A    between atoms: C_63  and  C_62 
ROOT
HETATM    1  C   UNK N   1      28.181  19.302   7.233  0.00  0.00     0.139 C 
HETATM    2  O   UNK N   1      27.081  19.785   7.941  0.00  0.00    -0.394 OA
HETATM    3  C   UNK N   1      27.727  18.502   6.027  0.00  0.00     0.041 C 
HETATM    4  H   UNK N   1      26.305  19.981   8.491  0.00  0.00     0.210 HD
ENDROOT
BRANCH   1   5
HETATM    5  C   UNK N   1      29.151  18.506   8.121  0.00  0.00     0.136 C 
BRANCH   5   6
HETATM    6  N   UNK N   1      29.987  17.503   7.472  0.00  0.00    -0.350 N 
HETATM    7  C   UNK N   1      31.343  17.528   7.359  0.00  0.00     0.241 C 
HETATM    8  O   UNK N   1      32.000  18.396   7.911  0.00  0.00    -0.271 OA
HETATM    9  H   UNK N   1      29.523  16.730   7.077  0.00  0.00     0.163 HD
BRANCH   7  10
HETATM   10  C   UNK N   1      32.024  16.519   6.452  0.00  0.00     0.186 C 
HETATM   11  N   UNK N   1      31.358  15.231   6.511  0.00  0.00    -0.345 N 
HETATM   12  C   UNK N   1      30.922  14.493   5.457  0.00  0.00     0.243 C 
HETATM   13  H   UNK N   1      31.207  14.852   7.407  0.00  0.00     0.163 HD
HETATM   14  C   UNK N   1      30.972  14.977   4.024  0.00  0.00     0.205 C 
HETATM   15  O   UNK N   1      30.484  13.375   5.678  0.00  0.00    -0.271 OA
HETATM   16  N   UNK N   1      32.335  15.300   3.637  0.00  0.00    -0.344 N 
HETATM   17  C   UNK N   1      33.275  14.355   3.360  0.00  0.00     0.241 C 
HETATM   18  H   UNK N   1      32.592  16.248   3.573  0.00  0.00     0.163 HD
HETATM   19  C   UNK N   1      32.902  12.889   3.267  0.00  0.00     0.176 C 
HETATM   20  O   UNK N   1      34.409  14.711   3.084  0.00  0.00    -0.271 OA
HETATM   21  N   UNK N   1      33.322  12.003   4.336  0.00  0.00    -0.346 N 
HETATM   22  C   UNK N   1      34.580  11.742   4.775  0.00  0.00     0.241 C 
HETATM   23  H   UNK N   1      32.599  11.526   4.805  0.00  0.00     0.163 HD
HETATM   24  C   UNK N   1      35.783  12.518   4.299  0.00  0.00     0.181 C 
HETATM   25  O   UNK N   1      34.735  10.841   5.582  0.00  0.00    -0.271 OA
HETATM   26  N   UNK N   1      36.191  13.669   5.064  0.00  0.00    -0.346 N 
HETATM   27  C   UNK N   1      36.169  13.853   6.406  0.00  0.00     0.241 C 
HETATM   28  H   UNK N   1      36.532  14.429   4.538  0.00  0.00     0.163 HD
HETATM   29  C   UNK N   1      35.696  12.785   7.403  0.00  0.00     0.180 C 
HETATM   30  O   UNK N   1      36.437  14.971   6.818  0.00  0.00    -0.271 OA
HETATM   31  N   UNK N   1      35.348  13.395   8.670  0.00  0.00    -0.346 N 
HETATM   32  C   UNK N   1      36.282  13.997   9.453  0.00  0.00     0.242 C 
HETATM   33  H   UNK N   1      34.411  13.371   8.973  0.00  0.00     0.163 HD
HETATM   34  O   UNK N   1      37.449  14.044   9.094  0.00  0.00    -0.271 OA
HETATM   35  C   UNK N   1      35.884  14.691  10.713  0.00  0.00     0.186 C 
HETATM   36  C   UNK N   1      34.825  15.770  10.804  0.00  0.00     0.120 C 
HETATM   37  S   UNK N   1      34.834  16.884   9.386  0.00  0.00    -0.095 SA
HETATM   38  S   UNK N   1      33.336  15.618   8.628  0.00  0.00    -0.095 SA
HETATM   39  C   UNK N   1      33.442  16.303   6.953  0.00  0.00     0.120 C 
BRANCH  14  40
HETATM   40  C   UNK N   1      30.002  16.152   3.793  0.00  0.00     0.146 C 
HETATM   41  C   UNK N   1      28.665  15.692   3.250  0.00  0.00     0.042 C 
BRANCH  40  42
HETATM   42  O   UNK N   1      30.518  17.124   2.942  0.00  0.00    -0.393 OA
HETATM   43  H   UNK N   1      30.795  17.085   2.013  0.00  0.00     0.210 HD
ENDBRANCH  40  42
ENDBRANCH  14  40
BRANCH  19  44
HETATM   44  C   UNK N   1      33.121  12.267   1.899  0.00  0.00     0.035 C 
BRANCH  44  45
HETATM   45  C   UNK N   1      31.869  12.441   1.062  0.00  0.00     0.004 C 
BRANCH  45  46
HETATM   46  C   UNK N   1      31.492  11.136   0.384  0.00  0.00     0.019 C 
BRANCH  46  47
HETATM   47  C   UNK N   1      32.067  11.077  -1.022  0.00  0.00     0.111 C 
BRANCH  47  48
HETATM   48  N   UNK N   1      31.668  12.240  -1.796  0.00  0.00    -0.430 N 
HETATM   49  H   UNK N   1      30.892  12.903  -1.799  0.00  0.00     0.149 HD
HETATM   50  H   UNK N   1      32.343  12.450  -2.531  0.00  0.00     0.149 HD
ENDBRANCH  47  48
ENDBRANCH  46  47
ENDBRANCH  45  46
ENDBRANCH  44  45
ENDBRANCH  19  44
BRANCH  24  51
HETATM   51  C   UNK N   1      36.948  11.786   3.668  0.00  0.00     0.075 C 
BRANCH  51  52
HETATM   52  C   UNK N   1      36.980  12.154   2.236  0.00  0.00    -0.028 A 
HETATM   53  C   UNK N   1      37.436  13.348   1.690  0.00  0.00     0.096 A 
HETATM   54  N   UNK N   1      37.231  13.333   0.346  0.00  0.00    -0.365 N 
HETATM   55  C   UNK N   1      36.658  12.150   0.076  0.00  0.00     0.042 A 
HETATM   56  H   UNK N   1      37.457  14.044  -0.297  0.00  0.00     0.165 HD
HETATM   57  C   UNK N   1      36.497  11.403   1.205  0.00  0.00    -0.002 A 
HETATM   58  C   UNK N   1      36.238  11.683  -1.168  0.00  0.00     0.030 A 
HETATM   59  C   UNK N   1      35.917  10.142   1.194  0.00  0.00     0.014 A 
HETATM   60  C   UNK N   1      35.489   9.637  -0.047  0.00  0.00     0.001 A 
HETATM   61  C   UNK N   1      35.646  10.407  -1.222  0.00  0.00     0.002 A 
ENDBRANCH  51  52
ENDBRANCH  24  51
BRANCH  29  62
HETATM   62  C   UNK N   1      36.596  11.582   7.751  0.00  0.00     0.073 C 
BRANCH  62  63
HETATM   63  C   UNK N   1      37.822  11.215   6.993  0.00  0.00    -0.056 A 
HETATM   64  C   UNK N   1      38.909  12.095   6.957  0.00  0.00     0.007 A 
HETATM   65  C   UNK N   1      40.128  11.675   6.412  0.00  0.00     0.001 A 
HETATM   66  C   UNK N   1      40.266  10.373   5.922  0.00  0.00     0.000 A 
HETATM   67  C   UNK N   1      39.187   9.487   5.980  0.00  0.00     0.001 A 
HETATM   68  C   UNK N   1      37.974   9.903   6.533  0.00  0.00     0.007 A 
ENDBRANCH  62  63
ENDBRANCH  29  62
BRANCH  35  69
HETATM   69  N   UNK N   1      36.368  14.249  11.990  0.00  0.00    -0.345 N 
HETATM   70  C   UNK N   1      35.754  13.331  12.771  0.00  0.00     0.240 C 
HETATM   71  O   UNK N   1      34.581  13.036  12.605  0.00  0.00    -0.271 OA
HETATM   72  H   UNK N   1      37.208  14.642  12.321  0.00  0.00     0.163 HD
BRANCH  70  73
HETATM   73  C   UNK N   1      36.605  12.541  13.710  0.00  0.00     0.171 C 
BRANCH  73  74
HETATM   74  C   UNK N   1      36.871  13.377  14.978  0.00  0.00     0.072 C 
BRANCH  74  75
HETATM   75  C   UNK N   1      36.241  12.868  16.252  0.00  0.00    -0.056 A 
HETATM   76  C   UNK N   1      35.762  13.757  17.225  0.00  0.00     0.007 A 
HETATM   77  C   UNK N   1      35.176  13.265  18.398  0.00  0.00     0.001 A 
HETATM   78  C   UNK N   1      35.061  11.886  18.602  0.00  0.00     0.000 A 
HETATM   79  C   UNK N   1      35.541  10.997  17.635  0.00  0.00     0.001 A 
HETATM   80  C   UNK N   1      36.130  11.487  16.464  0.00  0.00     0.007 A 
ENDBRANCH  74  75
ENDBRANCH  73  74
BRANCH  73  81
HETATM   81  N   UNK N   1      37.881  12.219  13.091  0.00  0.00    -0.418 N 
HETATM   82  H   UNK N   1      38.013  11.354  12.565  0.00  0.00     0.150 HD
HETATM   83  H   UNK N   1      38.659  12.871  13.184  0.00  0.00     0.150 HD
ENDBRANCH  73  81
ENDBRANCH  70  73
ENDBRANCH  35  69
ENDBRANCH   7  10
ENDBRANCH   5   6
BRANCH   5  84
HETATM   84  C   UNK N   1      28.550  18.013   9.440  0.00  0.00     0.191 C 
BRANCH  84  85
HETATM   85  O   UNK N   1      27.431  17.209   9.221  0.00  0.00    -0.399 OA
HETATM   86  H   UNK N   1      26.676  16.772   8.794  0.00  0.00     0.209 HD
ENDBRANCH  84  85
ENDBRANCH   5  84
ENDBRANCH   1   5
TORSDOF 21
ENDMDL
MODEL 7
REMARK VINA RESULT:      -7.5      1.599      3.003
REMARK  21 active torsions:
REMARK  status: ('A' for Active; 'I' for Inactive)
REMARK    1  A    between atoms: C_41  and  C_2 
REMARK    2  A    between atoms: C_12  and  C_24 
REMARK    3  A    between atoms: C_13  and  C_15 
REMARK    4  A    between atoms: C_14  and  N_17 
REMARK       I    between atoms: N_21  and  C_15 
REMARK    5  A    between atoms: C_16  and  C_24 
REMARK       I    between atoms: C_19  and  N_17 
REMARK    6  A    between atoms: C_18  and  C_37 
REMARK    7  A    between atoms: C_30  and  C_19 
REMARK    8  A    between atoms: C_26  and  N_21 
REMARK    9  A    between atoms: C_23  and  C_53 
REMARK   10  A    between atoms: C_43  and  C_26 
REMARK   11  A    between atoms: C_26  and  C_50 
REMARK   12  A    between atoms: C_30  and  C_42 
REMARK   13  A    between atoms: N_44  and  C_30 
REMARK   14  A    between atoms: C_45  and  C_37 
REMARK   15  A    between atoms: C_41  and  O_48 
REMARK   16  A    between atoms: C_46  and  C_42 
REMARK   17  A    between atoms: N_47  and  C_55 
REMARK   18  A    between atoms: O_51  and  C_50 
REMARK   19  A    between atoms: C_62  and  C_53 
REMARK   20  A    between atoms: C_55  and  C_63 
REMARK   21  A    between atoms: C_63  and  C_62 
ROOT
HETATM    1  C   UNK N   1      28.322  18.072   6.750  0.00  0.00     0.139 C 
HETATM    2  O   UNK N   1      27.328  17.093   6.758  0.00  0.00    -0.394 OA
HETATM    3  C   UNK N   1      28.822  18.310   5.339  0.00  0.00     0.041 C 
HETATM    4  H   UNK N   1      26.751  16.312   6.753  0.00  0.00     0.210 HD
ENDROOT
BRANCH   1   5
HETATM    5  C   UNK N   1      29.470  17.754   7.722  0.00  0.00     0.136 C 
BRANCH   5   6
HETATM    6  N   UNK N   1      30.479  16.797   7.281  0.00  0.00    -0.350 N 
HETATM    7  C   UNK N   1      31.825  16.993   7.254  0.00  0.00     0.241 C 
HETATM    8  O   UNK N   1      32.317  18.010   7.718  0.00  0.00    -0.271 OA
HETATM    9  H   UNK N   1      30.152  15.922   6.971  0.00  0.00     0.163 HD
BRANCH   7  10
HETATM   10  C   UNK N   1      32.704  15.975   6.549  0.00  0.00     0.186 C 
HETATM   11  N   UNK N   1      32.121  14.647   6.616  0.00  0.00    -0.345 N 
HETATM   12  C   UNK N   1      31.903  13.802   5.576  0.00  0.00     0.243 C 
HETATM   13  H   UNK N   1      31.857  14.326   7.508  0.00  0.00     0.163 HD
HETATM   14  C   UNK N   1      32.144  14.181   4.130  0.00  0.00     0.205 C 
HETATM   15  O   UNK N   1      31.509  12.674   5.822  0.00  0.00    -0.271 OA
HETATM   16  N   UNK N   1      33.527  14.579   3.926  0.00  0.00    -0.344 N 
HETATM   17  C   UNK N   1      34.558  13.692   3.874  0.00  0.00     0.241 C 
HETATM   18  H   UNK N   1      33.728  15.537   3.820  0.00  0.00     0.163 HD
HETATM   19  C   UNK N   1      34.300  12.199   3.851  0.00  0.00     0.176 C 
HETATM   20  O   UNK N   1      35.695  14.113   3.742  0.00  0.00    -0.271 OA
HETATM   21  N   UNK N   1      34.605  11.429   5.042  0.00  0.00    -0.346 N 
HETATM   22  C   UNK N   1      35.794  11.299   5.685  0.00  0.00     0.241 C 
HETATM   23  H   UNK N   1      33.850  10.934   5.436  0.00  0.00     0.163 HD
HETATM   24  C   UNK N   1      37.003  12.128   5.331  0.00  0.00     0.181 C 
HETATM   25  O   UNK N   1      35.879  10.475   6.580  0.00  0.00    -0.271 OA
HETATM   26  N   UNK N   1      37.211  13.361   6.047  0.00  0.00    -0.346 N 
HETATM   27  C   UNK N   1      36.969  13.641   7.351  0.00  0.00     0.241 C 
HETATM   28  H   UNK N   1      37.580  14.104   5.516  0.00  0.00     0.163 HD
HETATM   29  C   UNK N   1      36.417  12.617   8.352  0.00  0.00     0.180 C 
HETATM   30  O   UNK N   1      37.097  14.804   7.702  0.00  0.00    -0.271 OA
HETATM   31  N   UNK N   1      35.838  13.290   9.496  0.00  0.00    -0.346 N 
HETATM   32  C   UNK N   1      36.597  14.019  10.357  0.00  0.00     0.242 C 
HETATM   33  H   UNK N   1      34.869  13.217   9.657  0.00  0.00     0.163 HD
HETATM   34  O   UNK N   1      37.800  14.129  10.174  0.00  0.00    -0.271 OA
HETATM   35  C   UNK N   1      35.964  14.771  11.479  0.00  0.00     0.186 C 
HETATM   36  C   UNK N   1      34.836  15.769  11.319  0.00  0.00     0.120 C 
HETATM   37  S   UNK N   1      34.993  16.773   9.829  0.00  0.00    -0.095 SA
HETATM   38  S   UNK N   1      33.716  15.342   8.965  0.00  0.00    -0.095 SA
HETATM   39  C   UNK N   1      34.037  15.908   7.273  0.00  0.00     0.120 C 
BRANCH  14  40
HETATM   40  C   UNK N   1      31.147  15.258   3.658  0.00  0.00     0.146 C 
HETATM   41  C   UNK N   1      31.815  16.597   3.433  0.00  0.00     0.042 C 
BRANCH  40  42
HETATM   42  O   UNK N   1      30.081  15.433   4.536  0.00  0.00    -0.393 OA
HETATM   43  H   UNK N   1      30.005  15.290   5.492  0.00  0.00     0.210 HD
ENDBRANCH  40  42
ENDBRANCH  14  40
BRANCH  19  44
HETATM   44  C   UNK N   1      34.768  11.496   2.589  0.00  0.00     0.035 C 
BRANCH  44  45
HETATM   45  C   UNK N   1      34.194  12.203   1.377  0.00  0.00     0.004 C 
BRANCH  45  46
HETATM   46  C   UNK N   1      35.165  12.143   0.212  0.00  0.00     0.019 C 
BRANCH  46  47
HETATM   47  C   UNK N   1      35.320  13.513  -0.427  0.00  0.00     0.111 C 
BRANCH  47  48
HETATM   48  N   UNK N   1      35.313  14.560   0.579  0.00  0.00    -0.430 N 
HETATM   49  H   UNK N   1      36.004  15.137   1.059  0.00  0.00     0.149 HD
HETATM   50  H   UNK N   1      34.365  14.777   0.887  0.00  0.00     0.149 HD
ENDBRANCH  47  48
ENDBRANCH  46  47
ENDBRANCH  45  46
ENDBRANCH  44  45
ENDBRANCH  19  44
BRANCH  24  51
HETATM   51  C   UNK N   1      38.297  11.444   4.946  0.00  0.00     0.075 C 
BRANCH  51  52
HETATM   52  C   UNK N   1      39.008  12.337   4.005  0.00  0.00    -0.028 A 
HETATM   53  C   UNK N   1      38.688  12.574   2.674  0.00  0.00     0.096 A 
HETATM   54  N   UNK N   1      39.623  13.396   2.128  0.00  0.00    -0.365 N 
HETATM   55  C   UNK N   1      40.502  13.655   3.110  0.00  0.00     0.042 A 
HETATM   56  H   UNK N   1      39.651  13.733   1.203  0.00  0.00     0.165 HD
HETATM   57  C   UNK N   1      40.152  13.030   4.271  0.00  0.00    -0.002 A 
HETATM   58  C   UNK N   1      41.653  14.435   3.025  0.00  0.00     0.030 A 
HETATM   59  C   UNK N   1      40.906  13.130   5.433  0.00  0.00     0.014 A 
HETATM   60  C   UNK N   1      42.070  13.917   5.383  0.00  0.00     0.001 A 
HETATM   61  C   UNK N   1      42.444  14.563   4.182  0.00  0.00     0.002 A 
ENDBRANCH  51  52
ENDBRANCH  24  51
BRANCH  29  62
HETATM   62  C   UNK N   1      37.328  11.515   8.933  0.00  0.00     0.073 C 
BRANCH  62  63
HETATM   63  C   UNK N   1      38.738  11.296   8.510  0.00  0.00    -0.056 A 
HETATM   64  C   UNK N   1      39.735  12.188   8.917  0.00  0.00     0.007 A 
HETATM   65  C   UNK N   1      41.082  11.882   8.687  0.00  0.00     0.001 A 
HETATM   66  C   UNK N   1      41.430  10.677   8.067  0.00  0.00     0.000 A 
HETATM   67  C   UNK N   1      40.435   9.776   7.682  0.00  0.00     0.001 A 
HETATM   68  C   UNK N   1      39.092  10.077   7.922  0.00  0.00     0.007 A 
ENDBRANCH  62  63
ENDBRANCH  29  62
BRANCH  35  69
HETATM   69  N   UNK N   1      36.271  14.463  12.847  0.00  0.00    -0.345 N 
HETATM   70  C   UNK N   1      35.650  13.513  13.582  0.00  0.00     0.240 C 
HETATM   71  O   UNK N   1      34.568  13.056  13.247  0.00  0.00    -0.271 OA
HETATM   72  H   UNK N   1      36.987  14.982  13.283  0.00  0.00     0.163 HD
BRANCH  70  73
HETATM   73  C   UNK N   1      36.417  12.893  14.703  0.00  0.00     0.171 C 
BRANCH  73  74
HETATM   74  C   UNK N   1      36.074  11.391  14.782  0.00  0.00     0.072 C 
BRANCH  74  75
HETATM   75  C   UNK N   1      36.993  10.461  14.029  0.00  0.00    -0.056 A 
HETATM   76  C   UNK N   1      36.838  10.253  12.651  0.00  0.00     0.007 A 
HETATM   77  C   UNK N   1      37.705   9.388  11.969  0.00  0.00     0.001 A 
HETATM   78  C   UNK N   1      38.732   8.735  12.658  0.00  0.00     0.000 A 
HETATM   79  C   UNK N   1      38.887   8.937  14.033  0.00  0.00     0.001 A 
HETATM   80  C   UNK N   1      38.020   9.798  14.716  0.00  0.00     0.007 A 
ENDBRANCH  74  75
ENDBRANCH  73  74
BRANCH  73  81
HETATM   81  N   UNK N   1      36.063  13.517  15.968  0.00  0.00    -0.418 N 
HETATM   82  H   UNK N   1      35.308  14.201  16.030  0.00  0.00     0.150 HD
HETATM   83  H   UNK N   1      36.579  13.264  16.810  0.00  0.00     0.150 HD
ENDBRANCH  73  81
ENDBRANCH  70  73
ENDBRANCH  35  69
ENDBRANCH   7  10
ENDBRANCH   5   6
BRANCH   5  84
HETATM   84  C   UNK N   1      29.035  17.528   9.172  0.00  0.00     0.191 C 
BRANCH  84  85
HETATM   85  O   UNK N   1      27.809  18.140   9.437  0.00  0.00    -0.399 OA
HETATM   86  H   UNK N   1      27.121  18.696   9.837  0.00  0.00     0.209 HD
ENDBRANCH  84  85
ENDBRANCH   5  84
ENDBRANCH   1   5
TORSDOF 21
ENDMDL
MODEL 8
REMARK VINA RESULT:      -7.5      3.935      7.110
REMARK  21 active torsions:
REMARK  status: ('A' for Active; 'I' for Inactive)
REMARK    1  A    between atoms: C_41  and  C_2 
REMARK    2  A    between atoms: C_12  and  C_24 
REMARK    3  A    between atoms: C_13  and  C_15 
REMARK    4  A    between atoms: C_14  and  N_17 
REMARK       I    between atoms: N_21  and  C_15 
REMARK    5  A    between atoms: C_16  and  C_24 
REMARK       I    between atoms: C_19  and  N_17 
REMARK    6  A    between atoms: C_18  and  C_37 
REMARK    7  A    between atoms: C_30  and  C_19 
REMARK    8  A    between atoms: C_26  and  N_21 
REMARK    9  A    between atoms: C_23  and  C_53 
REMARK   10  A    between atoms: C_43  and  C_26 
REMARK   11  A    between atoms: C_26  and  C_50 
REMARK   12  A    between atoms: C_30  and  C_42 
REMARK   13  A    between atoms: N_44  and  C_30 
REMARK   14  A    between atoms: C_45  and  C_37 
REMARK   15  A    between atoms: C_41  and  O_48 
REMARK   16  A    between atoms: C_46  and  C_42 
REMARK   17  A    between atoms: N_47  and  C_55 
REMARK   18  A    between atoms: O_51  and  C_50 
REMARK   19  A    between atoms: C_62  and  C_53 
REMARK   20  A    between atoms: C_55  and  C_63 
REMARK   21  A    between atoms: C_63  and  C_62 
ROOT
HETATM    1  C   UNK N   1      27.373  19.802   6.239  0.00  0.00     0.139 C 
HETATM    2  O   UNK N   1      27.460  19.162   7.476  0.00  0.00    -0.394 OA
HETATM    3  C   UNK N   1      27.079  21.278   6.425  0.00  0.00     0.041 C 
HETATM    4  H   UNK N   1      27.369  18.719   8.335  0.00  0.00     0.210 HD
ENDROOT
BRANCH   1   5
HETATM    5  C   UNK N   1      26.363  19.128   5.296  0.00  0.00     0.136 C 
BRANCH   5   6
HETATM    6  N   UNK N   1      26.810  17.947   4.567  0.00  0.00    -0.350 N 
HETATM    7  C   UNK N   1      26.509  16.652   4.859  0.00  0.00     0.241 C 
HETATM    8  O   UNK N   1      25.718  16.380   5.748  0.00  0.00    -0.271 OA
HETATM    9  H   UNK N   1      27.387  18.102   3.785  0.00  0.00     0.163 HD
BRANCH   7  10
HETATM   10  C   UNK N   1      27.248  15.542   4.132  0.00  0.00     0.186 C 
HETATM   11  N   UNK N   1      27.063  14.267   4.801  0.00  0.00    -0.345 N 
HETATM   12  C   UNK N   1      26.654  13.103   4.233  0.00  0.00     0.243 C 
HETATM   13  H   UNK N   1      27.254  14.244   5.766  0.00  0.00     0.163 HD
HETATM   14  C   UNK N   1      26.212  12.992   2.790  0.00  0.00     0.205 C 
HETATM   15  O   UNK N   1      26.662  12.093   4.918  0.00  0.00    -0.271 OA
HETATM   16  N   UNK N   1      27.270  13.424   1.892  0.00  0.00    -0.344 N 
HETATM   17  C   UNK N   1      28.371  12.672   1.621  0.00  0.00     0.241 C 
HETATM   18  H   UNK N   1      27.185  14.304   1.459  0.00  0.00     0.163 HD
HETATM   19  C   UNK N   1      28.478  11.242   2.111  0.00  0.00     0.176 C 
HETATM   20  O   UNK N   1      29.234  13.128   0.888  0.00  0.00    -0.271 OA
HETATM   21  N   UNK N   1      29.397  10.953   3.196  0.00  0.00    -0.346 N 
HETATM   22  C   UNK N   1      30.737  11.160   3.249  0.00  0.00     0.241 C 
HETATM   23  H   UNK N   1      28.995  10.552   4.001  0.00  0.00     0.163 HD
HETATM   24  C   UNK N   1      31.482  11.929   2.186  0.00  0.00     0.181 C 
HETATM   25  O   UNK N   1      31.356  10.699   4.193  0.00  0.00    -0.271 OA
HETATM   26  N   UNK N   1      31.664  13.345   2.379  0.00  0.00    -0.346 N 
HETATM   27  C   UNK N   1      31.898  14.026   3.527  0.00  0.00     0.241 C 
HETATM   28  H   UNK N   1      31.612  13.895   1.564  0.00  0.00     0.163 HD
HETATM   29  C   UNK N   1      32.038  13.355   4.901  0.00  0.00     0.180 C 
HETATM   30  O   UNK N   1      31.881  15.246   3.463  0.00  0.00    -0.271 OA
HETATM   31  N   UNK N   1      31.818  14.318   5.960  0.00  0.00    -0.346 N 
HETATM   32  C   UNK N   1      32.664  15.363   6.163  0.00  0.00     0.242 C 
HETATM   33  H   UNK N   1      31.036  14.213   6.549  0.00  0.00     0.163 HD
HETATM   34  O   UNK N   1      33.637  15.516   5.440  0.00  0.00    -0.271 OA
HETATM   35  C   UNK N   1      32.369  16.388   7.206  0.00  0.00     0.186 C 
HETATM   36  C   UNK N   1      31.072  17.162   7.310  0.00  0.00     0.120 C 
HETATM   37  S   UNK N   1      30.393  17.613   5.701  0.00  0.00    -0.095 SA
HETATM   38  S   UNK N   1      29.247  15.862   5.912  0.00  0.00    -0.095 SA
HETATM   39  C   UNK N   1      28.735  15.848   4.173  0.00  0.00     0.120 C 
BRANCH  14  40
HETATM   40  C   UNK N   1      24.890  13.746   2.548  0.00  0.00     0.146 C 
HETATM   41  C   UNK N   1      25.058  14.900   1.582  0.00  0.00     0.042 C 
BRANCH  40  42
HETATM   42  O   UNK N   1      24.316  14.228   3.721  0.00  0.00    -0.393 OA
HETATM   43  H   UNK N   1      24.712  14.560   4.541  0.00  0.00     0.210 HD
ENDBRANCH  40  42
ENDBRANCH  14  40
BRANCH  19  44
HETATM   44  C   UNK N   1      28.560  10.201   1.009  0.00  0.00     0.035 C 
BRANCH  44  45
HETATM   45  C   UNK N   1      27.161   9.749   0.639  0.00  0.00     0.004 C 
BRANCH  45  46
HETATM   46  C   UNK N   1      26.356   9.423   1.884  0.00  0.00     0.019 C 
BRANCH  46  47
HETATM   47  C   UNK N   1      24.897   9.803   1.695  0.00  0.00     0.111 C 
BRANCH  47  48
HETATM   48  N   UNK N   1      24.718  10.594   0.490  0.00  0.00    -0.430 N 
HETATM   49  H   UNK N   1      25.276  10.845  -0.327  0.00  0.00     0.149 HD
HETATM   50  H   UNK N   1      23.786  11.007   0.447  0.00  0.00     0.149 HD
ENDBRANCH  47  48
ENDBRANCH  46  47
ENDBRANCH  45  46
ENDBRANCH  44  45
ENDBRANCH  19  44
BRANCH  24  51
HETATM   51  C   UNK N   1      32.639  11.279   1.459  0.00  0.00     0.075 C 
BRANCH  51  52
HETATM   52  C   UNK N   1      32.601  11.745   0.056  0.00  0.00    -0.028 A 
HETATM   53  C   UNK N   1      31.581  11.541  -0.865  0.00  0.00     0.096 A 
HETATM   54  N   UNK N   1      31.951  12.058  -2.066  0.00  0.00    -0.365 N 
HETATM   55  C   UNK N   1      33.179  12.569  -1.882  0.00  0.00     0.042 A 
HETATM   56  H   UNK N   1      31.428  12.058  -2.900  0.00  0.00     0.165 HD
HETATM   57  C   UNK N   1      33.602  12.402  -0.596  0.00  0.00    -0.002 A 
HETATM   58  C   UNK N   1      33.985  13.187  -2.836  0.00  0.00     0.030 A 
HETATM   59  C   UNK N   1      34.845  12.834  -0.154  0.00  0.00     0.014 A 
HETATM   60  C   UNK N   1      35.680  13.470  -1.089  0.00  0.00     0.001 A 
HETATM   61  C   UNK N   1      35.252  13.641  -2.426  0.00  0.00     0.002 A 
ENDBRANCH  51  52
ENDBRANCH  24  51
BRANCH  29  62
HETATM   62  C   UNK N   1      33.332  12.605   5.280  0.00  0.00     0.073 C 
BRANCH  62  63
HETATM   63  C   UNK N   1      33.594  12.034   6.629  0.00  0.00    -0.056 A 
HETATM   64  C   UNK N   1      33.080  10.777   6.966  0.00  0.00     0.007 A 
HETATM   65  C   UNK N   1      33.484  10.154   8.153  0.00  0.00     0.001 A 
HETATM   66  C   UNK N   1      34.414  10.778   8.991  0.00  0.00     0.000 A 
HETATM   67  C   UNK N   1      34.945  12.023   8.642  0.00  0.00     0.001 A 
HETATM   68  C   UNK N   1      34.550  12.639   7.452  0.00  0.00     0.007 A 
ENDBRANCH  62  63
ENDBRANCH  29  62
BRANCH  35  69
HETATM   69  N   UNK N   1      33.252  16.591   8.319  0.00  0.00    -0.345 N 
HETATM   70  C   UNK N   1      33.399  15.733   9.354  0.00  0.00     0.240 C 
HETATM   71  O   UNK N   1      32.566  14.871   9.589  0.00  0.00    -0.271 OA
HETATM   72  H   UNK N   1      33.791  17.416   8.330  0.00  0.00     0.163 HD
BRANCH  70  73
HETATM   73  C   UNK N   1      34.705  15.737  10.077  0.00  0.00     0.171 C 
BRANCH  73  74
HETATM   74  C   UNK N   1      34.584  14.868  11.346  0.00  0.00     0.072 C 
BRANCH  74  75
HETATM   75  C   UNK N   1      35.640  13.804  11.523  0.00  0.00    -0.056 A 
HETATM   76  C   UNK N   1      36.896  13.925  10.910  0.00  0.00     0.007 A 
HETATM   77  C   UNK N   1      37.864  12.929  11.091  0.00  0.00     0.001 A 
HETATM   78  C   UNK N   1      37.585  11.814  11.888  0.00  0.00     0.000 A 
HETATM   79  C   UNK N   1      36.333  11.688  12.497  0.00  0.00     0.001 A 
HETATM   80  C   UNK N   1      35.363  12.681  12.315  0.00  0.00     0.007 A 
ENDBRANCH  74  75
ENDBRANCH  73  74
BRANCH  73  81
HETATM   81  N   UNK N   1      35.061  17.090  10.475  0.00  0.00    -0.418 N 
HETATM   82  H   UNK N   1      34.375  17.720  10.890  0.00  0.00     0.150 HD
HETATM   83  H   UNK N   1      36.018  17.415  10.335  0.00  0.00     0.150 HD
ENDBRANCH  73  81
ENDBRANCH  70  73
ENDBRANCH  35  69
ENDBRANCH   7  10
ENDBRANCH   5   6
BRANCH   5  84
HETATM   84  C   UNK N   1      25.561  20.095   4.422  0.00  0.00     0.191 C 
BRANCH  84  85
HETATM   85  O   UNK N   1      25.439  19.619   3.116  0.00  0.00    -0.399 OA
HETATM   86  H   UNK N   1      25.390  19.580   2.147  0.00  0.00     0.209 HD
ENDBRANCH  84  85
ENDBRANCH   5  84
ENDBRANCH   1   5
TORSDOF 21
ENDMDL
MODEL 9
REMARK VINA RESULT:      -7.3      7.479     13.726
REMARK  21 active torsions:
REMARK  status: ('A' for Active; 'I' for Inactive)
REMARK    1  A    between atoms: C_41  and  C_2 
REMARK    2  A    between atoms: C_12  and  C_24 
REMARK    3  A    between atoms: C_13  and  C_15 
REMARK    4  A    between atoms: C_14  and  N_17 
REMARK       I    between atoms: N_21  and  C_15 
REMARK    5  A    between atoms: C_16  and  C_24 
REMARK       I    between atoms: C_19  and  N_17 
REMARK    6  A    between atoms: C_18  and  C_37 
REMARK    7  A    between atoms: C_30  and  C_19 
REMARK    8  A    between atoms: C_26  and  N_21 
REMARK    9  A    between atoms: C_23  and  C_53 
REMARK   10  A    between atoms: C_43  and  C_26 
REMARK   11  A    between atoms: C_26  and  C_50 
REMARK   12  A    between atoms: C_30  and  C_42 
REMARK   13  A    between atoms: N_44  and  C_30 
REMARK   14  A    between atoms: C_45  and  C_37 
REMARK   15  A    between atoms: C_41  and  O_48 
REMARK   16  A    between atoms: C_46  and  C_42 
REMARK   17  A    between atoms: N_47  and  C_55 
REMARK   18  A    between atoms: O_51  and  C_50 
REMARK   19  A    between atoms: C_62  and  C_53 
REMARK   20  A    between atoms: C_55  and  C_63 
REMARK   21  A    between atoms: C_63  and  C_62 
ROOT
HETATM    1  C   UNK N   1      26.679   6.056   0.470  0.00  0.00     0.139 C 
HETATM    2  O   UNK N   1      27.684   6.943   0.859  0.00  0.00    -0.394 OA
HETATM    3  C   UNK N   1      27.145   5.203  -0.694  0.00  0.00     0.041 C 
HETATM    4  H   UNK N   1      28.340   7.642   1.009  0.00  0.00     0.210 HD
ENDROOT
BRANCH   1   5
HETATM    5  C   UNK N   1      25.350   6.767   0.168  0.00  0.00     0.136 C 
BRANCH   5   6
HETATM    6  N   UNK N   1      25.186   8.127   0.671  0.00  0.00    -0.350 N 
HETATM    7  C   UNK N   1      25.141   8.508   1.976  0.00  0.00     0.241 C 
HETATM    8  O   UNK N   1      25.344   7.702   2.870  0.00  0.00    -0.271 OA
HETATM    9  H   UNK N   1      25.100   8.840  -0.002  0.00  0.00     0.163 HD
BRANCH   7  10
HETATM   10  C   UNK N   1      24.734   9.931   2.314  0.00  0.00     0.186 C 
HETATM   11  N   UNK N   1      24.783  10.781   1.138  0.00  0.00    -0.345 N 
HETATM   12  C   UNK N   1      23.795  11.592   0.680  0.00  0.00     0.243 C 
HETATM   13  H   UNK N   1      25.619  10.768   0.619  0.00  0.00     0.163 HD
HETATM   14  C   UNK N   1      22.411  11.646   1.291  0.00  0.00     0.205 C 
HETATM   15  O   UNK N   1      24.043  12.328  -0.261  0.00  0.00    -0.271 OA
HETATM   16  N   UNK N   1      22.483  12.003   2.697  0.00  0.00    -0.344 N 
HETATM   17  C   UNK N   1      22.733  13.268   3.134  0.00  0.00     0.241 C 
HETATM   18  H   UNK N   1      22.343  11.296   3.368  0.00  0.00     0.163 HD
HETATM   19  C   UNK N   1      22.779  14.431   2.164  0.00  0.00     0.176 C 
HETATM   20  O   UNK N   1      22.819  13.475   4.333  0.00  0.00    -0.271 OA
HETATM   21  N   UNK N   1      24.069  15.021   1.857  0.00  0.00    -0.346 N 
HETATM   22  C   UNK N   1      24.966  15.585   2.707  0.00  0.00     0.241 C 
HETATM   23  H   UNK N   1      24.328  15.013   0.907  0.00  0.00     0.163 HD
HETATM   24  C   UNK N   1      24.817  15.515   4.207  0.00  0.00     0.181 C 
HETATM   25  O   UNK N   1      25.924  16.169   2.231  0.00  0.00    -0.271 OA
HETATM   26  N   UNK N   1      25.455  14.425   4.900  0.00  0.00    -0.346 N 
HETATM   27  C   UNK N   1      26.646  13.831   4.643  0.00  0.00     0.241 C 
HETATM   28  H   UNK N   1      24.958  14.061   5.667  0.00  0.00     0.163 HD
HETATM   29  C   UNK N   1      27.584  14.264   3.507  0.00  0.00     0.180 C 
HETATM   30  O   UNK N   1      26.917  12.829   5.286  0.00  0.00    -0.271 OA
HETATM   31  N   UNK N   1      28.513  13.200   3.185  0.00  0.00    -0.346 N 
HETATM   32  C   UNK N   1      29.454  12.780   4.071  0.00  0.00     0.242 C 
HETATM   33  H   UNK N   1      28.462  12.770   2.301  0.00  0.00     0.163 HD
HETATM   34  O   UNK N   1      29.531  13.295   5.177  0.00  0.00    -0.271 OA
HETATM   35  C   UNK N   1      30.343  11.626   3.747  0.00  0.00     0.186 C 
HETATM   36  C   UNK N   1      29.855  10.259   3.315  0.00  0.00     0.120 C 
HETATM   37  S   UNK N   1      28.357   9.744   4.177  0.00  0.00    -0.095 SA
HETATM   38  S   UNK N   1      27.358  10.519   2.497  0.00  0.00    -0.095 SA
HETATM   39  C   UNK N   1      25.736  10.496   3.306  0.00  0.00     0.120 C 
BRANCH  14  40
HETATM   40  C   UNK N   1      21.643  10.330   1.057  0.00  0.00     0.146 C 
HETATM   41  C   UNK N   1      21.371   9.588   2.348  0.00  0.00     0.042 C 
BRANCH  40  42
HETATM   42  O   UNK N   1      22.293   9.470   0.177  0.00  0.00    -0.393 OA
HETATM   43  H   UNK N   1      22.416   8.508   0.190  0.00  0.00     0.210 HD
ENDBRANCH  40  42
ENDBRANCH  14  40
BRANCH  19  44
HETATM   44  C   UNK N   1      21.715  15.489   2.394  0.00  0.00     0.035 C 
BRANCH  44  45
HETATM   45  C   UNK N   1      20.581  15.284   1.409  0.00  0.00     0.004 C 
BRANCH  45  46
HETATM   46  C   UNK N   1      20.091  16.616   0.871  0.00  0.00     0.019 C 
BRANCH  46  47
HETATM   47  C   UNK N   1      20.248  17.708   1.917  0.00  0.00     0.111 C 
BRANCH  47  48
HETATM   48  N   UNK N   1      18.964  18.306   2.241  0.00  0.00    -0.430 N 
HETATM   49  H   UNK N   1      17.980  18.077   2.103  0.00  0.00     0.149 HD
HETATM   50  H   UNK N   1      19.077  19.188   2.740  0.00  0.00     0.149 HD
ENDBRANCH  47  48
ENDBRANCH  46  47
ENDBRANCH  45  46
ENDBRANCH  44  45
ENDBRANCH  19  44
BRANCH  24  51
HETATM   51  C   UNK N   1      24.784  16.793   5.018  0.00  0.00     0.075 C 
BRANCH  51  52
HETATM   52  C   UNK N   1      23.365  17.121   5.272  0.00  0.00    -0.028 A 
HETATM   53  C   UNK N   1      22.640  18.174   4.727  0.00  0.00     0.096 A 
HETATM   54  N   UNK N   1      21.391  18.183   5.263  0.00  0.00    -0.365 N 
HETATM   55  C   UNK N   1      21.354  17.153   6.123  0.00  0.00     0.042 A 
HETATM   56  H   UNK N   1      20.662  18.814   5.062  0.00  0.00     0.165 HD
HETATM   57  C   UNK N   1      22.539  16.479   6.148  0.00  0.00    -0.002 A 
HETATM   58  C   UNK N   1      20.286  16.771   6.933  0.00  0.00     0.030 A 
HETATM   59  C   UNK N   1      22.760  15.380   6.966  0.00  0.00     0.014 A 
HETATM   60  C   UNK N   1      21.700  14.963   7.790  0.00  0.00     0.001 A 
HETATM   61  C   UNK N   1      20.470  15.660   7.776  0.00  0.00     0.002 A 
ENDBRANCH  51  52
ENDBRANCH  24  51
BRANCH  29  62
HETATM   62  C   UNK N   1      28.441  15.540   3.640  0.00  0.00     0.073 C 
BRANCH  62  63
HETATM   63  C   UNK N   1      28.243  16.567   4.698  0.00  0.00    -0.056 A 
HETATM   64  C   UNK N   1      28.402  16.221   6.044  0.00  0.00     0.007 A 
HETATM   65  C   UNK N   1      28.409  17.219   7.025  0.00  0.00     0.001 A 
HETATM   66  C   UNK N   1      28.276  18.562   6.659  0.00  0.00     0.000 A 
HETATM   67  C   UNK N   1      28.140  18.910   5.312  0.00  0.00     0.001 A 
HETATM   68  C   UNK N   1      28.145  17.914   4.333  0.00  0.00     0.007 A 
ENDBRANCH  62  63
ENDBRANCH  29  62
BRANCH  35  69
HETATM   69  N   UNK N   1      31.766  11.788   3.650  0.00  0.00    -0.345 N 
HETATM   70  C   UNK N   1      32.400  12.460   2.662  0.00  0.00     0.240 C 
HETATM   71  O   UNK N   1      31.842  12.713   1.605  0.00  0.00    -0.271 OA
HETATM   72  H   UNK N   1      32.321  11.380   4.353  0.00  0.00     0.163 HD
BRANCH  70  73
HETATM   73  C   UNK N   1      33.730  13.060   2.976  0.00  0.00     0.171 C 
BRANCH  73  74
HETATM   74  C   UNK N   1      33.729  14.544   2.554  0.00  0.00     0.072 C 
BRANCH  74  75
HETATM   75  C   UNK N   1      33.071  15.506   3.514  0.00  0.00    -0.056 A 
HETATM   76  C   UNK N   1      32.584  16.745   3.073  0.00  0.00     0.007 A 
HETATM   77  C   UNK N   1      31.973  17.621   3.979  0.00  0.00     0.001 A 
HETATM   78  C   UNK N   1      31.840  17.262   5.324  0.00  0.00     0.000 A 
HETATM   79  C   UNK N   1      32.327  16.029   5.767  0.00  0.00     0.001 A 
HETATM   80  C   UNK N   1      32.941  15.153   4.864  0.00  0.00     0.007 A 
ENDBRANCH  74  75
ENDBRANCH  73  74
BRANCH  73  81
HETATM   81  N   UNK N   1      34.783  12.372   2.247  0.00  0.00    -0.418 N 
HETATM   82  H   UNK N   1      34.569  11.718   1.494  0.00  0.00     0.150 HD
HETATM   83  H   UNK N   1      35.757  12.547   2.494  0.00  0.00     0.150 HD
ENDBRANCH  73  81
ENDBRANCH  70  73
ENDBRANCH  35  69
ENDBRANCH   7  10
ENDBRANCH   5   6
BRANCH   5  84
HETATM   84  C   UNK N   1      24.103   5.905   0.376  0.00  0.00     0.191 C 
BRANCH  84  85
HETATM   85  O   UNK N   1      24.175   5.184   1.569  0.00  0.00    -0.399 OA
HETATM   86  H   UNK N   1      24.016   4.884   2.478  0.00  0.00     0.209 HD
ENDBRANCH  84  85
ENDBRANCH   5  84
ENDBRANCH   1   5
TORSDOF 21
ENDMDL
