REMARK  11 active torsions:
REMARK  status: ('A' for Active; 'I' for Inactive)
REMARK    1  A    between atoms: C_1  and  C_9 
REMARK       I    between atoms: C_9  and  N_10 
REMARK    2  A    between atoms: C_12  and  N_10 
REMARK    3  A    between atoms: C_12  and  C_13 
REMARK    4  A    between atoms: C_12  and  C_14 
REMARK       I    between atoms: C_13  and  N_22 
REMARK    5  A    between atoms: C_14  and  C_15 
REMARK    6  A    between atoms: N_22  and  C_23 
REMARK    7  A    between atoms: C_23  and  C_24 
REMARK    8  A    between atoms: C_23  and  B_28 
REMARK    9  A    between atoms: C_24  and  C_25 
REMARK   10  A    between atoms: B_28  and  O_29 
REMARK   11  A    between atoms: B_28  and  O_30 
ROOT
HETATM    1  C   UNK N   1       9.131 -16.757   0.132  0.00  0.00     0.181 C 
ENDROOT
BRANCH   1   2
HETATM    2  N   UNK N   1       7.930 -17.495  -0.166  0.00  0.00    -0.342 N 
HETATM    3  C   UNK N   1       6.713 -17.125   0.304  0.00  0.00     0.270 C 
HETATM    4  O   UNK N   1       6.566 -16.046   0.858  0.00  0.00    -0.266 OA
HETATM    5  H   UNK N   1       7.995 -18.299  -0.731  0.00  0.00     0.163 HD
BRANCH   3   6
HETATM    6  C   UNK N   1       5.581 -18.064   0.188  0.00  0.00     0.116 A 
HETATM    7  N   UNK N   1       5.789 -19.321  -0.290  0.00  0.00    -0.359 N 
HETATM    8  C   UNK N   1       4.779 -20.228  -0.347  0.00  0.00     0.105 A 
ATOM      9  HN  UNK N   1       6.719 -19.586  -0.613  1.00  0.00     0.165 HD
HETATM   10  C   UNK N   1       3.505 -19.866   0.091  0.00  0.00     0.104 A 
HETATM   11  N   UNK N   1       3.291 -18.611   0.566  0.00  0.00    -0.372 N 
HETATM   12  C   UNK N   1       4.302 -17.704   0.631  0.00  0.00     0.122 A 
ATOM     13  HN  UNK N   1       2.357 -18.345   0.878  1.00  0.00     0.164 HD
ENDBRANCH   3   6
ENDBRANCH   1   2
BRANCH   1  14
HETATM   14  C   UNK N   1      10.159 -17.743   0.619  0.00  0.00     0.240 C 
HETATM   15  O   UNK N   1       9.955 -18.340   1.666  0.00  0.00    -0.271 OA
HETATM   16  N   UNK N   1      11.283 -17.994  -0.105  0.00  0.00    -0.358 N 
HETATM   17  H   UNK N   1      11.422 -17.505  -0.948  0.00  0.00     0.162 HD
BRANCH  16  18
HETATM   18  C   UNK N   1      12.284 -18.952   0.317  0.00  0.00     0.111 C 
BRANCH  18  19
HETATM   19  C   UNK N   1      13.545 -18.814  -0.529  0.00  0.00     0.024 C 
BRANCH  19  20
HETATM   20  C   UNK N   1      14.166 -17.425  -0.450  0.00  0.00    -0.021 C 
HETATM   21  C   UNK N   1      14.539 -17.068   0.977  0.00  0.00     0.009 C 
HETATM   22  C   UNK N   1      15.416 -17.397  -1.305  0.00  0.00     0.009 C 
ENDBRANCH  19  20
ENDBRANCH  18  19
BRANCH  18  23
HETATM   23  B   UNK N   1      11.756 -20.458   0.191  0.00  0.00     0.515 B 
BRANCH  23  24
HETATM   24  O   UNK N   1      10.437 -20.740  -0.374  0.00  0.00    -0.436 OA
HETATM   25  H   UNK N   1       9.838 -20.075  -0.748  0.00  0.00     0.184 HD
ENDBRANCH  23  24
BRANCH  23  26
HETATM   26  O   UNK N   1      12.598 -21.561   0.645  0.00  0.00    -0.436 OA
HETATM   27  H   UNK N   1      12.243 -22.412   0.947  0.00  0.00     0.184 HD
ENDBRANCH  23  26
ENDBRANCH  18  23
ENDBRANCH  16  18
ENDBRANCH   1  14
BRANCH   1  28
HETATM   28  C   UNK N   1       9.584 -15.913  -1.060  0.00  0.00     0.073 C 
BRANCH  28  29
HETATM   29  C   UNK N   1      10.456 -14.785  -0.589  0.00  0.00    -0.056 A 
HETATM   30  C   UNK N   1      10.011 -13.464  -0.715  0.00  0.00     0.007 A 
HETATM   31  C   UNK N   1      10.805 -12.408  -0.252  0.00  0.00     0.001 A 
HETATM   32  C   UNK N   1      12.046 -12.670   0.338  0.00  0.00     0.000 A 
HETATM   33  C   UNK N   1      12.496 -13.986   0.461  0.00  0.00     0.001 A 
HETATM   34  C   UNK N   1      11.703 -15.039  -0.001  0.00  0.00     0.007 A 
ENDBRANCH  28  29
ENDBRANCH   1  28
TORSDOF 11
