MODEL 1
REMARK VINA RESULT:      -3.8      0.000      0.000
REMARK  2 active torsions:
REMARK  status: ('A' for Active; 'I' for Inactive)
REMARK    1  A    between atoms: O_1  and  C_6 
REMARK    2  A    between atoms: C_4  and  C_6 
ROOT
HETATM    1  O   UNK N   1      21.076  20.505   0.018  0.00  0.00    -0.644 OA
HETATM    2  C   UNK N   1      20.872  21.251   0.963  0.00  0.00     0.213 C 
ENDROOT
BRANCH   2   3
HETATM    3  O   UNK N   1      20.344  22.471   0.746  0.00  0.00    -0.771 OA
HETATM    4  H   UNK N   1      20.442  22.882  -0.090  0.00  0.00     0.167 HD
ENDBRANCH   2   3
BRANCH   2   5
HETATM    5  C   UNK N   1      21.201  20.821   2.335  0.00  0.00     0.218 C 
HETATM    6  O   UNK N   1      22.230  21.204   2.866  0.00  0.00    -0.286 OA
HETATM    7  C   UNK N   1      20.282  19.915   3.086  0.00  0.00     0.103 C 
ENDBRANCH   2   5
TORSDOF 2
ENDMDL
MODEL 2
REMARK VINA RESULT:      -3.7     13.860     15.022
REMARK  2 active torsions:
REMARK  status: ('A' for Active; 'I' for Inactive)
REMARK    1  A    between atoms: O_1  and  C_6 
REMARK    2  A    between atoms: C_4  and  C_6 
ROOT
HETATM    1  O   UNK N   1      35.265  19.130   8.459  0.00  0.00    -0.644 OA
HETATM    2  C   UNK N   1      34.505  18.176   8.472  0.00  0.00     0.213 C 
ENDROOT
BRANCH   2   3
HETATM    3  O   UNK N   1      34.359  17.456   9.602  0.00  0.00    -0.771 OA
HETATM    4  H   UNK N   1      35.114  17.155  10.066  0.00  0.00     0.167 HD
ENDBRANCH   2   3
BRANCH   2   5
HETATM    5  C   UNK N   1      33.748  17.810   7.259  0.00  0.00     0.218 C 
HETATM    6  O   UNK N   1      34.283  17.870   6.164  0.00  0.00    -0.286 OA
HETATM    7  C   UNK N   1      32.327  17.365   7.358  0.00  0.00     0.103 C 
ENDBRANCH   2   5
TORSDOF 2
ENDMDL
MODEL 3
REMARK VINA RESULT:      -3.6     15.033     15.805
REMARK  2 active torsions:
REMARK  status: ('A' for Active; 'I' for Inactive)
REMARK    1  A    between atoms: O_1  and  C_6 
REMARK    2  A    between atoms: C_4  and  C_6 
ROOT
HETATM    1  O   UNK N   1      34.060  18.186   7.262  0.00  0.00    -0.644 OA
HETATM    2  C   UNK N   1      34.691  18.282   8.303  0.00  0.00     0.213 C 
ENDROOT
BRANCH   2   3
HETATM    3  O   UNK N   1      35.390  19.406   8.558  0.00  0.00    -0.771 OA
HETATM    4  H   UNK N   1      36.274  19.486   8.258  0.00  0.00     0.167 HD
ENDBRANCH   2   3
BRANCH   2   5
HETATM    5  C   UNK N   1      34.690  17.175   9.279  0.00  0.00     0.218 C 
HETATM    6  O   UNK N   1      35.405  17.229  10.265  0.00  0.00    -0.286 OA
HETATM    7  C   UNK N   1      33.816  15.982   9.069  0.00  0.00     0.103 C 
ENDBRANCH   2   5
TORSDOF 2
ENDMDL
MODEL 4
REMARK VINA RESULT:      -3.6      1.270      2.502
REMARK  2 active torsions:
REMARK  status: ('A' for Active; 'I' for Inactive)
REMARK    1  A    between atoms: O_1  and  C_6 
REMARK    2  A    between atoms: C_4  and  C_6 
ROOT
HETATM    1  O   UNK N   1      20.930  20.335   3.800  0.00  0.00    -0.644 OA
HETATM    2  C   UNK N   1      21.296  20.790   2.728  0.00  0.00     0.213 C 
ENDROOT
BRANCH   2   3
HETATM    3  O   UNK N   1      21.985  21.948   2.696  0.00  0.00    -0.771 OA
HETATM    4  H   UNK N   1      21.534  22.764   2.784  0.00  0.00     0.167 HD
ENDBRANCH   2   3
BRANCH   2   5
HETATM    5  C   UNK N   1      20.986  20.079   1.473  0.00  0.00     0.218 C 
HETATM    6  O   UNK N   1      21.167  20.628   0.399  0.00  0.00    -0.286 OA
HETATM    7  C   UNK N   1      20.450  18.686   1.504  0.00  0.00     0.103 C 
ENDBRANCH   2   5
TORSDOF 2
ENDMDL
MODEL 5
REMARK VINA RESULT:      -3.5     15.101     16.006
REMARK  2 active torsions:
REMARK  status: ('A' for Active; 'I' for Inactive)
REMARK    1  A    between atoms: O_1  and  C_6 
REMARK    2  A    between atoms: C_4  and  C_6 
ROOT
HETATM    1  O   UNK N   1      34.779  15.841   8.951  0.00  0.00    -0.644 OA
HETATM    2  C   UNK N   1      34.789  16.999   9.338  0.00  0.00     0.213 C 
ENDROOT
BRANCH   2   3
HETATM    3  O   UNK N   1      34.989  17.263  10.644  0.00  0.00    -0.771 OA
HETATM    4  H   UNK N   1      35.846  17.181  11.013  0.00  0.00     0.167 HD
ENDBRANCH   2   3
BRANCH   2   5
HETATM    5  C   UNK N   1      34.585  18.104   8.382  0.00  0.00     0.218 C 
HETATM    6  O   UNK N   1      35.229  19.134   8.491  0.00  0.00    -0.286 OA
HETATM    7  C   UNK N   1      33.590  17.975   7.276  0.00  0.00     0.103 C 
ENDBRANCH   2   5
TORSDOF 2
ENDMDL
MODEL 6
REMARK VINA RESULT:      -3.3     10.766     11.373
REMARK  2 active torsions:
REMARK  status: ('A' for Active; 'I' for Inactive)
REMARK    1  A    between atoms: O_1  and  C_6 
REMARK    2  A    between atoms: C_4  and  C_6 
ROOT
HETATM    1  O   UNK N   1      32.675  21.496  -2.176  0.00  0.00    -0.644 OA
HETATM    2  C   UNK N   1      31.620  21.568  -2.785  0.00  0.00     0.213 C 
ENDROOT
BRANCH   2   3
HETATM    3  O   UNK N   1      31.286  20.596  -3.656  0.00  0.00    -0.771 OA
HETATM    4  H   UNK N   1      30.434  20.590  -4.048  0.00  0.00     0.167 HD
ENDBRANCH   2   3
BRANCH   2   5
HETATM    5  C   UNK N   1      30.713  22.713  -2.571  0.00  0.00     0.218 C 
HETATM    6  O   UNK N   1      30.433  23.066  -1.438  0.00  0.00    -0.286 OA
HETATM    7  C   UNK N   1      30.133  23.447  -3.734  0.00  0.00     0.103 C 
ENDBRANCH   2   5
TORSDOF 2
ENDMDL
MODEL 7
REMARK VINA RESULT:      -3.1      2.498      3.181
REMARK  2 active torsions:
REMARK  status: ('A' for Active; 'I' for Inactive)
REMARK    1  A    between atoms: O_1  and  C_6 
REMARK    2  A    between atoms: C_4  and  C_6 
ROOT
HETATM    1  O   UNK N   1      21.829  19.555   3.067  0.00  0.00    -0.644 OA
HETATM    2  C   UNK N   1      22.560  20.520   2.910  0.00  0.00     0.213 C 
ENDROOT
BRANCH   2   3
HETATM    3  O   UNK N   1      22.021  21.736   2.697  0.00  0.00    -0.771 OA
HETATM    4  H   UNK N   1      21.427  21.868   1.985  0.00  0.00     0.167 HD
ENDBRANCH   2   3
BRANCH   2   5
HETATM    5  C   UNK N   1      24.026  20.357   2.951  0.00  0.00     0.218 C 
HETATM    6  O   UNK N   1      24.728  20.928   2.133  0.00  0.00    -0.286 OA
HETATM    7  C   UNK N   1      24.663  19.495   3.991  0.00  0.00     0.103 C 
ENDBRANCH   2   5
TORSDOF 2
ENDMDL
MODEL 8
REMARK VINA RESULT:      -3.0     20.294     21.300
REMARK  2 active torsions:
REMARK  status: ('A' for Active; 'I' for Inactive)
REMARK    1  A    between atoms: O_1  and  C_6 
REMARK    2  A    between atoms: C_4  and  C_6 
ROOT
HETATM    1  O   UNK N   1      34.931  13.651  13.556  0.00  0.00    -0.644 OA
HETATM    2  C   UNK N   1      36.102  13.810  13.864  0.00  0.00     0.213 C 
ENDROOT
BRANCH   2   3
HETATM    3  O   UNK N   1      37.039  13.896  12.899  0.00  0.00    -0.771 OA
HETATM    4  H   UNK N   1      37.893  14.223  13.103  0.00  0.00     0.167 HD
ENDBRANCH   2   3
BRANCH   2   5
HETATM    5  C   UNK N   1      36.491  13.906  15.283  0.00  0.00     0.218 C 
HETATM    6  O   UNK N   1      37.450  14.586  15.610  0.00  0.00    -0.286 OA
HETATM    7  C   UNK N   1      35.719  13.176  16.332  0.00  0.00     0.103 C 
ENDBRANCH   2   5
TORSDOF 2
ENDMDL
MODEL 9
REMARK VINA RESULT:      -3.0     14.127     15.057
REMARK  2 active torsions:
REMARK  status: ('A' for Active; 'I' for Inactive)
REMARK    1  A    between atoms: O_1  and  C_6 
REMARK    2  A    between atoms: C_4  and  C_6 
ROOT
HETATM    1  O   UNK N   1      34.762  16.698   6.316  0.00  0.00    -0.644 OA
HETATM    2  C   UNK N   1      34.078  17.414   7.031  0.00  0.00     0.213 C 
ENDROOT
BRANCH   2   3
HETATM    3  O   UNK N   1      32.816  17.710   6.664  0.00  0.00    -0.771 OA
HETATM    4  H   UNK N   1      32.534  17.552   5.784  0.00  0.00     0.167 HD
ENDBRANCH   2   3
BRANCH   2   5
HETATM    5  C   UNK N   1      34.628  17.953   8.289  0.00  0.00     0.218 C 
HETATM    6  O   UNK N   1      34.974  19.120   8.355  0.00  0.00    -0.286 OA
HETATM    7  C   UNK N   1      34.766  17.078   9.491  0.00  0.00     0.103 C 
ENDBRANCH   2   5
TORSDOF 2
ENDMDL
