MODEL 1
REMARK VINA RESULT:      -7.4      0.000      0.000
REMARK WARNING: 32 MAX_TORS EXCEEDED!!!
REMARK  42 active torsions:
REMARK  status: ('A' for Active; 'I' for Inactive)
REMARK    1  A    between atoms: C_5  and  C_3 
REMARK    2  A    between atoms: C_96  and  C_5 
REMARK    3  A    between atoms: C_10  and  C_7 
REMARK    4  A    between atoms: O_14  and  C_7 
REMARK    5  A    between atoms: C_12  and  C_10 
REMARK    6  A    between atoms: C_13  and  C_12 
REMARK    7  A    between atoms: C_21  and  C_18 
REMARK    8  A    between atoms: O_22  and  C_21 
REMARK    9  A    between atoms: C_32  and  O_27 
REMARK   10  A    between atoms: C_34  and  C_31 
REMARK   11  A    between atoms: C_34  and  C_32 
REMARK   12  A    between atoms: C_45  and  O_40 
REMARK   13  A    between atoms: C_47  and  C_44 
REMARK   14  A    between atoms: C_47  and  C_45 
REMARK   15  A    between atoms: C_50  and  C_48 
REMARK   16  A    between atoms: C_51  and  C_48 
REMARK   17  A    between atoms: C_53  and  C_50 
REMARK   18  A    between atoms: N_54  and  C_53 
REMARK   19  A    between atoms: C_60  and  N_64 
REMARK       I    between atoms: C_72  and  N_64 
REMARK   20  A    between atoms: C_71  and  O_66 
REMARK   21  A    between atoms: C_70  and  N_67 
REMARK       I    between atoms: C_75  and  N_67 
REMARK   22  A    between atoms: C_72  and  C_70 
REMARK   23  A    between atoms: C_73  and  C_70 
REMARK   24  A    between atoms: C_73  and  C_71 
REMARK   25  A    between atoms: C_76  and  C_74 
REMARK   26  A    between atoms: C_77  and  C_74 
REMARK   27  A    between atoms: C_77  and  C_75 
REMARK       I    between atoms: N_80  and  C_76 
REMARK   28  A    between atoms: C_77  and  N_81 
REMARK       I    between atoms: C_82  and  N_81 
REMARK   29  A    between atoms: C_84  and  C_82 
REMARK   30  A    between atoms: C_85  and  C_84 
REMARK   31  A    between atoms: C_84  and  N_86 
REMARK   32  A    between atoms: C_98  and  C_85 
REMARK       I    between atoms: C_87  and  N_86 
REMARK   33  A    between atoms: C_88  and  C_87 
REMARK   34  A    between atoms: C_108  and  C_88 
REMARK   35  A    between atoms: C_96  and  C_89 
REMARK   36  A    between atoms: N_95  and  C_90 
REMARK   37  A    between atoms: C_109  and  C_108 
REMARK   38  A    between atoms: C_110  and  C_109 
REMARK   39  A    between atoms: C_111  and  C_110 
REMARK   40  A    between atoms: C_112  and  C_111 
REMARK   41  A    between atoms: C_113  and  C_112 
REMARK   42  A    between atoms: C_114  and  C_113 
ROOT
HETATM    1  C   UNK N   1      25.200  12.970   2.829  0.00  0.00     0.282 C 
HETATM    2  O   UNK N   1      24.986  12.092   2.007  0.00  0.00    -0.263 OA
HETATM    3  C   UNK N   1      24.296  14.181   2.851  0.00  0.00     0.191 C 
HETATM    4  N   UNK N   1      23.440  14.156   1.683  0.00  0.00    -0.345 N 
HETATM    5  O   UNK N   1      26.254  12.817   3.682  0.00  0.00    -0.312 OA
HETATM    6  C   UNK N   1      22.123  14.476   1.650  0.00  0.00     0.241 C 
HETATM    7  O   UNK N   1      21.533  14.372   0.587  0.00  0.00    -0.271 OA
HETATM    8  C   UNK N   1      21.384  15.021   2.863  0.00  0.00     0.180 C 
HETATM    9  N   UNK N   1      20.839  14.044   3.782  0.00  0.00    -0.346 N 
HETATM   10  C   UNK N   1      19.929  13.082   3.484  0.00  0.00     0.243 C 
HETATM   11  C   UNK N   1      19.593  12.715   2.053  0.00  0.00     0.200 C 
HETATM   12  O   UNK N   1      19.326  12.558   4.405  0.00  0.00    -0.271 OA
HETATM   13  N   UNK N   1      19.948  11.377   1.582  0.00  0.00    -0.344 N 
HETATM   14  C   UNK N   1      20.093  10.211   2.276  0.00  0.00     0.236 C 
HETATM   15  O   UNK N   1      20.342   9.189   1.659  0.00  0.00    -0.272 OA
HETATM   16  N   UNK N   1      21.079  10.066   4.594  0.00  0.00    -0.351 N 
HETATM   17  C   UNK N   1      19.882  10.110   3.759  0.00  0.00     0.225 C 
HETATM   18  N   UNK N   1      24.388   8.699   4.811  0.00  0.00    -0.346 N 
HETATM   19  O   UNK N   1      22.644   9.713   3.020  0.00  0.00    -0.271 OA
HETATM   20  C   UNK N   1      23.432   9.700   5.252  0.00  0.00     0.186 C 
HETATM   21  C   UNK N   1      22.368   9.889   4.198  0.00  0.00     0.241 C 
HETATM   22  C   UNK N   1      25.360   8.972   3.901  0.00  0.00     0.240 C 
HETATM   23  O   UNK N   1      25.562  10.115   3.543  0.00  0.00    -0.271 OA
HETATM   24  C   UNK N   1      26.176   7.888   3.297  0.00  0.00     0.172 C 
HETATM   25  N   UNK N   1      26.893   7.178   4.318  0.00  0.00    -0.346 N 
HETATM   26  C   UNK N   1      25.306   6.940   2.495  0.00  0.00     0.042 C 
HETATM   27  N   UNK N   1      30.451   7.968   3.969  0.00  0.00    -0.346 N 
HETATM   28  O   UNK N   1      28.670   6.732   5.553  0.00  0.00    -0.271 OA
HETATM   29  C   UNK N   1      29.091   8.437   3.971  0.00  0.00     0.186 C 
HETATM   30  C   UNK N   1      28.199   7.386   4.636  0.00  0.00     0.241 C 
HETATM   31  C   UNK N   1      31.511   8.692   4.403  0.00  0.00     0.241 C 
HETATM   32  C   UNK N   1      31.399  10.163   4.782  0.00  0.00     0.176 C 
HETATM   33  N   UNK N   1      31.193  10.980   3.588  0.00  0.00    -0.346 N 
HETATM   34  O   UNK N   1      32.590   8.128   4.497  0.00  0.00    -0.271 OA
HETATM   35  C   UNK N   1      31.234  12.341   3.613  0.00  0.00     0.236 C 
HETATM   36  O   UNK N   1      31.495  12.926   4.653  0.00  0.00    -0.272 OA
HETATM   37  N   UNK N   1      29.864  13.349   1.743  0.00  0.00    -0.350 N 
HETATM   38  C   UNK N   1      31.167  13.144   2.351  0.00  0.00     0.225 C 
HETATM   39  C   UNK N   1      28.469  13.693   3.849  0.00  0.00     0.205 C 
HETATM   40  C   UNK N   1      28.690  13.715   2.335  0.00  0.00     0.243 C 
HETATM   41  O   UNK N   1      27.751  14.004   1.610  0.00  0.00    -0.271 OA
HETATM   42  C   UNK N   1      26.983  13.840   4.262  0.00  0.00     0.159 C 
HETATM   43  C   UNK N   1      26.818  13.781   5.772  0.00  0.00     0.042 C 
HETATM   44  H   UNK N   1      23.853  13.882   0.833  0.00  0.00     0.163 HD
HETATM   45  H   UNK N   1      21.159  14.081   4.713  0.00  0.00     0.163 HD
HETATM   46  H   UNK N   1      20.107  11.305   0.613  0.00  0.00     0.163 HD
HETATM   47  H   UNK N   1      20.936  10.176   5.562  0.00  0.00     0.163 HD
HETATM   48  H   UNK N   1      24.330   7.790   5.185  0.00  0.00     0.163 HD
HETATM   49  H   UNK N   1      26.403   6.490   4.824  0.00  0.00     0.163 HD
HETATM   50  H   UNK N   1      30.623   7.060   3.629  0.00  0.00     0.163 HD
HETATM   51  H   UNK N   1      31.018  10.529   2.730  0.00  0.00     0.163 HD
HETATM   52  H   UNK N   1      29.821  13.202   0.769  0.00  0.00     0.163 HD
ENDROOT
BRANCH  39  53
HETATM   53  N   UNK N   1      29.318  14.549   4.658  0.00  0.00    -0.344 N 
HETATM   54  C   UNK N   1      29.865  15.740   4.328  0.00  0.00     0.241 C 
HETATM   55  O   UNK N   1      29.616  16.287   3.264  0.00  0.00    -0.271 OA
HETATM   56  H   UNK N   1      29.521  14.219   5.563  0.00  0.00     0.163 HD
BRANCH  54  57
HETATM   57  C   UNK N   1      30.719  16.427   5.347  0.00  0.00     0.186 C 
BRANCH  57  58
HETATM   58  N   UNK N   1      31.987  15.757   5.392  0.00  0.00    -0.345 N 
HETATM   59  C   UNK N   1      33.162  16.437   5.276  0.00  0.00     0.241 C 
HETATM   60  O   UNK N   1      33.177  17.660   5.277  0.00  0.00    -0.271 OA
HETATM   61  H   UNK N   1      32.009  14.781   5.509  0.00  0.00     0.163 HD
BRANCH  59  62
HETATM   62  C   UNK N   1      34.451  15.679   5.124  0.00  0.00     0.185 C 
BRANCH  62  63
HETATM   63  C   UNK N   1      34.402  14.527   4.105  0.00  0.00     0.137 C 
BRANCH  63  64
HETATM   64  C   UNK N   1      34.111  14.919   2.691  0.00  0.00     0.217 C 
HETATM   65  O   UNK N   1      33.393  15.875   2.448  0.00  0.00    -0.274 OA
HETATM   66  N   UNK N   1      34.663  14.219   1.682  0.00  0.00    -0.370 N 
HETATM   67  H   UNK N   1      34.449  13.525   1.017  0.00  0.00     0.159 HD
HETATM   68  H   UNK N   1      35.601  14.497   1.570  0.00  0.00     0.159 HD
ENDBRANCH  63  64
ENDBRANCH  62  63
BRANCH  62  69
HETATM   69  N   UNK N   1      34.997  15.310   6.417  0.00  0.00    -0.346 N 
HETATM   70  C   UNK N   1      34.467  14.400   7.284  0.00  0.00     0.241 C 
HETATM   71  O   UNK N   1      33.500  13.724   6.975  0.00  0.00    -0.271 OA
HETATM   72  H   UNK N   1      35.828  15.758   6.694  0.00  0.00     0.163 HD
BRANCH  70  73
HETATM   73  C   UNK N   1      34.905  14.411   8.715  0.00  0.00     0.180 C 
BRANCH  73  74
HETATM   74  C   UNK N   1      34.286  13.221   9.441  0.00  0.00     0.075 C 
BRANCH  74  75
HETATM   75  C   UNK N   1      35.270  12.134   9.671  0.00  0.00    -0.028 A 
HETATM   76  C   UNK N   1      36.611  12.126   9.295  0.00  0.00     0.096 A 
HETATM   77  N   UNK N   1      37.184  10.965   9.692  0.00  0.00    -0.365 N 
HETATM   78  C   UNK N   1      36.212  10.257  10.311  0.00  0.00     0.042 A 
HETATM   79  H   UNK N   1      38.120  10.691   9.556  0.00  0.00     0.165 HD
HETATM   80  C   UNK N   1      35.039  10.951  10.311  0.00  0.00    -0.002 A 
HETATM   81  C   UNK N   1      36.331   9.001  10.887  0.00  0.00     0.030 A 
HETATM   82  C   UNK N   1      33.883  10.432  10.899  0.00  0.00     0.014 A 
HETATM   83  C   UNK N   1      33.963   9.159  11.489  0.00  0.00     0.001 A 
HETATM   84  C   UNK N   1      35.182   8.444  11.484  0.00  0.00     0.002 A 
ENDBRANCH  74  75
ENDBRANCH  73  74
BRANCH  73  85
HETATM   85  N   UNK N   1      34.718  15.661   9.432  0.00  0.00    -0.347 N 
HETATM   86  C   UNK N   1      35.427  16.099  10.505  0.00  0.00     0.218 C 
HETATM   87  O   UNK N   1      35.202  17.215  10.947  0.00  0.00    -0.274 OA
HETATM   88  H   UNK N   1      34.003  16.254   9.104  0.00  0.00     0.163 HD
BRANCH  86  89
HETATM   89  C   UNK N   1      36.464  15.251  11.177  0.00  0.00     0.103 C 
BRANCH  89  90
HETATM   90  C   UNK N   1      36.084  14.978  12.632  0.00  0.00     0.009 C 
BRANCH  90  91
HETATM   91  C   UNK N   1      36.319  13.519  13.014  0.00  0.00     0.000 C 
BRANCH  91  92
HETATM   92  C   UNK N   1      35.005  12.828  13.320  0.00  0.00     0.000 C 
BRANCH  92  93
HETATM   93  C   UNK N   1      35.097  12.094  14.644  0.00  0.00     0.000 C 
BRANCH  93  94
HETATM   94  C   UNK N   1      34.965  13.081  15.788  0.00  0.00     0.000 C 
BRANCH  94  95
HETATM   95  C   UNK N   1      35.301  12.433  17.118  0.00  0.00    -0.000 C 
BRANCH  95  96
HETATM   96  C   UNK N   1      35.207  13.443  18.246  0.00  0.00    -0.005 C 
HETATM   97  C   UNK N   1      35.231  12.718  19.576  0.00  0.00     0.005 C 
ENDBRANCH  95  96
ENDBRANCH  94  95
ENDBRANCH  93  94
ENDBRANCH  92  93
ENDBRANCH  91  92
ENDBRANCH  90  91
ENDBRANCH  89  90
ENDBRANCH  86  89
ENDBRANCH  73  85
ENDBRANCH  70  73
ENDBRANCH  62  69
ENDBRANCH  59  62
ENDBRANCH  57  58
BRANCH  57  98
HETATM   98  C   UNK N   1      30.097  16.576   6.748  0.00  0.00     0.144 C 
BRANCH  98  99
HETATM   99  C   UNK N   1      31.037  16.784   7.903  0.00  0.00     0.141 C 
HETATM  100  O   UNK N   1      31.215  17.899   8.367  0.00  0.00    -0.650 OA
BRANCH  99 101
HETATM  101  O   UNK N   1      31.647  15.721   8.460  0.00  0.00    -0.776 OA
HETATM  102  H   UNK N   1      31.185  15.058   8.934  0.00  0.00     0.167 HD
ENDBRANCH  99 101
ENDBRANCH  98  99
ENDBRANCH  57  98
ENDBRANCH  54  57
ENDBRANCH  39  53
BRANCH   3 103
HETATM  103  C   UNK N   1      25.148  15.418   2.802  0.00  0.00     0.119 C 
BRANCH 103 104
HETATM  104  C   UNK N   1      24.736  16.374   3.861  0.00  0.00     0.164 C 
HETATM  105  O   UNK N   1      23.902  16.033   4.688  0.00  0.00    -0.292 OA
BRANCH 104 106
HETATM  106  C   UNK N   1      25.387  17.696   3.926  0.00  0.00     0.036 A 
HETATM  107  C   UNK N   1      26.791  17.751   3.956  0.00  0.00     0.017 A 
HETATM  108  C   UNK N   1      27.455  18.970   4.040  0.00  0.00     0.001 A 
HETATM  109  C   UNK N   1      26.722  20.152   4.097  0.00  0.00     0.002 A 
HETATM  110  C   UNK N   1      25.327  20.112   4.061  0.00  0.00     0.030 A 
HETATM  111  C   UNK N   1      24.651  18.898   3.978  0.00  0.00     0.039 A 
BRANCH 111 112
HETATM  112  N   UNK N   1      23.239  18.903   3.945  0.00  0.00    -0.398 N 
HETATM  113  H   UNK N   1      22.281  18.795   4.141  0.00  0.00     0.156 HD
HETATM  114  H   UNK N   1      23.137  19.344   3.071  0.00  0.00     0.156 HD
ENDBRANCH 111 112
ENDBRANCH 104 106
ENDBRANCH 103 104
ENDBRANCH   3 103
BRANCH  32 115
HETATM  115  C   UNK N   1      32.651  10.617   5.560  0.00  0.00     0.036 C 
BRANCH 115 116
HETATM  116  C   UNK N   1      32.639  10.145   7.012  0.00  0.00     0.021 C 
BRANCH 116 117
HETATM  117  C   UNK N   1      33.927   9.421   7.340  0.00  0.00     0.111 C 
BRANCH 117 118
HETATM  118  N   UNK N   1      34.798   9.420   6.177  0.00  0.00    -0.430 N 
HETATM  119  H   UNK N   1      34.472   9.575   5.223  0.00  0.00     0.149 HD
HETATM  120  H   UNK N   1      35.794   9.254   6.324  0.00  0.00     0.149 HD
ENDBRANCH 117 118
ENDBRANCH 116 117
ENDBRANCH 115 116
ENDBRANCH  32 115
BRANCH   8 121
HETATM  121  C   UNK N   1      20.365  16.158   2.642  0.00  0.00     0.023 C 
HETATM  122  C   UNK N   1      19.622  16.533   3.902  0.00  0.00     0.013 C 
BRANCH 121 123
HETATM  123  C   UNK N   1      20.921  17.397   1.946  0.00  0.00     0.116 C 
BRANCH 123 124
HETATM  124  C   UNK N   1      20.242  17.644   0.640  0.00  0.00     0.139 C 
HETATM  125  O   UNK N   1      19.541  16.779   0.143  0.00  0.00    -0.650 OA
BRANCH 124 126
HETATM  126  O   UNK N   1      20.369  18.838   0.031  0.00  0.00    -0.776 OA
HETATM  127  H   UNK N   1      20.725  19.691   0.189  0.00  0.00     0.167 HD
ENDBRANCH 124 126
ENDBRANCH 123 124
ENDBRANCH 121 123
ENDBRANCH   8 121
BRANCH  29 128
HETATM  128  C   UNK N   1      28.719   8.861   2.555  0.00  0.00     0.144 C 
BRANCH 128 129
HETATM  129  C   UNK N   1      29.683   8.294   1.561  0.00  0.00     0.141 C 
HETATM  130  O   UNK N   1      29.585   7.132   1.204  0.00  0.00    -0.650 OA
BRANCH 129 131
HETATM  131  O   UNK N   1      30.677   9.060   1.080  0.00  0.00    -0.776 OA
HETATM  132  H   UNK N   1      31.019   9.467   0.308  0.00  0.00     0.167 HD
ENDBRANCH 129 131
ENDBRANCH 128 129
ENDBRANCH  29 128
BRANCH  11 133
HETATM  133  C   UNK N   1      18.174  13.067   1.634  0.00  0.00     0.199 C 
BRANCH 133 134
HETATM  134  O   UNK N   1      18.160  14.209   0.836  0.00  0.00    -0.398 OA
HETATM  135  H   UNK N   1      17.392  14.663   0.456  0.00  0.00     0.209 HD
ENDBRANCH 133 134
ENDBRANCH  11 133
BRANCH  20 136
HETATM  136  C   UNK N   1      24.124  10.966   5.801  0.00  0.00     0.144 C 
BRANCH 136 137
HETATM  137  C   UNK N   1      23.217  11.993   6.409  0.00  0.00     0.141 C 
HETATM  138  O   UNK N   1      23.387  13.180   6.188  0.00  0.00    -0.650 OA
BRANCH 137 139
HETATM  139  O   UNK N   1      22.168  11.595   7.152  0.00  0.00    -0.776 OA
HETATM  140  H   UNK N   1      21.959  10.691   7.288  0.00  0.00     0.167 HD
ENDBRANCH 137 139
ENDBRANCH 136 137
ENDBRANCH  20 136
TORSDOF 42
ENDMDL
MODEL 2
REMARK VINA RESULT:      -7.4      3.691      7.739
REMARK WARNING: 32 MAX_TORS EXCEEDED!!!
REMARK  42 active torsions:
REMARK  status: ('A' for Active; 'I' for Inactive)
REMARK    1  A    between atoms: C_5  and  C_3 
REMARK    2  A    between atoms: C_96  and  C_5 
REMARK    3  A    between atoms: C_10  and  C_7 
REMARK    4  A    between atoms: O_14  and  C_7 
REMARK    5  A    between atoms: C_12  and  C_10 
REMARK    6  A    between atoms: C_13  and  C_12 
REMARK    7  A    between atoms: C_21  and  C_18 
REMARK    8  A    between atoms: O_22  and  C_21 
REMARK    9  A    between atoms: C_32  and  O_27 
REMARK   10  A    between atoms: C_34  and  C_31 
REMARK   11  A    between atoms: C_34  and  C_32 
REMARK   12  A    between atoms: C_45  and  O_40 
REMARK   13  A    between atoms: C_47  and  C_44 
REMARK   14  A    between atoms: C_47  and  C_45 
REMARK   15  A    between atoms: C_50  and  C_48 
REMARK   16  A    between atoms: C_51  and  C_48 
REMARK   17  A    between atoms: C_53  and  C_50 
REMARK   18  A    between atoms: N_54  and  C_53 
REMARK   19  A    between atoms: C_60  and  N_64 
REMARK       I    between atoms: C_72  and  N_64 
REMARK   20  A    between atoms: C_71  and  O_66 
REMARK   21  A    between atoms: C_70  and  N_67 
REMARK       I    between atoms: C_75  and  N_67 
REMARK   22  A    between atoms: C_72  and  C_70 
REMARK   23  A    between atoms: C_73  and  C_70 
REMARK   24  A    between atoms: C_73  and  C_71 
REMARK   25  A    between atoms: C_76  and  C_74 
REMARK   26  A    between atoms: C_77  and  C_74 
REMARK   27  A    between atoms: C_77  and  C_75 
REMARK       I    between atoms: N_80  and  C_76 
REMARK   28  A    between atoms: C_77  and  N_81 
REMARK       I    between atoms: C_82  and  N_81 
REMARK   29  A    between atoms: C_84  and  C_82 
REMARK   30  A    between atoms: C_85  and  C_84 
REMARK   31  A    between atoms: C_84  and  N_86 
REMARK   32  A    between atoms: C_98  and  C_85 
REMARK       I    between atoms: C_87  and  N_86 
REMARK   33  A    between atoms: C_88  and  C_87 
REMARK   34  A    between atoms: C_108  and  C_88 
REMARK   35  A    between atoms: C_96  and  C_89 
REMARK   36  A    between atoms: N_95  and  C_90 
REMARK   37  A    between atoms: C_109  and  C_108 
REMARK   38  A    between atoms: C_110  and  C_109 
REMARK   39  A    between atoms: C_111  and  C_110 
REMARK   40  A    between atoms: C_112  and  C_111 
REMARK   41  A    between atoms: C_113  and  C_112 
REMARK   42  A    between atoms: C_114  and  C_113 
ROOT
HETATM    1  C   UNK N   1      31.780  14.297   4.134  0.00  0.00     0.282 C 
HETATM    2  O   UNK N   1      31.464  14.630   3.003  0.00  0.00    -0.263 OA
HETATM    3  C   UNK N   1      31.389  15.188   5.291  0.00  0.00     0.191 C 
HETATM    4  N   UNK N   1      30.877  16.440   4.773  0.00  0.00    -0.345 N 
HETATM    5  O   UNK N   1      32.481  13.136   4.297  0.00  0.00    -0.312 OA
HETATM    6  C   UNK N   1      29.807  17.123   5.249  0.00  0.00     0.241 C 
HETATM    7  O   UNK N   1      29.484  18.152   4.678  0.00  0.00    -0.271 OA
HETATM    8  C   UNK N   1      29.052  16.693   6.497  0.00  0.00     0.180 C 
HETATM    9  N   UNK N   1      27.996  15.719   6.310  0.00  0.00    -0.346 N 
HETATM   10  C   UNK N   1      26.899  15.865   5.526  0.00  0.00     0.243 C 
HETATM   11  C   UNK N   1      26.797  16.969   4.492  0.00  0.00     0.200 C 
HETATM   12  O   UNK N   1      25.953  15.122   5.718  0.00  0.00    -0.271 OA
HETATM   13  N   UNK N   1      26.749  16.589   3.080  0.00  0.00    -0.344 N 
HETATM   14  C   UNK N   1      26.304  15.441   2.494  0.00  0.00     0.236 C 
HETATM   15  O   UNK N   1      26.307  15.365   1.276  0.00  0.00    -0.272 OA
HETATM   16  N   UNK N   1      26.605  13.143   3.488  0.00  0.00    -0.351 N 
HETATM   17  C   UNK N   1      25.732  14.292   3.273  0.00  0.00     0.225 C 
HETATM   18  N   UNK N   1      29.061  11.057   1.912  0.00  0.00    -0.346 N 
HETATM   19  O   UNK N   1      28.261  13.630   2.050  0.00  0.00    -0.271 OA
HETATM   20  C   UNK N   1      28.450  11.537   3.139  0.00  0.00     0.186 C 
HETATM   21  C   UNK N   1      27.800  12.878   2.896  0.00  0.00     0.241 C 
HETATM   22  C   UNK N   1      30.249  11.533   1.455  0.00  0.00     0.240 C 
HETATM   23  O   UNK N   1      30.923  12.269   2.148  0.00  0.00    -0.271 OA
HETATM   24  C   UNK N   1      30.741  11.199   0.094  0.00  0.00     0.172 C 
HETATM   25  N   UNK N   1      30.899   9.779  -0.043  0.00  0.00    -0.346 N 
HETATM   26  C   UNK N   1      29.802  11.738  -0.967  0.00  0.00     0.042 C 
HETATM   27  N   UNK N   1      34.481   9.045  -0.227  0.00  0.00    -0.346 N 
HETATM   28  O   UNK N   1      32.061   7.899  -0.033  0.00  0.00    -0.271 OA
HETATM   29  C   UNK N   1      33.418   9.786   0.397  0.00  0.00     0.186 C 
HETATM   30  C   UNK N   1      32.081   9.116   0.071  0.00  0.00     0.241 C 
HETATM   31  C   UNK N   1      35.597   8.622   0.414  0.00  0.00     0.241 C 
HETATM   32  C   UNK N   1      35.933   9.042   1.839  0.00  0.00     0.176 C 
HETATM   33  N   UNK N   1      36.316  10.452   1.876  0.00  0.00    -0.346 N 
HETATM   34  O   UNK N   1      36.351   7.870  -0.183  0.00  0.00    -0.271 OA
HETATM   35  C   UNK N   1      36.833  11.044   2.988  0.00  0.00     0.236 C 
HETATM   36  O   UNK N   1      37.036  10.383   3.995  0.00  0.00    -0.272 OA
HETATM   37  N   UNK N   1      36.387  13.533   3.010  0.00  0.00    -0.350 N 
HETATM   38  C   UNK N   1      37.352  12.448   2.950  0.00  0.00     0.225 C 
HETATM   39  C   UNK N   1      34.758  12.550   4.708  0.00  0.00     0.205 C 
HETATM   40  C   UNK N   1      35.319  13.684   3.846  0.00  0.00     0.243 C 
HETATM   41  O   UNK N   1      34.740  14.759   3.844  0.00  0.00    -0.271 OA
HETATM   42  C   UNK N   1      33.371  12.864   5.321  0.00  0.00     0.159 C 
HETATM   43  C   UNK N   1      32.849  11.695   6.141  0.00  0.00     0.042 C 
HETATM   44  H   UNK N   1      31.351  16.832   4.004  0.00  0.00     0.163 HD
HETATM   45  H   UNK N   1      28.083  14.870   6.801  0.00  0.00     0.163 HD
HETATM   46  H   UNK N   1      27.093  17.268   2.455  0.00  0.00     0.163 HD
HETATM   47  H   UNK N   1      26.290  12.476   4.141  0.00  0.00     0.163 HD
HETATM   48  H   UNK N   1      28.597  10.362   1.391  0.00  0.00     0.163 HD
HETATM   49  H   UNK N   1      30.093   9.247  -0.233  0.00  0.00     0.163 HD
HETATM   50  H   UNK N   1      34.392   8.831  -1.184  0.00  0.00     0.163 HD
HETATM   51  H   UNK N   1      36.196  10.996   1.064  0.00  0.00     0.163 HD
HETATM   52  H   UNK N   1      36.523  14.259   2.358  0.00  0.00     0.163 HD
ENDROOT
BRANCH  39  53
HETATM   53  N   UNK N   1      35.645  11.971   5.703  0.00  0.00    -0.344 N 
HETATM   54  C   UNK N   1      36.251  12.583   6.743  0.00  0.00     0.241 C 
HETATM   55  O   UNK N   1      36.034  13.756   7.013  0.00  0.00    -0.271 OA
HETATM   56  H   UNK N   1      35.827  11.009   5.605  0.00  0.00     0.163 HD
BRANCH  54  57
HETATM   57  C   UNK N   1      37.132  11.759   7.627  0.00  0.00     0.186 C 
BRANCH  57  58
HETATM   58  N   UNK N   1      36.330  11.231   8.693  0.00  0.00    -0.345 N 
HETATM   59  C   UNK N   1      35.625  10.074   8.556  0.00  0.00     0.241 C 
HETATM   60  O   UNK N   1      35.771   9.369   7.566  0.00  0.00    -0.271 OA
HETATM   61  H   UNK N   1      36.288  11.719   9.546  0.00  0.00     0.163 HD
BRANCH  59  62
HETATM   62  C   UNK N   1      34.643   9.668   9.618  0.00  0.00     0.185 C 
BRANCH  62  63
HETATM   63  C   UNK N   1      33.189  10.091   9.345  0.00  0.00     0.137 C 
BRANCH  63  64
HETATM   64  C   UNK N   1      32.243   8.987   8.996  0.00  0.00     0.217 C 
HETATM   65  O   UNK N   1      31.091   9.235   8.679  0.00  0.00    -0.274 OA
HETATM   66  N   UNK N   1      32.675   7.712   9.016  0.00  0.00    -0.370 N 
HETATM   67  H   UNK N   1      32.649   6.897   9.568  0.00  0.00     0.159 HD
HETATM   68  H   UNK N   1      33.191   7.532   8.197  0.00  0.00     0.159 HD
ENDBRANCH  63  64
ENDBRANCH  62  63
BRANCH  62  69
HETATM   69  N   UNK N   1      35.128  10.016  10.941  0.00  0.00    -0.346 N 
HETATM   70  C   UNK N   1      34.969   9.277  12.076  0.00  0.00     0.241 C 
HETATM   71  O   UNK N   1      34.469   8.165  12.039  0.00  0.00    -0.271 OA
HETATM   72  H   UNK N   1      35.617  10.866  11.027  0.00  0.00     0.163 HD
BRANCH  70  73
HETATM   73  C   UNK N   1      35.167   9.930  13.408  0.00  0.00     0.180 C 
BRANCH  73  74
HETATM   74  C   UNK N   1      34.459  11.280  13.419  0.00  0.00     0.075 C 
BRANCH  74  75
HETATM   75  C   UNK N   1      35.389  12.395  13.732  0.00  0.00    -0.028 A 
HETATM   76  C   UNK N   1      36.246  13.042  12.847  0.00  0.00     0.096 A 
HETATM   77  N   UNK N   1      36.923  14.014  13.503  0.00  0.00    -0.365 N 
HETATM   78  C   UNK N   1      36.491  13.975  14.784  0.00  0.00     0.042 A 
HETATM   79  H   UNK N   1      37.596  14.626  13.123  0.00  0.00     0.165 HD
HETATM   80  C   UNK N   1      35.555  12.998  14.945  0.00  0.00    -0.002 A 
HETATM   81  C   UNK N   1      36.901  14.790  15.829  0.00  0.00     0.030 A 
HETATM   82  C   UNK N   1      34.950  12.763  16.181  0.00  0.00     0.014 A 
HETATM   83  C   UNK N   1      35.343  13.565  17.266  0.00  0.00     0.001 A 
HETATM   84  C   UNK N   1      36.314  14.576  17.093  0.00  0.00     0.002 A 
ENDBRANCH  74  75
ENDBRANCH  73  74
BRANCH  73  85
HETATM   85  N   UNK N   1      36.539  10.015  13.881  0.00  0.00    -0.347 N 
HETATM   86  C   UNK N   1      37.042   9.476  15.022  0.00  0.00     0.218 C 
HETATM   87  O   UNK N   1      38.240   9.566  15.241  0.00  0.00    -0.274 OA
HETATM   88  H   UNK N   1      37.170  10.515  13.314  0.00  0.00     0.163 HD
BRANCH  86  89
HETATM   89  C   UNK N   1      36.173   8.790  16.033  0.00  0.00     0.103 C 
BRANCH  89  90
HETATM   90  C   UNK N   1      36.195   9.537  17.366  0.00  0.00     0.009 C 
BRANCH  90  91
HETATM   91  C   UNK N   1      34.802   9.632  17.984  0.00  0.00     0.000 C 
BRANCH  91  92
HETATM   92  C   UNK N   1      34.832  10.475  19.244  0.00  0.00     0.000 C 
BRANCH  92  93
HETATM   93  C   UNK N   1      34.733   9.586  20.468  0.00  0.00     0.000 C 
BRANCH  93  94
HETATM   94  C   UNK N   1      33.660   8.537  20.256  0.00  0.00     0.000 C 
BRANCH  94  95
HETATM   95  C   UNK N   1      32.400   8.869  21.033  0.00  0.00    -0.000 C 
BRANCH  95  96
HETATM   96  C   UNK N   1      31.173   8.717  20.156  0.00  0.00    -0.005 C 
HETATM   97  C   UNK N   1      30.894   7.245  19.928  0.00  0.00     0.005 C 
ENDBRANCH  95  96
ENDBRANCH  94  95
ENDBRANCH  93  94
ENDBRANCH  92  93
ENDBRANCH  91  92
ENDBRANCH  90  91
ENDBRANCH  89  90
ENDBRANCH  86  89
ENDBRANCH  73  85
ENDBRANCH  70  73
ENDBRANCH  62  69
ENDBRANCH  59  62
ENDBRANCH  57  58
BRANCH  57  98
HETATM   98  C   UNK N   1      38.397  12.463   8.153  0.00  0.00     0.144 C 
BRANCH  98  99
HETATM   99  C   UNK N   1      38.354  13.003   9.556  0.00  0.00     0.141 C 
HETATM  100  O   UNK N   1      38.125  14.184   9.761  0.00  0.00    -0.650 OA
BRANCH  99 101
HETATM  101  O   UNK N   1      38.520  12.163  10.594  0.00  0.00    -0.776 OA
HETATM  102  H   UNK N   1      39.100  11.427  10.568  0.00  0.00     0.167 HD
ENDBRANCH  99 101
ENDBRANCH  98  99
ENDBRANCH  57  98
ENDBRANCH  54  57
ENDBRANCH  39  53
BRANCH   3 103
HETATM  103  C   UNK N   1      32.613  15.468   6.117  0.00  0.00     0.119 C 
BRANCH 103 104
HETATM  104  C   UNK N   1      32.333  15.231   7.556  0.00  0.00     0.164 C 
HETATM  105  O   UNK N   1      31.315  14.637   7.880  0.00  0.00    -0.292 OA
BRANCH 104 106
HETATM  106  C   UNK N   1      33.321  15.667   8.560  0.00  0.00     0.036 A 
HETATM  107  C   UNK N   1      33.805  16.985   8.495  0.00  0.00     0.017 A 
HETATM  108  C   UNK N   1      34.755  17.441   9.404  0.00  0.00     0.001 A 
HETATM  109  C   UNK N   1      35.236  16.582  10.387  0.00  0.00     0.002 A 
HETATM  110  C   UNK N   1      34.759  15.273  10.467  0.00  0.00     0.030 A 
HETATM  111  C   UNK N   1      33.809  14.805   9.564  0.00  0.00     0.039 A 
BRANCH 111 112
HETATM  112  N   UNK N   1      33.354  13.473   9.679  0.00  0.00    -0.398 N 
HETATM  113  H   UNK N   1      32.857  12.650   9.891  0.00  0.00     0.156 HD
HETATM  114  H   UNK N   1      34.076  13.050   9.158  0.00  0.00     0.156 HD
ENDBRANCH 111 112
ENDBRANCH 104 106
ENDBRANCH 103 104
ENDBRANCH   3 103
BRANCH  32 115
HETATM  115  C   UNK N   1      37.048   8.146   2.419  0.00  0.00     0.036 C 
BRANCH 115 116
HETATM  116  C   UNK N   1      36.494   7.002   3.265  0.00  0.00     0.021 C 
BRANCH 116 117
HETATM  117  C   UNK N   1      37.199   6.951   4.603  0.00  0.00     0.111 C 
BRANCH 117 118
HETATM  118  N   UNK N   1      36.222   7.026   5.676  0.00  0.00    -0.430 N 
HETATM  119  H   UNK N   1      35.912   6.220   6.220  0.00  0.00     0.149 HD
HETATM  120  H   UNK N   1      35.822   7.937   5.898  0.00  0.00     0.149 HD
ENDBRANCH 117 118
ENDBRANCH 116 117
ENDBRANCH 115 116
ENDBRANCH  32 115
BRANCH   8 121
HETATM  121  C   UNK N   1      28.587  17.789   7.478  0.00  0.00     0.023 C 
HETATM  122  C   UNK N   1      27.619  17.274   8.517  0.00  0.00     0.013 C 
BRANCH 121 123
HETATM  123  C   UNK N   1      29.710  18.592   8.128  0.00  0.00     0.116 C 
BRANCH 123 124
HETATM  124  C   UNK N   1      29.947  18.161   9.537  0.00  0.00     0.139 C 
HETATM  125  O   UNK N   1      29.709  18.924  10.458  0.00  0.00    -0.650 OA
BRANCH 124 126
HETATM  126  O   UNK N   1      30.384  16.914   9.795  0.00  0.00    -0.776 OA
HETATM  127  H   UNK N   1      30.355  16.268  10.473  0.00  0.00     0.167 HD
ENDBRANCH 124 126
ENDBRANCH 123 124
ENDBRANCH 121 123
ENDBRANCH   8 121
BRANCH  29 128
HETATM  128  C   UNK N   1      33.561  11.256   0.020  0.00  0.00     0.144 C 
BRANCH 128 129
HETATM  129  C   UNK N   1      34.441  11.412  -1.180  0.00  0.00     0.141 C 
HETATM  130  O   UNK N   1      33.996  11.212  -2.298  0.00  0.00    -0.650 OA
BRANCH 129 131
HETATM  131  O   UNK N   1      35.733  11.749  -1.024  0.00  0.00    -0.776 OA
HETATM  132  H   UNK N   1      36.462  12.179  -1.429  0.00  0.00     0.167 HD
ENDBRANCH 129 131
ENDBRANCH 128 129
ENDBRANCH  29 128
BRANCH  11 133
HETATM  133  C   UNK N   1      25.736  18.014   4.796  0.00  0.00     0.199 C 
BRANCH 133 134
HETATM  134  O   UNK N   1      24.480  17.423   4.932  0.00  0.00    -0.398 OA
HETATM  135  H   UNK N   1      23.951  17.325   5.738  0.00  0.00     0.209 HD
ENDBRANCH 133 134
ENDBRANCH  11 133
BRANCH  20 136
HETATM  136  C   UNK N   1      29.401  11.415   4.350  0.00  0.00     0.144 C 
BRANCH 136 137
HETATM  137  C   UNK N   1      29.748  10.018   4.767  0.00  0.00     0.141 C 
HETATM  138  O   UNK N   1      29.946   9.151   3.932  0.00  0.00    -0.650 OA
BRANCH 137 139
HETATM  139  O   UNK N   1      29.907   9.735   6.073  0.00  0.00    -0.776 OA
HETATM  140  H   UNK N   1      29.366   9.118   6.526  0.00  0.00     0.167 HD
ENDBRANCH 137 139
ENDBRANCH 136 137
ENDBRANCH  20 136
TORSDOF 42
ENDMDL
MODEL 3
REMARK VINA RESULT:      -7.3      1.518      2.777
REMARK WARNING: 32 MAX_TORS EXCEEDED!!!
REMARK  42 active torsions:
REMARK  status: ('A' for Active; 'I' for Inactive)
REMARK    1  A    between atoms: C_5  and  C_3 
REMARK    2  A    between atoms: C_96  and  C_5 
REMARK    3  A    between atoms: C_10  and  C_7 
REMARK    4  A    between atoms: O_14  and  C_7 
REMARK    5  A    between atoms: C_12  and  C_10 
REMARK    6  A    between atoms: C_13  and  C_12 
REMARK    7  A    between atoms: C_21  and  C_18 
REMARK    8  A    between atoms: O_22  and  C_21 
REMARK    9  A    between atoms: C_32  and  O_27 
REMARK   10  A    between atoms: C_34  and  C_31 
REMARK   11  A    between atoms: C_34  and  C_32 
REMARK   12  A    between atoms: C_45  and  O_40 
REMARK   13  A    between atoms: C_47  and  C_44 
REMARK   14  A    between atoms: C_47  and  C_45 
REMARK   15  A    between atoms: C_50  and  C_48 
REMARK   16  A    between atoms: C_51  and  C_48 
REMARK   17  A    between atoms: C_53  and  C_50 
REMARK   18  A    between atoms: N_54  and  C_53 
REMARK   19  A    between atoms: C_60  and  N_64 
REMARK       I    between atoms: C_72  and  N_64 
REMARK   20  A    between atoms: C_71  and  O_66 
REMARK   21  A    between atoms: C_70  and  N_67 
REMARK       I    between atoms: C_75  and  N_67 
REMARK   22  A    between atoms: C_72  and  C_70 
REMARK   23  A    between atoms: C_73  and  C_70 
REMARK   24  A    between atoms: C_73  and  C_71 
REMARK   25  A    between atoms: C_76  and  C_74 
REMARK   26  A    between atoms: C_77  and  C_74 
REMARK   27  A    between atoms: C_77  and  C_75 
REMARK       I    between atoms: N_80  and  C_76 
REMARK   28  A    between atoms: C_77  and  N_81 
REMARK       I    between atoms: C_82  and  N_81 
REMARK   29  A    between atoms: C_84  and  C_82 
REMARK   30  A    between atoms: C_85  and  C_84 
REMARK   31  A    between atoms: C_84  and  N_86 
REMARK   32  A    between atoms: C_98  and  C_85 
REMARK       I    between atoms: C_87  and  N_86 
REMARK   33  A    between atoms: C_88  and  C_87 
REMARK   34  A    between atoms: C_108  and  C_88 
REMARK   35  A    between atoms: C_96  and  C_89 
REMARK   36  A    between atoms: N_95  and  C_90 
REMARK   37  A    between atoms: C_109  and  C_108 
REMARK   38  A    between atoms: C_110  and  C_109 
REMARK   39  A    between atoms: C_111  and  C_110 
REMARK   40  A    between atoms: C_112  and  C_111 
REMARK   41  A    between atoms: C_113  and  C_112 
REMARK   42  A    between atoms: C_114  and  C_113 
ROOT
HETATM    1  C   UNK N   1      25.762  13.628   3.096  0.00  0.00     0.282 C 
HETATM    2  O   UNK N   1      25.621  12.847   2.167  0.00  0.00    -0.263 OA
HETATM    3  C   UNK N   1      24.816  14.802   3.208  0.00  0.00     0.191 C 
HETATM    4  N   UNK N   1      24.023  14.890   1.999  0.00  0.00    -0.345 N 
HETATM    5  O   UNK N   1      26.775  13.406   3.983  0.00  0.00    -0.312 OA
HETATM    6  C   UNK N   1      22.699  15.173   1.930  0.00  0.00     0.241 C 
HETATM    7  O   UNK N   1      22.169  15.179   0.831  0.00  0.00    -0.271 OA
HETATM    8  C   UNK N   1      21.880  15.550   3.156  0.00  0.00     0.180 C 
HETATM    9  N   UNK N   1      21.322  14.456   3.923  0.00  0.00    -0.346 N 
HETATM   10  C   UNK N   1      20.463  13.512   3.465  0.00  0.00     0.243 C 
HETATM   11  C   UNK N   1      20.215  13.306   1.984  0.00  0.00     0.200 C 
HETATM   12  O   UNK N   1      19.832  12.865   4.283  0.00  0.00    -0.271 OA
HETATM   13  N   UNK N   1      20.640  12.043   1.382  0.00  0.00    -0.344 N 
HETATM   14  C   UNK N   1      20.790  10.809   1.943  0.00  0.00     0.236 C 
HETATM   15  O   UNK N   1      21.106   9.873   1.226  0.00  0.00    -0.272 OA
HETATM   16  N   UNK N   1      21.659  10.419   4.279  0.00  0.00    -0.351 N 
HETATM   17  C   UNK N   1      20.506  10.528   3.390  0.00  0.00     0.225 C 
HETATM   18  N   UNK N   1      24.998   9.132   4.520  0.00  0.00    -0.346 N 
HETATM   19  O   UNK N   1      23.314  10.300   2.765  0.00  0.00    -0.271 OA
HETATM   20  C   UNK N   1      23.985  10.046   5.021  0.00  0.00     0.186 C 
HETATM   21  C   UNK N   1      22.972  10.327   3.938  0.00  0.00     0.241 C 
HETATM   22  C   UNK N   1      26.005   9.538   3.704  0.00  0.00     0.240 C 
HETATM   23  O   UNK N   1      26.185  10.720   3.492  0.00  0.00    -0.271 OA
HETATM   24  C   UNK N   1      26.889   8.556   3.025  0.00  0.00     0.172 C 
HETATM   25  N   UNK N   1      27.577   7.752   3.994  0.00  0.00    -0.346 N 
HETATM   26  C   UNK N   1      26.095   7.685   2.071  0.00  0.00     0.042 C 
HETATM   27  N   UNK N   1      31.118   8.679   3.938  0.00  0.00    -0.346 N 
HETATM   28  O   UNK N   1      29.302   7.215   5.267  0.00  0.00    -0.271 OA
HETATM   29  C   UNK N   1      29.745   9.105   3.919  0.00  0.00     0.186 C 
HETATM   30  C   UNK N   1      28.856   7.958   4.406  0.00  0.00     0.241 C 
HETATM   31  C   UNK N   1      32.128   9.376   4.512  0.00  0.00     0.241 C 
HETATM   32  C   UNK N   1      31.945  10.789   5.052  0.00  0.00     0.176 C 
HETATM   33  N   UNK N   1      31.773  11.735   3.951  0.00  0.00    -0.346 N 
HETATM   34  O   UNK N   1      33.220   8.837   4.599  0.00  0.00    -0.271 OA
HETATM   35  C   UNK N   1      31.765  13.084   4.137  0.00  0.00     0.236 C 
HETATM   36  O   UNK N   1      31.951  13.549   5.251  0.00  0.00    -0.272 OA
HETATM   37  N   UNK N   1      30.460  14.265   2.323  0.00  0.00    -0.350 N 
HETATM   38  C   UNK N   1      31.736  14.027   2.975  0.00  0.00     0.225 C 
HETATM   39  C   UNK N   1      28.946  14.319   4.374  0.00  0.00     0.205 C 
HETATM   40  C   UNK N   1      29.244  14.526   2.887  0.00  0.00     0.243 C 
HETATM   41  O   UNK N   1      28.335  14.871   2.150  0.00  0.00    -0.271 OA
HETATM   42  C   UNK N   1      27.436  14.374   4.717  0.00  0.00     0.159 C 
HETATM   43  C   UNK N   1      27.195  14.132   6.199  0.00  0.00     0.042 C 
HETATM   44  H   UNK N   1      24.490  14.729   1.147  0.00  0.00     0.163 HD
HETATM   45  H   UNK N   1      21.592  14.393   4.868  0.00  0.00     0.163 HD
HETATM   46  H   UNK N   1      20.852  12.091   0.421  0.00  0.00     0.163 HD
HETATM   47  H   UNK N   1      21.462  10.411   5.244  0.00  0.00     0.163 HD
HETATM   48  H   UNK N   1      24.952   8.184   4.782  0.00  0.00     0.163 HD
HETATM   49  H   UNK N   1      27.085   6.995   4.389  0.00  0.00     0.163 HD
HETATM   50  H   UNK N   1      31.339   7.822   3.505  0.00  0.00     0.163 HD
HETATM   51  H   UNK N   1      31.659  11.383   3.039  0.00  0.00     0.163 HD
HETATM   52  H   UNK N   1      30.473  14.234   1.338  0.00  0.00     0.163 HD
ENDROOT
BRANCH  39  53
HETATM   53  N   UNK N   1      29.721  15.098   5.323  0.00  0.00    -0.344 N 
HETATM   54  C   UNK N   1      30.216  16.347   5.176  0.00  0.00     0.241 C 
HETATM   55  O   UNK N   1      29.974  17.020   4.185  0.00  0.00    -0.271 OA
HETATM   56  H   UNK N   1      29.912  14.659   6.183  0.00  0.00     0.163 HD
BRANCH  54  57
HETATM   57  C   UNK N   1      30.998  16.930   6.310  0.00  0.00     0.186 C 
BRANCH  57  58
HETATM   58  N   UNK N   1      32.199  16.161   6.467  0.00  0.00    -0.345 N 
HETATM   59  C   UNK N   1      33.433  16.734   6.400  0.00  0.00     0.241 C 
HETATM   60  O   UNK N   1      33.552  17.950   6.349  0.00  0.00    -0.271 OA
HETATM   61  H   UNK N   1      32.129  15.193   6.628  0.00  0.00     0.163 HD
BRANCH  59  62
HETATM   62  C   UNK N   1      34.658  15.865   6.366  0.00  0.00     0.185 C 
BRANCH  62  63
HETATM   63  C   UNK N   1      34.866  15.099   5.048  0.00  0.00     0.137 C 
BRANCH  63  64
HETATM   64  C   UNK N   1      35.996  14.120   5.034  0.00  0.00     0.217 C 
HETATM   65  O   UNK N   1      37.005  14.328   5.689  0.00  0.00    -0.274 OA
HETATM   66  N   UNK N   1      35.888  12.993   4.306  0.00  0.00    -0.370 N 
HETATM   67  H   UNK N   1      36.179  12.594   3.454  0.00  0.00     0.159 HD
HETATM   68  H   UNK N   1      35.329  12.345   4.793  0.00  0.00     0.159 HD
ENDBRANCH  63  64
ENDBRANCH  62  63
BRANCH  62  69
HETATM   69  N   UNK N   1      34.750  15.042   7.557  0.00  0.00    -0.346 N 
HETATM   70  C   UNK N   1      34.971  15.487   8.827  0.00  0.00     0.241 C 
HETATM   71  O   UNK N   1      35.010  16.680   9.079  0.00  0.00    -0.271 OA
HETATM   72  H   UNK N   1      34.643  14.071   7.438  0.00  0.00     0.163 HD
BRANCH  70  73
HETATM   73  C   UNK N   1      35.427  14.519   9.874  0.00  0.00     0.180 C 
BRANCH  73  74
HETATM   74  C   UNK N   1      34.643  14.758  11.159  0.00  0.00     0.075 C 
BRANCH  74  75
HETATM   75  C   UNK N   1      35.391  14.310  12.361  0.00  0.00    -0.028 A 
HETATM   76  C   UNK N   1      36.302  15.054  13.105  0.00  0.00     0.096 A 
HETATM   77  N   UNK N   1      36.763  14.304  14.134  0.00  0.00    -0.365 N 
HETATM   78  C   UNK N   1      36.144  13.106  14.034  0.00  0.00     0.042 A 
HETATM   79  H   UNK N   1      37.418  14.577  14.818  0.00  0.00     0.165 HD
HETATM   80  C   UNK N   1      35.303  13.088  12.963  0.00  0.00    -0.002 A 
HETATM   81  C   UNK N   1      36.299  12.012  14.874  0.00  0.00     0.030 A 
HETATM   82  C   UNK N   1      34.542  11.959  12.650  0.00  0.00     0.014 A 
HETATM   83  C   UNK N   1      34.675  10.830  13.476  0.00  0.00     0.001 A 
HETATM   84  C   UNK N   1      35.550  10.854  14.585  0.00  0.00     0.002 A 
ENDBRANCH  74  75
ENDBRANCH  73  74
BRANCH  73  85
HETATM   85  N   UNK N   1      36.862  14.451  10.100  0.00  0.00    -0.347 N 
HETATM   86  C   UNK N   1      37.644  13.342  10.040  0.00  0.00     0.218 C 
HETATM   87  O   UNK N   1      38.851  13.462  10.176  0.00  0.00    -0.274 OA
HETATM   88  H   UNK N   1      37.314  15.298  10.318  0.00  0.00     0.163 HD
BRANCH  86  89
HETATM   89  C   UNK N   1      37.073  11.972   9.833  0.00  0.00     0.103 C 
BRANCH  89  90
HETATM   90  C   UNK N   1      37.593  10.999  10.891  0.00  0.00     0.009 C 
BRANCH  90  91
HETATM   91  C   UNK N   1      37.202   9.558  10.575  0.00  0.00     0.000 C 
BRANCH  91  92
HETATM   92  C   UNK N   1      37.242   8.706  11.829  0.00  0.00     0.000 C 
BRANCH  92  93
HETATM   93  C   UNK N   1      35.988   7.858  11.923  0.00  0.00     0.000 C 
BRANCH  93  94
HETATM   94  C   UNK N   1      35.190   7.977  10.639  0.00  0.00     0.000 C 
BRANCH  94  95
HETATM   95  C   UNK N   1      33.743   8.339  10.919  0.00  0.00    -0.000 C 
BRANCH  95  96
HETATM   96  C   UNK N   1      32.805   7.451  10.125  0.00  0.00    -0.005 C 
HETATM   97  C   UNK N   1      31.502   8.185   9.878  0.00  0.00     0.005 C 
ENDBRANCH  95  96
ENDBRANCH  94  95
ENDBRANCH  93  94
ENDBRANCH  92  93
ENDBRANCH  91  92
ENDBRANCH  90  91
ENDBRANCH  89  90
ENDBRANCH  86  89
ENDBRANCH  73  85
ENDBRANCH  70  73
ENDBRANCH  62  69
ENDBRANCH  59  62
ENDBRANCH  57  58
BRANCH  57  98
HETATM   98  C   UNK N   1      30.234  17.083   7.639  0.00  0.00     0.144 C 
BRANCH  98  99
HETATM   99  C   UNK N   1      30.879  17.911   8.716  0.00  0.00     0.141 C 
HETATM  100  O   UNK N   1      30.253  18.795   9.278  0.00  0.00    -0.650 OA
BRANCH  99 101
HETATM  101  O   UNK N   1      32.141  17.638   9.095  0.00  0.00    -0.776 OA
HETATM  102  H   UNK N   1      32.352  17.231   9.912  0.00  0.00     0.167 HD
ENDBRANCH  99 101
ENDBRANCH  98  99
ENDBRANCH  57  98
ENDBRANCH  54  57
ENDBRANCH  39  53
BRANCH   3 103
HETATM  103  C   UNK N   1      25.625  16.060   3.350  0.00  0.00     0.119 C 
BRANCH 103 104
HETATM  104  C   UNK N   1      25.086  16.903   4.448  0.00  0.00     0.164 C 
HETATM  105  O   UNK N   1      24.060  16.562   5.019  0.00  0.00    -0.292 OA
BRANCH 104 106
HETATM  106  C   UNK N   1      25.834  18.103   4.863  0.00  0.00     0.036 A 
HETATM  107  C   UNK N   1      26.954  17.940   5.697  0.00  0.00     0.017 A 
HETATM  108  C   UNK N   1      27.682  19.041   6.137  0.00  0.00     0.001 A 
HETATM  109  C   UNK N   1      27.297  20.321   5.749  0.00  0.00     0.002 A 
HETATM  110  C   UNK N   1      26.192  20.497   4.915  0.00  0.00     0.030 A 
HETATM  111  C   UNK N   1      25.455  19.404   4.469  0.00  0.00     0.039 A 
BRANCH 111 112
HETATM  112  N   UNK N   1      24.343  19.626   3.628  0.00  0.00    -0.398 N 
HETATM  113  H   UNK N   1      23.619  20.018   3.088  0.00  0.00     0.156 HD
HETATM  114  H   UNK N   1      24.135  18.681   3.446  0.00  0.00     0.156 HD
ENDBRANCH 111 112
ENDBRANCH 104 106
ENDBRANCH 103 104
ENDBRANCH   3 103
BRANCH  32 115
HETATM  115  C   UNK N   1      33.139  11.184   5.947  0.00  0.00     0.036 C 
BRANCH 115 116
HETATM  116  C   UNK N   1      32.989  10.674   7.378  0.00  0.00     0.021 C 
BRANCH 116 117
HETATM  117  C   UNK N   1      33.438  11.732   8.362  0.00  0.00     0.111 C 
BRANCH 117 118
HETATM  118  N   UNK N   1      32.660  11.626   9.585  0.00  0.00    -0.430 N 
HETATM  119  H   UNK N   1      32.647  10.796  10.180  0.00  0.00     0.149 HD
HETATM  120  H   UNK N   1      32.095  12.426   9.865  0.00  0.00     0.149 HD
ENDBRANCH 117 118
ENDBRANCH 116 117
ENDBRANCH 115 116
ENDBRANCH  32 115
BRANCH   8 121
HETATM  121  C   UNK N   1      20.835  16.676   3.011  0.00  0.00     0.023 C 
HETATM  122  C   UNK N   1      19.672  16.523   3.963  0.00  0.00     0.013 C 
BRANCH 121 123
HETATM  123  C   UNK N   1      21.400  18.092   3.062  0.00  0.00     0.116 C 
BRANCH 123 124
HETATM  124  C   UNK N   1      20.573  19.042   2.260  0.00  0.00     0.139 C 
HETATM  125  O   UNK N   1      20.229  20.108   2.741  0.00  0.00    -0.650 OA
BRANCH 124 126
HETATM  126  O   UNK N   1      20.242  18.739   0.991  0.00  0.00    -0.776 OA
HETATM  127  H   UNK N   1      19.515  18.806   0.402  0.00  0.00     0.167 HD
ENDBRANCH 124 126
ENDBRANCH 123 124
ENDBRANCH 121 123
ENDBRANCH   8 121
BRANCH  29 128
HETATM  128  C   UNK N   1      29.431   9.682   2.543  0.00  0.00     0.144 C 
BRANCH 128 129
HETATM  129  C   UNK N   1      30.288   9.046   1.495  0.00  0.00     0.141 C 
HETATM  130  O   UNK N   1      31.218   9.663   1.002  0.00  0.00    -0.650 OA
BRANCH 129 131
HETATM  131  O   UNK N   1      30.016   7.798   1.073  0.00  0.00    -0.776 OA
HETATM  132  H   UNK N   1      30.392   6.962   0.879  0.00  0.00     0.167 HD
ENDBRANCH 129 131
ENDBRANCH 128 129
ENDBRANCH  29 128
BRANCH  11 133
HETATM  133  C   UNK N   1      18.808  13.664   1.531  0.00  0.00     0.199 C 
BRANCH 133 134
HETATM  134  O   UNK N   1      17.892  12.700   1.949  0.00  0.00    -0.398 OA
HETATM  135  H   UNK N   1      17.519  11.968   1.435  0.00  0.00     0.209 HD
ENDBRANCH 133 134
ENDBRANCH  11 133
BRANCH  20 136
HETATM  136  C   UNK N   1      24.604  11.257   5.751  0.00  0.00     0.144 C 
BRANCH 136 137
HETATM  137  C   UNK N   1      23.681  12.010   6.661  0.00  0.00     0.141 C 
HETATM  138  O   UNK N   1      23.782  11.907   7.872  0.00  0.00    -0.650 OA
BRANCH 137 139
HETATM  139  O   UNK N   1      22.776  12.858   6.136  0.00  0.00    -0.776 OA
HETATM  140  H   UNK N   1      21.970  13.067   6.567  0.00  0.00     0.167 HD
ENDBRANCH 137 139
ENDBRANCH 136 137
ENDBRANCH  20 136
TORSDOF 42
ENDMDL
MODEL 4
REMARK VINA RESULT:      -7.2      2.003      3.273
REMARK WARNING: 32 MAX_TORS EXCEEDED!!!
REMARK  42 active torsions:
REMARK  status: ('A' for Active; 'I' for Inactive)
REMARK    1  A    between atoms: C_5  and  C_3 
REMARK    2  A    between atoms: C_96  and  C_5 
REMARK    3  A    between atoms: C_10  and  C_7 
REMARK    4  A    between atoms: O_14  and  C_7 
REMARK    5  A    between atoms: C_12  and  C_10 
REMARK    6  A    between atoms: C_13  and  C_12 
REMARK    7  A    between atoms: C_21  and  C_18 
REMARK    8  A    between atoms: O_22  and  C_21 
REMARK    9  A    between atoms: C_32  and  O_27 
REMARK   10  A    between atoms: C_34  and  C_31 
REMARK   11  A    between atoms: C_34  and  C_32 
REMARK   12  A    between atoms: C_45  and  O_40 
REMARK   13  A    between atoms: C_47  and  C_44 
REMARK   14  A    between atoms: C_47  and  C_45 
REMARK   15  A    between atoms: C_50  and  C_48 
REMARK   16  A    between atoms: C_51  and  C_48 
REMARK   17  A    between atoms: C_53  and  C_50 
REMARK   18  A    between atoms: N_54  and  C_53 
REMARK   19  A    between atoms: C_60  and  N_64 
REMARK       I    between atoms: C_72  and  N_64 
REMARK   20  A    between atoms: C_71  and  O_66 
REMARK   21  A    between atoms: C_70  and  N_67 
REMARK       I    between atoms: C_75  and  N_67 
REMARK   22  A    between atoms: C_72  and  C_70 
REMARK   23  A    between atoms: C_73  and  C_70 
REMARK   24  A    between atoms: C_73  and  C_71 
REMARK   25  A    between atoms: C_76  and  C_74 
REMARK   26  A    between atoms: C_77  and  C_74 
REMARK   27  A    between atoms: C_77  and  C_75 
REMARK       I    between atoms: N_80  and  C_76 
REMARK   28  A    between atoms: C_77  and  N_81 
REMARK       I    between atoms: C_82  and  N_81 
REMARK   29  A    between atoms: C_84  and  C_82 
REMARK   30  A    between atoms: C_85  and  C_84 
REMARK   31  A    between atoms: C_84  and  N_86 
REMARK   32  A    between atoms: C_98  and  C_85 
REMARK       I    between atoms: C_87  and  N_86 
REMARK   33  A    between atoms: C_88  and  C_87 
REMARK   34  A    between atoms: C_108  and  C_88 
REMARK   35  A    between atoms: C_96  and  C_89 
REMARK   36  A    between atoms: N_95  and  C_90 
REMARK   37  A    between atoms: C_109  and  C_108 
REMARK   38  A    between atoms: C_110  and  C_109 
REMARK   39  A    between atoms: C_111  and  C_110 
REMARK   40  A    between atoms: C_112  and  C_111 
REMARK   41  A    between atoms: C_113  and  C_112 
REMARK   42  A    between atoms: C_114  and  C_113 
ROOT
HETATM    1  C   UNK N   1      25.415  13.351   3.308  0.00  0.00     0.282 C 
HETATM    2  O   UNK N   1      24.747  12.700   2.520  0.00  0.00    -0.263 OA
HETATM    3  C   UNK N   1      24.919  14.717   3.726  0.00  0.00     0.191 C 
HETATM    4  N   UNK N   1      23.796  15.090   2.891  0.00  0.00    -0.345 N 
HETATM    5  O   UNK N   1      26.583  12.815   3.768  0.00  0.00    -0.312 OA
HETATM    6  C   UNK N   1      22.662  15.707   3.306  0.00  0.00     0.241 C 
HETATM    7  O   UNK N   1      21.792  15.925   2.479  0.00  0.00    -0.271 OA
HETATM    8  C   UNK N   1      22.473  16.194   4.734  0.00  0.00     0.180 C 
HETATM    9  N   UNK N   1      21.964  15.228   5.685  0.00  0.00    -0.346 N 
HETATM   10  C   UNK N   1      20.781  14.569   5.604  0.00  0.00     0.243 C 
HETATM   11  C   UNK N   1      19.968  14.539   4.325  0.00  0.00     0.200 C 
HETATM   12  O   UNK N   1      20.342  14.049   6.615  0.00  0.00    -0.271 OA
HETATM   13  N   UNK N   1      19.797  13.255   3.646  0.00  0.00    -0.344 N 
HETATM   14  C   UNK N   1      19.809  11.987   4.149  0.00  0.00     0.236 C 
HETATM   15  O   UNK N   1      19.585  11.055   3.394  0.00  0.00    -0.272 OA
HETATM   16  N   UNK N   1      21.328  11.224   6.012  0.00  0.00    -0.351 N 
HETATM   17  C   UNK N   1      20.005  11.687   5.607  0.00  0.00     0.225 C 
HETATM   18  N   UNK N   1      24.062   9.112   5.047  0.00  0.00    -0.346 N 
HETATM   19  O   UNK N   1      22.229  10.792   4.000  0.00  0.00    -0.271 OA
HETATM   20  C   UNK N   1      23.579  10.217   5.857  0.00  0.00     0.186 C 
HETATM   21  C   UNK N   1      22.355  10.824   5.216  0.00  0.00     0.241 C 
HETATM   22  C   UNK N   1      24.774   9.303   3.906  0.00  0.00     0.240 C 
HETATM   23  O   UNK N   1      25.170  10.411   3.608  0.00  0.00    -0.271 OA
HETATM   24  C   UNK N   1      25.059   8.178   2.979  0.00  0.00     0.172 C 
HETATM   25  N   UNK N   1      25.812   7.158   3.651  0.00  0.00    -0.346 N 
HETATM   26  C   UNK N   1      23.774   7.608   2.410  0.00  0.00     0.042 C 
HETATM   27  N   UNK N   1      29.203   7.149   2.269  0.00  0.00    -0.346 N 
HETATM   28  O   UNK N   1      27.674   6.109   4.215  0.00  0.00    -0.271 OA
HETATM   29  C   UNK N   1      28.080   7.913   2.744  0.00  0.00     0.186 C 
HETATM   30  C   UNK N   1      27.160   7.000   3.557  0.00  0.00     0.241 C 
HETATM   31  C   UNK N   1      30.497   7.523   2.410  0.00  0.00     0.241 C 
HETATM   32  C   UNK N   1      30.902   8.893   2.937  0.00  0.00     0.176 C 
HETATM   33  N   UNK N   1      30.599   9.927   1.949  0.00  0.00    -0.346 N 
HETATM   34  O   UNK N   1      31.363   6.717   2.106  0.00  0.00    -0.271 OA
HETATM   35  C   UNK N   1      31.015  11.217   2.085  0.00  0.00     0.236 C 
HETATM   36  O   UNK N   1      31.707  11.540   3.038  0.00  0.00    -0.272 OA
HETATM   37  N   UNK N   1      29.503  12.818   0.843  0.00  0.00    -0.350 N 
HETATM   38  C   UNK N   1      30.817  12.216   0.987  0.00  0.00     0.225 C 
HETATM   39  C   UNK N   1      28.906  13.112   3.305  0.00  0.00     0.205 C 
HETATM   40  C   UNK N   1      28.690  13.340   1.807  0.00  0.00     0.243 C 
HETATM   41  O   UNK N   1      27.700  13.958   1.446  0.00  0.00    -0.271 OA
HETATM   42  C   UNK N   1      27.696  13.527   4.178  0.00  0.00     0.159 C 
HETATM   43  C   UNK N   1      27.953  13.252   5.651  0.00  0.00     0.042 C 
HETATM   44  H   UNK N   1      23.862  14.876   1.932  0.00  0.00     0.163 HD
HETATM   45  H   UNK N   1      22.530  15.031   6.466  0.00  0.00     0.163 HD
HETATM   46  H   UNK N   1      19.651  13.314   2.674  0.00  0.00     0.163 HD
HETATM   47  H   UNK N   1      21.500  11.199   6.982  0.00  0.00     0.163 HD
HETATM   48  H   UNK N   1      23.865   8.191   5.335  0.00  0.00     0.163 HD
HETATM   49  H   UNK N   1      25.317   6.527   4.221  0.00  0.00     0.163 HD
HETATM   50  H   UNK N   1      29.017   6.297   1.810  0.00  0.00     0.163 HD
HETATM   51  H   UNK N   1      30.074   9.682   1.154  0.00  0.00     0.163 HD
HETATM   52  H   UNK N   1      29.149  12.853  -0.076  0.00  0.00     0.163 HD
ENDROOT
BRANCH  39  53
HETATM   53  N   UNK N   1      30.149  13.598   3.878  0.00  0.00    -0.344 N 
HETATM   54  C   UNK N   1      30.492  14.869   4.182  0.00  0.00     0.241 C 
HETATM   55  O   UNK N   1      29.700  15.792   4.065  0.00  0.00    -0.271 OA
HETATM   56  H   UNK N   1      30.829  12.913   4.070  0.00  0.00     0.163 HD
BRANCH  54  57
HETATM   57  C   UNK N   1      31.849  15.111   4.761  0.00  0.00     0.186 C 
BRANCH  57  58
HETATM   58  N   UNK N   1      31.685  15.716   6.052  0.00  0.00    -0.345 N 
HETATM   59  C   UNK N   1      31.870  15.012   7.203  0.00  0.00     0.241 C 
HETATM   60  O   UNK N   1      32.327  13.878   7.173  0.00  0.00    -0.271 OA
HETATM   61  H   UNK N   1      31.431  16.665   6.106  0.00  0.00     0.163 HD
BRANCH  59  62
HETATM   62  C   UNK N   1      31.490  15.625   8.522  0.00  0.00     0.185 C 
BRANCH  62  63
HETATM   63  C   UNK N   1      31.038  17.093   8.440  0.00  0.00     0.137 C 
BRANCH  63  64
HETATM   64  C   UNK N   1      29.765  17.424   9.153  0.00  0.00     0.217 C 
HETATM   65  O   UNK N   1      28.695  17.016   8.731  0.00  0.00    -0.274 OA
HETATM   66  N   UNK N   1      29.806  18.164  10.277  0.00  0.00    -0.370 N 
HETATM   67  H   UNK N   1      29.653  19.079  10.604  0.00  0.00     0.159 HD
HETATM   68  H   UNK N   1      30.083  17.593  11.030  0.00  0.00     0.159 HD
ENDBRANCH  63  64
ENDBRANCH  62  63
BRANCH  62  69
HETATM   69  N   UNK N   1      32.501  15.366   9.531  0.00  0.00    -0.346 N 
HETATM   70  C   UNK N   1      33.736  15.939   9.596  0.00  0.00     0.241 C 
HETATM   71  O   UNK N   1      34.060  16.830   8.827  0.00  0.00    -0.271 OA
HETATM   72  H   UNK N   1      32.273  14.717  10.234  0.00  0.00     0.163 HD
BRANCH  70  73
HETATM   73  C   UNK N   1      34.796  15.300  10.438  0.00  0.00     0.180 C 
BRANCH  73  74
HETATM   74  C   UNK N   1      36.017  15.003   9.573  0.00  0.00     0.075 C 
BRANCH  74  75
HETATM   75  C   UNK N   1      35.830  13.785   8.744  0.00  0.00    -0.028 A 
HETATM   76  C   UNK N   1      35.731  12.472   9.196  0.00  0.00     0.096 A 
HETATM   77  N   UNK N   1      35.552  11.643   8.140  0.00  0.00    -0.365 N 
HETATM   78  C   UNK N   1      35.537  12.431   7.041  0.00  0.00     0.042 A 
HETATM   79  H   UNK N   1      35.453  10.664   8.168  0.00  0.00     0.165 HD
HETATM   80  C   UNK N   1      35.702  13.739   7.386  0.00  0.00    -0.002 A 
HETATM   81  C   UNK N   1      35.375  12.026   5.724  0.00  0.00     0.030 A 
HETATM   82  C   UNK N   1      35.715  14.752   6.424  0.00  0.00     0.014 A 
HETATM   83  C   UNK N   1      35.559  14.379   5.078  0.00  0.00     0.001 A 
HETATM   84  C   UNK N   1      35.389  13.022   4.727  0.00  0.00     0.002 A 
ENDBRANCH  74  75
ENDBRANCH  73  74
BRANCH  73  85
HETATM   85  N   UNK N   1      34.380  14.153  11.228  0.00  0.00    -0.347 N 
HETATM   86  C   UNK N   1      34.890  13.760  12.425  0.00  0.00     0.218 C 
HETATM   87  O   UNK N   1      34.376  12.818  13.006  0.00  0.00    -0.274 OA
HETATM   88  H   UNK N   1      33.651  13.604  10.859  0.00  0.00     0.163 HD
BRANCH  86  89
HETATM   89  C   UNK N   1      36.077  14.433  13.047  0.00  0.00     0.103 C 
BRANCH  89  90
HETATM   90  C   UNK N   1      36.777  13.499  14.033  0.00  0.00     0.009 C 
BRANCH  90  91
HETATM   91  C   UNK N   1      36.469  13.874  15.481  0.00  0.00     0.000 C 
BRANCH  91  92
HETATM   92  C   UNK N   1      35.895  12.687  16.230  0.00  0.00     0.000 C 
BRANCH  92  93
HETATM   93  C   UNK N   1      35.095  13.164  17.428  0.00  0.00     0.000 C 
BRANCH  93  94
HETATM   94  C   UNK N   1      35.295  12.212  18.591  0.00  0.00     0.000 C 
BRANCH  94  95
HETATM   95  C   UNK N   1      35.078  10.770  18.168  0.00  0.00    -0.000 C 
BRANCH  95  96
HETATM   96  C   UNK N   1      34.824   9.890  19.376  0.00  0.00    -0.005 C 
HETATM   97  C   UNK N   1      33.725   8.897  19.055  0.00  0.00     0.005 C 
ENDBRANCH  95  96
ENDBRANCH  94  95
ENDBRANCH  93  94
ENDBRANCH  92  93
ENDBRANCH  91  92
ENDBRANCH  90  91
ENDBRANCH  89  90
ENDBRANCH  86  89
ENDBRANCH  73  85
ENDBRANCH  70  73
ENDBRANCH  62  69
ENDBRANCH  59  62
ENDBRANCH  57  58
BRANCH  57  98
HETATM   98  C   UNK N   1      32.822  15.909   3.872  0.00  0.00     0.144 C 
BRANCH  98  99
HETATM   99  C   UNK N   1      33.082  17.342   4.245  0.00  0.00     0.141 C 
HETATM  100  O   UNK N   1      32.455  18.246   3.716  0.00  0.00    -0.650 OA
BRANCH  99 101
HETATM  101  O   UNK N   1      33.979  17.624   5.208  0.00  0.00    -0.776 OA
HETATM  102  H   UNK N   1      34.788  17.161   5.303  0.00  0.00     0.167 HD
ENDBRANCH  99 101
ENDBRANCH  98  99
ENDBRANCH  57  98
ENDBRANCH  54  57
ENDBRANCH  39  53
BRANCH   3 103
HETATM  103  C   UNK N   1      26.027  15.713   3.523  0.00  0.00     0.119 C 
BRANCH 103 104
HETATM  104  C   UNK N   1      26.099  16.650   4.673  0.00  0.00     0.164 C 
HETATM  105  O   UNK N   1      25.893  16.232   5.803  0.00  0.00    -0.292 OA
BRANCH 104 106
HETATM  106  C   UNK N   1      26.475  18.055   4.430  0.00  0.00     0.036 A 
HETATM  107  C   UNK N   1      25.650  18.836   3.602  0.00  0.00     0.017 A 
HETATM  108  C   UNK N   1      25.971  20.160   3.321  0.00  0.00     0.001 A 
HETATM  109  C   UNK N   1      27.124  20.720   3.864  0.00  0.00     0.002 A 
HETATM  110  C   UNK N   1      27.947  19.958   4.694  0.00  0.00     0.030 A 
HETATM  111  C   UNK N   1      27.638  18.632   4.982  0.00  0.00     0.039 A 
BRANCH 111 112
HETATM  112  N   UNK N   1      28.499  17.896   5.825  0.00  0.00    -0.398 N 
HETATM  113  H   UNK N   1      28.909  17.400   6.570  0.00  0.00     0.156 HD
HETATM  114  H   UNK N   1      29.259  17.833   5.201  0.00  0.00     0.156 HD
ENDBRANCH 111 112
ENDBRANCH 104 106
ENDBRANCH 103 104
ENDBRANCH   3 103
BRANCH  32 115
HETATM  115  C   UNK N   1      32.398   8.906   3.318  0.00  0.00     0.036 C 
BRANCH 115 116
HETATM  116  C   UNK N   1      32.620   8.697   4.814  0.00  0.00     0.021 C 
BRANCH 116 117
HETATM  117  C   UNK N   1      31.563   9.433   5.609  0.00  0.00     0.111 C 
BRANCH 117 118
HETATM  118  N   UNK N   1      32.011  10.787   5.885  0.00  0.00    -0.430 N 
HETATM  119  H   UNK N   1      32.072  11.520   5.178  0.00  0.00     0.149 HD
HETATM  120  H   UNK N   1      32.281  11.019   6.841  0.00  0.00     0.149 HD
ENDBRANCH 117 118
ENDBRANCH 116 117
ENDBRANCH 115 116
ENDBRANCH  32 115
BRANCH   8 121
HETATM  121  C   UNK N   1      21.783  17.557   4.951  0.00  0.00     0.023 C 
HETATM  122  C   UNK N   1      21.647  17.921   6.411  0.00  0.00     0.013 C 
BRANCH 121 123
HETATM  123  C   UNK N   1      22.375  18.714   4.153  0.00  0.00     0.116 C 
BRANCH 123 124
HETATM  124  C   UNK N   1      21.341  19.389   3.315  0.00  0.00     0.139 C 
HETATM  125  O   UNK N   1      21.300  20.606   3.257  0.00  0.00    -0.650 OA
BRANCH 124 126
HETATM  126  O   UNK N   1      20.479  18.653   2.589  0.00  0.00    -0.776 OA
HETATM  127  H   UNK N   1      19.735  18.094   2.705  0.00  0.00     0.167 HD
ENDBRANCH 124 126
ENDBRANCH 123 124
ENDBRANCH 121 123
ENDBRANCH   8 121
BRANCH  29 128
HETATM  128  C   UNK N   1      27.454   8.647   1.563  0.00  0.00     0.144 C 
BRANCH 128 129
HETATM  129  C   UNK N   1      27.650   7.875   0.296  0.00  0.00     0.141 C 
HETATM  130  O   UNK N   1      26.951   6.906   0.052  0.00  0.00    -0.650 OA
BRANCH 129 131
HETATM  131  O   UNK N   1      28.618   8.235  -0.565  0.00  0.00    -0.776 OA
HETATM  132  H   UNK N   1      29.340   7.921  -1.073  0.00  0.00     0.167 HD
ENDBRANCH 129 131
ENDBRANCH 128 129
ENDBRANCH  29 128
BRANCH  11 133
HETATM  133  C   UNK N   1      18.641  15.276   4.410  0.00  0.00     0.199 C 
BRANCH 133 134
HETATM  134  O   UNK N   1      18.800  16.624   4.095  0.00  0.00    -0.398 OA
HETATM  135  H   UNK N   1      18.151  17.339   4.185  0.00  0.00     0.209 HD
ENDBRANCH 133 134
ENDBRANCH  11 133
BRANCH  20 136
HETATM  136  C   UNK N   1      24.716  11.175   6.273  0.00  0.00     0.144 C 
BRANCH 136 137
HETATM  137  C   UNK N   1      24.325  12.285   7.201  0.00  0.00     0.141 C 
HETATM  138  O   UNK N   1      24.012  12.048   8.356  0.00  0.00    -0.650 OA
BRANCH 137 139
HETATM  139  O   UNK N   1      24.386  13.560   6.774  0.00  0.00    -0.776 OA
HETATM  140  H   UNK N   1      24.956  14.196   7.160  0.00  0.00     0.167 HD
ENDBRANCH 137 139
ENDBRANCH 136 137
ENDBRANCH  20 136
TORSDOF 42
ENDMDL
MODEL 5
REMARK VINA RESULT:      -7.1      4.239     11.412
REMARK WARNING: 32 MAX_TORS EXCEEDED!!!
REMARK  42 active torsions:
REMARK  status: ('A' for Active; 'I' for Inactive)
REMARK    1  A    between atoms: C_5  and  C_3 
REMARK    2  A    between atoms: C_96  and  C_5 
REMARK    3  A    between atoms: C_10  and  C_7 
REMARK    4  A    between atoms: O_14  and  C_7 
REMARK    5  A    between atoms: C_12  and  C_10 
REMARK    6  A    between atoms: C_13  and  C_12 
REMARK    7  A    between atoms: C_21  and  C_18 
REMARK    8  A    between atoms: O_22  and  C_21 
REMARK    9  A    between atoms: C_32  and  O_27 
REMARK   10  A    between atoms: C_34  and  C_31 
REMARK   11  A    between atoms: C_34  and  C_32 
REMARK   12  A    between atoms: C_45  and  O_40 
REMARK   13  A    between atoms: C_47  and  C_44 
REMARK   14  A    between atoms: C_47  and  C_45 
REMARK   15  A    between atoms: C_50  and  C_48 
REMARK   16  A    between atoms: C_51  and  C_48 
REMARK   17  A    between atoms: C_53  and  C_50 
REMARK   18  A    between atoms: N_54  and  C_53 
REMARK   19  A    between atoms: C_60  and  N_64 
REMARK       I    between atoms: C_72  and  N_64 
REMARK   20  A    between atoms: C_71  and  O_66 
REMARK   21  A    between atoms: C_70  and  N_67 
REMARK       I    between atoms: C_75  and  N_67 
REMARK   22  A    between atoms: C_72  and  C_70 
REMARK   23  A    between atoms: C_73  and  C_70 
REMARK   24  A    between atoms: C_73  and  C_71 
REMARK   25  A    between atoms: C_76  and  C_74 
REMARK   26  A    between atoms: C_77  and  C_74 
REMARK   27  A    between atoms: C_77  and  C_75 
REMARK       I    between atoms: N_80  and  C_76 
REMARK   28  A    between atoms: C_77  and  N_81 
REMARK       I    between atoms: C_82  and  N_81 
REMARK   29  A    between atoms: C_84  and  C_82 
REMARK   30  A    between atoms: C_85  and  C_84 
REMARK   31  A    between atoms: C_84  and  N_86 
REMARK   32  A    between atoms: C_98  and  C_85 
REMARK       I    between atoms: C_87  and  N_86 
REMARK   33  A    between atoms: C_88  and  C_87 
REMARK   34  A    between atoms: C_108  and  C_88 
REMARK   35  A    between atoms: C_96  and  C_89 
REMARK   36  A    between atoms: N_95  and  C_90 
REMARK   37  A    between atoms: C_109  and  C_108 
REMARK   38  A    between atoms: C_110  and  C_109 
REMARK   39  A    between atoms: C_111  and  C_110 
REMARK   40  A    between atoms: C_112  and  C_111 
REMARK   41  A    between atoms: C_113  and  C_112 
REMARK   42  A    between atoms: C_114  and  C_113 
ROOT
HETATM    1  C   UNK N   1      28.963  10.658   3.377  0.00  0.00     0.282 C 
HETATM    2  O   UNK N   1      29.738   9.860   3.880  0.00  0.00    -0.263 OA
HETATM    3  C   UNK N   1      29.118  12.126   3.702  0.00  0.00     0.191 C 
HETATM    4  N   UNK N   1      30.077  12.275   4.777  0.00  0.00    -0.345 N 
HETATM    5  O   UNK N   1      27.985  10.182   2.552  0.00  0.00    -0.312 OA
HETATM    6  C   UNK N   1      31.038  13.228   4.865  0.00  0.00     0.241 C 
HETATM    7  O   UNK N   1      31.791  13.197   5.825  0.00  0.00    -0.271 OA
HETATM    8  C   UNK N   1      31.159  14.361   3.858  0.00  0.00     0.180 C 
HETATM    9  N   UNK N   1      31.932  14.087   2.665  0.00  0.00    -0.346 N 
HETATM   10  C   UNK N   1      33.237  13.721   2.622  0.00  0.00     0.243 C 
HETATM   11  C   UNK N   1      33.978  13.251   3.858  0.00  0.00     0.200 C 
HETATM   12  O   UNK N   1      33.834  13.843   1.566  0.00  0.00    -0.271 OA
HETATM   13  N   UNK N   1      34.436  11.863   3.903  0.00  0.00    -0.344 N 
HETATM   14  C   UNK N   1      34.762  11.012   2.887  0.00  0.00     0.236 C 
HETATM   15  O   UNK N   1      35.179   9.900   3.165  0.00  0.00    -0.272 OA
HETATM   16  N   UNK N   1      33.559  10.938   0.671  0.00  0.00    -0.351 N 
HETATM   17  C   UNK N   1      34.708  11.407   1.439  0.00  0.00     0.225 C 
HETATM   18  N   UNK N   1      31.402   8.121   0.146  0.00  0.00    -0.346 N 
HETATM   19  O   UNK N   1      32.712   9.432   2.107  0.00  0.00    -0.271 OA
HETATM   20  C   UNK N   1      31.627   9.549   0.006  0.00  0.00     0.186 C 
HETATM   21  C   UNK N   1      32.633  10.011   1.033  0.00  0.00     0.241 C 
HETATM   22  C   UNK N   1      30.618   7.600   1.126  0.00  0.00     0.240 C 
HETATM   23  O   UNK N   1      29.946   8.329   1.826  0.00  0.00    -0.271 OA
HETATM   24  C   UNK N   1      30.584   6.139   1.390  0.00  0.00     0.172 C 
HETATM   25  N   UNK N   1      30.138   5.432   0.224  0.00  0.00    -0.346 N 
HETATM   26  C   UNK N   1      31.946   5.639   1.832  0.00  0.00     0.042 C 
HETATM   27  N   UNK N   1      26.802   4.089   0.912  0.00  0.00    -0.346 N 
HETATM   28  O   UNK N   1      28.622   4.428  -1.032  0.00  0.00    -0.271 OA
HETATM   29  C   UNK N   1      27.717   5.194   1.012  0.00  0.00     0.186 C 
HETATM   30  C   UNK N   1      28.869   4.982   0.027  0.00  0.00     0.241 C 
HETATM   31  C   UNK N   1      25.463   4.217   0.757  0.00  0.00     0.241 C 
HETATM   32  C   UNK N   1      24.751   5.560   0.849  0.00  0.00     0.176 C 
HETATM   33  N   UNK N   1      24.745   6.038   2.230  0.00  0.00    -0.346 N 
HETATM   34  O   UNK N   1      24.813   3.208   0.528  0.00  0.00    -0.271 OA
HETATM   35  C   UNK N   1      24.026   7.124   2.628  0.00  0.00     0.236 C 
HETATM   36  O   UNK N   1      23.316   7.714   1.829  0.00  0.00    -0.272 OA
HETATM   37  N   UNK N   1      25.038   8.211   4.674  0.00  0.00    -0.350 N 
HETATM   38  C   UNK N   1      23.923   7.499   4.074  0.00  0.00     0.225 C 
HETATM   39  C   UNK N   1      25.644   9.751   2.734  0.00  0.00     0.205 C 
HETATM   40  C   UNK N   1      25.734   9.279   4.187  0.00  0.00     0.243 C 
HETATM   41  O   UNK N   1      26.523   9.835   4.936  0.00  0.00    -0.271 OA
HETATM   42  C   UNK N   1      26.748  10.764   2.340  0.00  0.00     0.159 C 
HETATM   43  C   UNK N   1      26.630  11.175   0.882  0.00  0.00     0.042 C 
HETATM   44  H   UNK N   1      30.027  11.624   5.513  0.00  0.00     0.163 HD
HETATM   45  H   UNK N   1      31.466  14.175   1.802  0.00  0.00     0.163 HD
HETATM   46  H   UNK N   1      34.521  11.482   4.807  0.00  0.00     0.163 HD
HETATM   47  H   UNK N   1      33.441  11.342  -0.220  0.00  0.00     0.163 HD
HETATM   48  H   UNK N   1      31.834   7.508  -0.492  0.00  0.00     0.163 HD
HETATM   49  H   UNK N   1      30.798   5.261  -0.486  0.00  0.00     0.163 HD
HETATM   50  H   UNK N   1      27.175   3.179   0.960  0.00  0.00     0.163 HD
HETATM   51  H   UNK N   1      25.281   5.556   2.900  0.00  0.00     0.163 HD
HETATM   52  H   UNK N   1      25.333   7.876   5.553  0.00  0.00     0.163 HD
ENDROOT
BRANCH  39  53
HETATM   53  N   UNK N   1      24.345  10.190   2.258  0.00  0.00    -0.344 N 
HETATM   54  C   UNK N   1      23.554  11.166   2.757  0.00  0.00     0.241 C 
HETATM   55  O   UNK N   1      23.919  11.877   3.681  0.00  0.00    -0.271 OA
HETATM   56  H   UNK N   1      23.995   9.716   1.469  0.00  0.00     0.163 HD
BRANCH  54  57
HETATM   57  C   UNK N   1      22.243  11.421   2.083  0.00  0.00     0.186 C 
BRANCH  57  58
HETATM   58  N   UNK N   1      21.627  12.552   2.716  0.00  0.00    -0.345 N 
HETATM   59  C   UNK N   1      21.232  13.645   2.006  0.00  0.00     0.241 C 
HETATM   60  O   UNK N   1      21.257  13.636   0.783  0.00  0.00    -0.271 OA
HETATM   61  H   UNK N   1      21.487  12.537   3.690  0.00  0.00     0.163 HD
BRANCH  59  62
HETATM   62  C   UNK N   1      20.782  14.882   2.730  0.00  0.00     0.185 C 
BRANCH  62  63
HETATM   63  C   UNK N   1      21.135  16.203   2.026  0.00  0.00     0.137 C 
BRANCH  63  64
HETATM   64  C   UNK N   1      20.007  16.890   1.324  0.00  0.00     0.217 C 
HETATM   65  O   UNK N   1      19.834  18.091   1.454  0.00  0.00    -0.274 OA
HETATM   66  N   UNK N   1      19.187  16.176   0.528  0.00  0.00    -0.370 N 
HETATM   67  H   UNK N   1      18.295  15.760   0.515  0.00  0.00     0.159 HD
HETATM   68  H   UNK N   1      19.633  16.017  -0.335  0.00  0.00     0.159 HD
ENDBRANCH  63  64
ENDBRANCH  62  63
BRANCH  62  69
HETATM   69  N   UNK N   1      21.156  14.834   4.132  0.00  0.00    -0.346 N 
HETATM   70  C   UNK N   1      20.417  15.304   5.177  0.00  0.00     0.241 C 
HETATM   71  O   UNK N   1      19.286  15.729   5.010  0.00  0.00    -0.271 OA
HETATM   72  H   UNK N   1      22.024  14.425   4.348  0.00  0.00     0.163 HD
BRANCH  70  73
HETATM   73  C   UNK N   1      21.083  15.543   6.496  0.00  0.00     0.180 C 
BRANCH  73  74
HETATM   74  C   UNK N   1      20.891  14.322   7.388  0.00  0.00     0.075 C 
BRANCH  74  75
HETATM   75  C   UNK N   1      22.175  13.833   7.949  0.00  0.00    -0.028 A 
HETATM   76  C   UNK N   1      23.435  13.934   7.366  0.00  0.00     0.096 A 
HETATM   77  N   UNK N   1      24.359  13.383   8.190  0.00  0.00    -0.365 N 
HETATM   78  C   UNK N   1      23.683  12.946   9.276  0.00  0.00     0.042 A 
HETATM   79  H   UNK N   1      25.329  13.315   8.029  0.00  0.00     0.165 HD
HETATM   80  C   UNK N   1      22.352  13.211   9.152  0.00  0.00    -0.002 A 
HETATM   81  C   UNK N   1      24.213  12.314  10.392  0.00  0.00     0.030 A 
HETATM   82  C   UNK N   1      21.441  12.861  10.151  0.00  0.00     0.014 A 
HETATM   83  C   UNK N   1      21.940  12.214  11.295  0.00  0.00     0.001 A 
HETATM   84  C   UNK N   1      23.320  11.941  11.416  0.00  0.00     0.002 A 
ENDBRANCH  74  75
ENDBRANCH  73  74
BRANCH  73  85
HETATM   85  N   UNK N   1      20.741  16.786   7.169  0.00  0.00    -0.347 N 
HETATM   86  C   UNK N   1      21.127  18.039   6.812  0.00  0.00     0.218 C 
HETATM   87  O   UNK N   1      20.687  18.992   7.435  0.00  0.00    -0.274 OA
HETATM   88  H   UNK N   1      20.168  16.711   7.967  0.00  0.00     0.163 HD
BRANCH  86  89
HETATM   89  C   UNK N   1      22.090  18.289   5.692  0.00  0.00     0.103 C 
BRANCH  89  90
HETATM   90  C   UNK N   1      21.383  18.927   4.497  0.00  0.00     0.009 C 
BRANCH  90  91
HETATM   91  C   UNK N   1      22.377  19.424   3.451  0.00  0.00     0.000 C 
BRANCH  91  92
HETATM   92  C   UNK N   1      23.729  19.691   4.082  0.00  0.00     0.000 C 
BRANCH  92  93
HETATM   93  C   UNK N   1      24.813  19.667   3.021  0.00  0.00     0.000 C 
BRANCH  93  94
HETATM   94  C   UNK N   1      26.109  20.203   3.599  0.00  0.00     0.000 C 
BRANCH  94  95
HETATM   95  C   UNK N   1      26.035  20.317   5.110  0.00  0.00    -0.000 C 
BRANCH  95  96
HETATM   96  C   UNK N   1      27.368  19.962   5.740  0.00  0.00    -0.005 C 
HETATM   97  C   UNK N   1      28.182  19.134   4.767  0.00  0.00     0.005 C 
ENDBRANCH  95  96
ENDBRANCH  94  95
ENDBRANCH  93  94
ENDBRANCH  92  93
ENDBRANCH  91  92
ENDBRANCH  90  91
ENDBRANCH  89  90
ENDBRANCH  86  89
ENDBRANCH  73  85
ENDBRANCH  70  73
ENDBRANCH  62  69
ENDBRANCH  59  62
ENDBRANCH  57  58
BRANCH  57  98
HETATM   98  C   UNK N   1      21.288  10.215   2.003  0.00  0.00     0.144 C 
BRANCH  98  99
HETATM   99  C   UNK N   1      20.391  10.123   0.799  0.00  0.00     0.141 C 
HETATM  100  O   UNK N   1      20.301   9.082   0.168  0.00  0.00    -0.650 OA
BRANCH  99 101
HETATM  101  O   UNK N   1      19.642  11.186   0.449  0.00  0.00    -0.776 OA
HETATM  102  H   UNK N   1      19.427  11.387  -0.441  0.00  0.00     0.167 HD
ENDBRANCH  99 101
ENDBRANCH  98  99
ENDBRANCH  57  98
ENDBRANCH  54  57
ENDBRANCH  39  53
BRANCH   3 103
HETATM  103  C   UNK N   1      27.790  12.661   4.158  0.00  0.00     0.119 C 
BRANCH 103 104
HETATM  104  C   UNK N   1      27.461  13.917   3.437  0.00  0.00     0.164 C 
HETATM  105  O   UNK N   1      27.944  14.119   2.332  0.00  0.00    -0.292 OA
BRANCH 104 106
HETATM  106  C   UNK N   1      26.510  14.865   4.046  0.00  0.00     0.036 A 
HETATM  107  C   UNK N   1      26.875  15.504   5.243  0.00  0.00     0.017 A 
HETATM  108  C   UNK N   1      26.006  16.390   5.872  0.00  0.00     0.001 A 
HETATM  109  C   UNK N   1      24.759  16.647   5.311  0.00  0.00     0.002 A 
HETATM  110  C   UNK N   1      24.386  16.025   4.119  0.00  0.00     0.030 A 
HETATM  111  C   UNK N   1      25.246  15.136   3.480  0.00  0.00     0.039 A 
BRANCH 111 112
HETATM  112  N   UNK N   1      24.830  14.526   2.276  0.00  0.00    -0.398 N 
HETATM  113  H   UNK N   1      24.388  14.297   1.427  0.00  0.00     0.156 HD
HETATM  114  H   UNK N   1      25.432  13.748   2.317  0.00  0.00     0.156 HD
ENDBRANCH 111 112
ENDBRANCH 104 106
ENDBRANCH 103 104
ENDBRANCH   3 103
BRANCH  32 115
HETATM  115  C   UNK N   1      23.317   5.451   0.289  0.00  0.00     0.036 C 
BRANCH 115 116
HETATM  116  C   UNK N   1      23.240   5.815  -1.192  0.00  0.00     0.021 C 
BRANCH 116 117
HETATM  117  C   UNK N   1      21.828   5.633  -1.704  0.00  0.00     0.111 C 
BRANCH 117 118
HETATM  118  N   UNK N   1      21.004   6.752  -1.281  0.00  0.00    -0.430 N 
HETATM  119  H   UNK N   1      20.011   6.676  -1.059  0.00  0.00     0.149 HD
HETATM  120  H   UNK N   1      21.445   7.669  -1.199  0.00  0.00     0.149 HD
ENDBRANCH 117 118
ENDBRANCH 116 117
ENDBRANCH 115 116
ENDBRANCH  32 115
BRANCH   8 121
HETATM  121  C   UNK N   1      31.495  15.770   4.388  0.00  0.00     0.023 C 
HETATM  122  C   UNK N   1      31.724  16.774   3.283  0.00  0.00     0.013 C 
BRANCH 121 123
HETATM  123  C   UNK N   1      30.523  16.318   5.429  0.00  0.00     0.116 C 
BRANCH 123 124
HETATM  124  C   UNK N   1      31.200  16.561   6.737  0.00  0.00     0.139 C 
HETATM  125  O   UNK N   1      30.706  17.327   7.547  0.00  0.00    -0.650 OA
BRANCH 124 126
HETATM  126  O   UNK N   1      32.334  15.903   7.040  0.00  0.00    -0.776 OA
HETATM  127  H   UNK N   1      32.619  15.130   7.487  0.00  0.00     0.167 HD
ENDBRANCH 124 126
ENDBRANCH 123 124
ENDBRANCH 121 123
ENDBRANCH   8 121
BRANCH  29 128
HETATM  128  C   UNK N   1      28.091   5.388   2.478  0.00  0.00     0.144 C 
BRANCH 128 129
HETATM  129  C   UNK N   1      27.757   4.167   3.275  0.00  0.00     0.141 C 
HETATM  130  O   UNK N   1      28.497   3.197   3.253  0.00  0.00    -0.650 OA
BRANCH 129 131
HETATM  131  O   UNK N   1      26.624   4.128   3.998  0.00  0.00    -0.776 OA
HETATM  132  H   UNK N   1      25.751   3.788   4.028  0.00  0.00     0.167 HD
ENDBRANCH 129 131
ENDBRANCH 128 129
ENDBRANCH  29 128
BRANCH  11 133
HETATM  133  C   UNK N   1      35.082  14.189   4.320  0.00  0.00     0.199 C 
BRANCH 133 134
HETATM  134  O   UNK N   1      34.687  14.903   5.450  0.00  0.00    -0.398 OA
HETATM  135  H   UNK N   1      35.224  15.148   6.219  0.00  0.00     0.209 HD
ENDBRANCH 133 134
ENDBRANCH  11 133
BRANCH  20 136
HETATM  136  C   UNK N   1      30.306  10.339  -0.102  0.00  0.00     0.144 C 
BRANCH 136 137
HETATM  137  C   UNK N   1      30.445  11.824  -0.258  0.00  0.00     0.141 C 
HETATM  138  O   UNK N   1      31.142  12.293  -1.141  0.00  0.00    -0.650 OA
BRANCH 137 139
HETATM  139  O   UNK N   1      29.741  12.644   0.544  0.00  0.00    -0.776 OA
HETATM  140  H   UNK N   1      29.216  12.329   1.254  0.00  0.00     0.167 HD
ENDBRANCH 137 139
ENDBRANCH 136 137
ENDBRANCH  20 136
TORSDOF 42
ENDMDL
MODEL 6
REMARK VINA RESULT:      -7.0      2.421      7.775
REMARK WARNING: 32 MAX_TORS EXCEEDED!!!
REMARK  42 active torsions:
REMARK  status: ('A' for Active; 'I' for Inactive)
REMARK    1  A    between atoms: C_5  and  C_3 
REMARK    2  A    between atoms: C_96  and  C_5 
REMARK    3  A    between atoms: C_10  and  C_7 
REMARK    4  A    between atoms: O_14  and  C_7 
REMARK    5  A    between atoms: C_12  and  C_10 
REMARK    6  A    between atoms: C_13  and  C_12 
REMARK    7  A    between atoms: C_21  and  C_18 
REMARK    8  A    between atoms: O_22  and  C_21 
REMARK    9  A    between atoms: C_32  and  O_27 
REMARK   10  A    between atoms: C_34  and  C_31 
REMARK   11  A    between atoms: C_34  and  C_32 
REMARK   12  A    between atoms: C_45  and  O_40 
REMARK   13  A    between atoms: C_47  and  C_44 
REMARK   14  A    between atoms: C_47  and  C_45 
REMARK   15  A    between atoms: C_50  and  C_48 
REMARK   16  A    between atoms: C_51  and  C_48 
REMARK   17  A    between atoms: C_53  and  C_50 
REMARK   18  A    between atoms: N_54  and  C_53 
REMARK   19  A    between atoms: C_60  and  N_64 
REMARK       I    between atoms: C_72  and  N_64 
REMARK   20  A    between atoms: C_71  and  O_66 
REMARK   21  A    between atoms: C_70  and  N_67 
REMARK       I    between atoms: C_75  and  N_67 
REMARK   22  A    between atoms: C_72  and  C_70 
REMARK   23  A    between atoms: C_73  and  C_70 
REMARK   24  A    between atoms: C_73  and  C_71 
REMARK   25  A    between atoms: C_76  and  C_74 
REMARK   26  A    between atoms: C_77  and  C_74 
REMARK   27  A    between atoms: C_77  and  C_75 
REMARK       I    between atoms: N_80  and  C_76 
REMARK   28  A    between atoms: C_77  and  N_81 
REMARK       I    between atoms: C_82  and  N_81 
REMARK   29  A    between atoms: C_84  and  C_82 
REMARK   30  A    between atoms: C_85  and  C_84 
REMARK   31  A    between atoms: C_84  and  N_86 
REMARK   32  A    between atoms: C_98  and  C_85 
REMARK       I    between atoms: C_87  and  N_86 
REMARK   33  A    between atoms: C_88  and  C_87 
REMARK   34  A    between atoms: C_108  and  C_88 
REMARK   35  A    between atoms: C_96  and  C_89 
REMARK   36  A    between atoms: N_95  and  C_90 
REMARK   37  A    between atoms: C_109  and  C_108 
REMARK   38  A    between atoms: C_110  and  C_109 
REMARK   39  A    between atoms: C_111  and  C_110 
REMARK   40  A    between atoms: C_112  and  C_111 
REMARK   41  A    between atoms: C_113  and  C_112 
REMARK   42  A    between atoms: C_114  and  C_113 
ROOT
HETATM    1  C   UNK N   1      23.928  11.175   4.745  0.00  0.00     0.282 C 
HETATM    2  O   UNK N   1      22.854  11.292   5.315  0.00  0.00    -0.263 OA
HETATM    3  C   UNK N   1      24.597   9.821   4.726  0.00  0.00     0.191 C 
HETATM    4  N   UNK N   1      23.893   8.931   5.627  0.00  0.00    -0.345 N 
HETATM    5  O   UNK N   1      24.476  12.280   4.159  0.00  0.00    -0.312 OA
HETATM    6  C   UNK N   1      23.602   7.627   5.396  0.00  0.00     0.241 C 
HETATM    7  O   UNK N   1      22.972   7.020   6.247  0.00  0.00    -0.271 OA
HETATM    8  C   UNK N   1      24.092   6.886   4.161  0.00  0.00     0.180 C 
HETATM    9  N   UNK N   1      23.269   6.991   2.975  0.00  0.00    -0.346 N 
HETATM   10  C   UNK N   1      21.972   6.609   2.862  0.00  0.00     0.243 C 
HETATM   11  C   UNK N   1      21.121   6.299   4.078  0.00  0.00     0.200 C 
HETATM   12  O   UNK N   1      21.515   6.451   1.743  0.00  0.00    -0.271 OA
HETATM   13  N   UNK N   1      19.986   7.175   4.367  0.00  0.00    -0.344 N 
HETATM   14  C   UNK N   1      19.231   7.942   3.529  0.00  0.00     0.236 C 
HETATM   15  O   UNK N   1      18.285   8.558   3.990  0.00  0.00    -0.272 OA
HETATM   16  N   UNK N   1      20.157   9.177   1.533  0.00  0.00    -0.351 N 
HETATM   17  C   UNK N   1      19.461   8.001   2.046  0.00  0.00     0.225 C 
HETATM   18  N   UNK N   1      20.438  12.736   1.879  0.00  0.00    -0.346 N 
HETATM   19  O   UNK N   1      20.085  10.500   3.347  0.00  0.00    -0.271 OA
HETATM   20  C   UNK N   1      21.018  11.489   1.409  0.00  0.00     0.186 C 
HETATM   21  C   UNK N   1      20.442  10.332   2.190  0.00  0.00     0.241 C 
HETATM   22  C   UNK N   1      20.837  13.335   3.031  0.00  0.00     0.240 C 
HETATM   23  O   UNK N   1      21.811  12.927   3.630  0.00  0.00    -0.271 OA
HETATM   24  C   UNK N   1      20.081  14.477   3.606  0.00  0.00     0.172 C 
HETATM   25  N   UNK N   1      20.050  15.572   2.678  0.00  0.00    -0.346 N 
HETATM   26  C   UNK N   1      18.674  14.057   3.986  0.00  0.00     0.042 C 
HETATM   27  N   UNK N   1      22.144  18.260   4.018  0.00  0.00    -0.346 N 
HETATM   28  O   UNK N   1      20.756  17.495   1.851  0.00  0.00    -0.271 OA
HETATM   29  C   UNK N   1      21.974  16.853   3.772  0.00  0.00     0.186 C 
HETATM   30  C   UNK N   1      20.870  16.656   2.730  0.00  0.00     0.241 C 
HETATM   31  C   UNK N   1      23.337  18.902   3.993  0.00  0.00     0.241 C 
HETATM   32  C   UNK N   1      24.663  18.163   3.875  0.00  0.00     0.176 C 
HETATM   33  N   UNK N   1      24.955  17.442   5.112  0.00  0.00    -0.346 N 
HETATM   34  O   UNK N   1      23.333  20.121   4.063  0.00  0.00    -0.271 OA
HETATM   35  C   UNK N   1      26.155  16.841   5.346  0.00  0.00     0.236 C 
HETATM   36  O   UNK N   1      27.055  16.931   4.525  0.00  0.00    -0.272 OA
HETATM   37  N   UNK N   1      25.933  14.925   6.980  0.00  0.00    -0.350 N 
HETATM   38  C   UNK N   1      26.475  16.239   6.679  0.00  0.00     0.225 C 
HETATM   39  C   UNK N   1      26.216  13.824   4.697  0.00  0.00     0.205 C 
HETATM   40  C   UNK N   1      25.915  13.806   6.198  0.00  0.00     0.243 C 
HETATM   41  O   UNK N   1      25.568  12.755   6.713  0.00  0.00    -0.271 OA
HETATM   42  C   UNK N   1      25.826  12.512   3.971  0.00  0.00     0.159 C 
HETATM   43  C   UNK N   1      26.118  12.595   2.481  0.00  0.00     0.042 C 
HETATM   44  H   UNK N   1      23.599   9.308   6.487  0.00  0.00     0.163 HD
HETATM   45  H   UNK N   1      23.691   7.376   2.173  0.00  0.00     0.163 HD
HETATM   46  H   UNK N   1      19.727   7.220   5.316  0.00  0.00     0.163 HD
HETATM   47  H   UNK N   1      20.457   9.128   0.596  0.00  0.00     0.163 HD
HETATM   48  H   UNK N   1      19.730  13.162   1.343  0.00  0.00     0.163 HD
HETATM   49  H   UNK N   1      19.387  15.534   1.952  0.00  0.00     0.163 HD
HETATM   50  H   UNK N   1      21.340  18.792   4.218  0.00  0.00     0.163 HD
HETATM   51  H   UNK N   1      24.257  17.388   5.804  0.00  0.00     0.163 HD
HETATM   52  H   UNK N   1      25.523  14.828   7.870  0.00  0.00     0.163 HD
ENDROOT
BRANCH  39  53
HETATM   53  N   UNK N   1      27.536  14.269   4.290  0.00  0.00    -0.344 N 
HETATM   54  C   UNK N   1      28.738  13.756   4.634  0.00  0.00     0.241 C 
HETATM   55  O   UNK N   1      28.832  12.744   5.312  0.00  0.00    -0.271 OA
HETATM   56  H   UNK N   1      27.559  15.046   3.684  0.00  0.00     0.163 HD
BRANCH  54  57
HETATM   57  C   UNK N   1      29.965  14.409   4.081  0.00  0.00     0.186 C 
BRANCH  57  58
HETATM   58  N   UNK N   1      30.731  14.926   5.179  0.00  0.00    -0.345 N 
HETATM   59  C   UNK N   1      32.066  14.687   5.299  0.00  0.00     0.241 C 
HETATM   60  O   UNK N   1      32.685  14.146   4.393  0.00  0.00    -0.271 OA
HETATM   61  H   UNK N   1      30.278  15.467   5.865  0.00  0.00     0.163 HD
BRANCH  59  62
HETATM   62  C   UNK N   1      32.783  15.071   6.562  0.00  0.00     0.185 C 
BRANCH  62  63
HETATM   63  C   UNK N   1      33.869  16.146   6.382  0.00  0.00     0.137 C 
BRANCH  63  64
HETATM   64  C   UNK N   1      33.755  17.343   7.272  0.00  0.00     0.217 C 
HETATM   65  O   UNK N   1      34.560  18.256   7.188  0.00  0.00    -0.274 OA
HETATM   66  N   UNK N   1      32.745  17.417   8.159  0.00  0.00    -0.370 N 
HETATM   67  H   UNK N   1      32.549  17.297   9.116  0.00  0.00     0.159 HD
HETATM   68  H   UNK N   1      31.921  17.683   7.690  0.00  0.00     0.159 HD
ENDBRANCH  63  64
ENDBRANCH  62  63
BRANCH  62  69
HETATM   69  N   UNK N   1      33.220  13.897   7.295  0.00  0.00    -0.346 N 
HETATM   70  C   UNK N   1      33.210  13.745   8.650  0.00  0.00     0.241 C 
HETATM   71  O   UNK N   1      32.714  14.591   9.376  0.00  0.00    -0.271 OA
HETATM   72  H   UNK N   1      33.556  13.139   6.764  0.00  0.00     0.163 HD
BRANCH  70  73
HETATM   73  C   UNK N   1      34.039  12.666   9.272  0.00  0.00     0.180 C 
BRANCH  73  74
HETATM   74  C   UNK N   1      35.510  13.066   9.222  0.00  0.00     0.075 C 
BRANCH  74  75
HETATM   75  C   UNK N   1      36.303  12.410  10.291  0.00  0.00    -0.028 A 
HETATM   76  C   UNK N   1      37.186  11.344  10.144  0.00  0.00     0.096 A 
HETATM   77  N   UNK N   1      37.728  11.037  11.347  0.00  0.00    -0.365 N 
HETATM   78  C   UNK N   1      37.191  11.904  12.234  0.00  0.00     0.042 A 
HETATM   79  H   UNK N   1      38.382  10.325  11.536  0.00  0.00     0.165 HD
HETATM   80  C   UNK N   1      36.322  12.750  11.613  0.00  0.00    -0.002 A 
HETATM   81  C   UNK N   1      37.450  11.975  13.595  0.00  0.00     0.030 A 
HETATM   82  C   UNK N   1      35.642  13.745  12.318  0.00  0.00     0.014 A 
HETATM   83  C   UNK N   1      35.875  13.845  13.701  0.00  0.00     0.001 A 
HETATM   84  C   UNK N   1      36.776  12.964  14.339  0.00  0.00     0.002 A 
ENDBRANCH  74  75
ENDBRANCH  73  74
BRANCH  73  85
HETATM   85  N   UNK N   1      33.810  11.318   8.778  0.00  0.00    -0.347 N 
HETATM   86  C   UNK N   1      33.489  10.223   9.515  0.00  0.00     0.218 C 
HETATM   87  O   UNK N   1      33.248   9.173   8.941  0.00  0.00    -0.274 OA
HETATM   88  H   UNK N   1      33.896  11.185   7.806  0.00  0.00     0.163 HD
BRANCH  86  89
HETATM   89  C   UNK N   1      33.439  10.256  11.013  0.00  0.00     0.103 C 
BRANCH  89  90
HETATM   90  C   UNK N   1      34.453   9.283  11.613  0.00  0.00     0.009 C 
BRANCH  90  91
HETATM   91  C   UNK N   1      34.695   9.561  13.095  0.00  0.00     0.000 C 
BRANCH  91  92
HETATM   92  C   UNK N   1      33.817  10.699  13.576  0.00  0.00     0.000 C 
BRANCH  92  93
HETATM   93  C   UNK N   1      33.888  10.810  15.087  0.00  0.00     0.000 C 
BRANCH  93  94
HETATM   94  C   UNK N   1      34.940   9.858  15.623  0.00  0.00     0.000 C 
BRANCH  94  95
HETATM   95  C   UNK N   1      35.820  10.534  16.658  0.00  0.00    -0.000 C 
BRANCH  95  96
HETATM   96  C   UNK N   1      34.975  11.190  17.733  0.00  0.00    -0.005 C 
HETATM   97  C   UNK N   1      35.312  12.666  17.810  0.00  0.00     0.005 C 
ENDBRANCH  95  96
ENDBRANCH  94  95
ENDBRANCH  93  94
ENDBRANCH  92  93
ENDBRANCH  91  92
ENDBRANCH  90  91
ENDBRANCH  89  90
ENDBRANCH  86  89
ENDBRANCH  73  85
ENDBRANCH  70  73
ENDBRANCH  62  69
ENDBRANCH  59  62
ENDBRANCH  57  58
BRANCH  57  98
HETATM   98  C   UNK N   1      29.722  15.476   2.997  0.00  0.00     0.144 C 
BRANCH  98  99
HETATM   99  C   UNK N   1      30.392  16.810   3.177  0.00  0.00     0.141 C 
HETATM  100  O   UNK N   1      30.102  17.530   4.119  0.00  0.00    -0.650 OA
BRANCH  99 101
HETATM  101  O   UNK N   1      31.358  17.187   2.318  0.00  0.00    -0.776 OA
HETATM  102  H   UNK N   1      31.182  17.652   1.524  0.00  0.00     0.167 HD
ENDBRANCH  99 101
ENDBRANCH  98  99
ENDBRANCH  57  98
ENDBRANCH  54  57
ENDBRANCH  39  53
BRANCH   3 103
HETATM  103  C   UNK N   1      26.013   9.976   5.205  0.00  0.00     0.119 C 
BRANCH 103 104
HETATM  104  C   UNK N   1      26.900   8.992   4.533  0.00  0.00     0.164 C 
HETATM  105  O   UNK N   1      27.200   7.959   5.113  0.00  0.00    -0.292 OA
BRANCH 104 106
HETATM  106  C   UNK N   1      27.351   9.259   3.155  0.00  0.00     0.036 A 
HETATM  107  C   UNK N   1      26.504   8.903   2.092  0.00  0.00     0.017 A 
HETATM  108  C   UNK N   1      26.891   9.112   0.771  0.00  0.00     0.001 A 
HETATM  109  C   UNK N   1      28.132   9.679   0.498  0.00  0.00     0.002 A 
HETATM  110  C   UNK N   1      28.980  10.044   1.545  0.00  0.00     0.030 A 
HETATM  111  C   UNK N   1      28.605   9.839   2.870  0.00  0.00     0.039 A 
BRANCH 111 112
HETATM  112  N   UNK N   1      29.493  10.222   3.899  0.00  0.00    -0.398 N 
HETATM  113  H   UNK N   1      30.123  10.245   4.655  0.00  0.00     0.156 HD
HETATM  114  H   UNK N   1      29.446  11.194   3.748  0.00  0.00     0.156 HD
ENDBRANCH 111 112
ENDBRANCH 104 106
ENDBRANCH 103 104
ENDBRANCH   3 103
BRANCH  32 115
HETATM  115  C   UNK N   1      25.799  19.146   3.520  0.00  0.00     0.036 C 
BRANCH 115 116
HETATM  116  C   UNK N   1      26.045  20.174   4.621  0.00  0.00     0.021 C 
BRANCH 116 117
HETATM  117  C   UNK N   1      27.520  20.501   4.714  0.00  0.00     0.111 C 
BRANCH 117 118
HETATM  118  N   UNK N   1      28.187  19.520   5.553  0.00  0.00    -0.430 N 
HETATM  119  H   UNK N   1      27.967  18.523   5.547  0.00  0.00     0.149 HD
HETATM  120  H   UNK N   1      28.918  19.846   6.185  0.00  0.00     0.149 HD
ENDBRANCH 117 118
ENDBRANCH 116 117
ENDBRANCH 115 116
ENDBRANCH  32 115
BRANCH   8 121
HETATM  121  C   UNK N   1      24.582   5.433   4.333  0.00  0.00     0.023 C 
HETATM  122  C   UNK N   1      25.300   4.908   3.113  0.00  0.00     0.013 C 
BRANCH 121 123
HETATM  123  C   UNK N   1      25.392   5.170   5.599  0.00  0.00     0.116 C 
BRANCH 123 124
HETATM  124  C   UNK N   1      24.770   4.104   6.437  0.00  0.00     0.139 C 
HETATM  125  O   UNK N   1      25.263   2.989   6.473  0.00  0.00    -0.650 OA
BRANCH 124 126
HETATM  126  O   UNK N   1      23.687   4.384   7.187  0.00  0.00    -0.776 OA
HETATM  127  H   UNK N   1      23.465   4.644   8.060  0.00  0.00     0.167 HD
ENDBRANCH 124 126
ENDBRANCH 123 124
ENDBRANCH 121 123
ENDBRANCH   8 121
BRANCH  29 128
HETATM  128  C   UNK N   1      21.795  16.142   5.108  0.00  0.00     0.144 C 
BRANCH 128 129
HETATM  129  C   UNK N   1      20.987  16.978   6.050  0.00  0.00     0.141 C 
HETATM  130  O   UNK N   1      21.532  17.815   6.751  0.00  0.00    -0.650 OA
BRANCH 129 131
HETATM  131  O   UNK N   1      19.659  16.789   6.144  0.00  0.00    -0.776 OA
HETATM  132  H   UNK N   1      18.993  16.168   6.364  0.00  0.00     0.167 HD
ENDBRANCH 129 131
ENDBRANCH 128 129
ENDBRANCH  29 128
BRANCH  11 133
HETATM  133  C   UNK N   1      20.709   4.840   4.197  0.00  0.00     0.199 C 
BRANCH 133 134
HETATM  134  O   UNK N   1      19.907   4.461   3.121  0.00  0.00    -0.398 OA
HETATM  135  H   UNK N   1      19.014   4.770   2.904  0.00  0.00     0.209 HD
ENDBRANCH 133 134
ENDBRANCH  11 133
BRANCH  20 136
HETATM  136  C   UNK N   1      22.554  11.571   1.285  0.00  0.00     0.144 C 
BRANCH 136 137
HETATM  137  C   UNK N   1      23.078  12.626   0.357  0.00  0.00     0.141 C 
HETATM  138  O   UNK N   1      23.612  12.317  -0.695  0.00  0.00    -0.650 OA
BRANCH 137 139
HETATM  139  O   UNK N   1      22.896  13.925   0.659  0.00  0.00    -0.776 OA
HETATM  140  H   UNK N   1      23.603  14.492   0.898  0.00  0.00     0.167 HD
ENDBRANCH 137 139
ENDBRANCH 136 137
ENDBRANCH  20 136
TORSDOF 42
ENDMDL
MODEL 7
REMARK VINA RESULT:      -7.0      3.847     11.444
REMARK WARNING: 32 MAX_TORS EXCEEDED!!!
REMARK  42 active torsions:
REMARK  status: ('A' for Active; 'I' for Inactive)
REMARK    1  A    between atoms: C_5  and  C_3 
REMARK    2  A    between atoms: C_96  and  C_5 
REMARK    3  A    between atoms: C_10  and  C_7 
REMARK    4  A    between atoms: O_14  and  C_7 
REMARK    5  A    between atoms: C_12  and  C_10 
REMARK    6  A    between atoms: C_13  and  C_12 
REMARK    7  A    between atoms: C_21  and  C_18 
REMARK    8  A    between atoms: O_22  and  C_21 
REMARK    9  A    between atoms: C_32  and  O_27 
REMARK   10  A    between atoms: C_34  and  C_31 
REMARK   11  A    between atoms: C_34  and  C_32 
REMARK   12  A    between atoms: C_45  and  O_40 
REMARK   13  A    between atoms: C_47  and  C_44 
REMARK   14  A    between atoms: C_47  and  C_45 
REMARK   15  A    between atoms: C_50  and  C_48 
REMARK   16  A    between atoms: C_51  and  C_48 
REMARK   17  A    between atoms: C_53  and  C_50 
REMARK   18  A    between atoms: N_54  and  C_53 
REMARK   19  A    between atoms: C_60  and  N_64 
REMARK       I    between atoms: C_72  and  N_64 
REMARK   20  A    between atoms: C_71  and  O_66 
REMARK   21  A    between atoms: C_70  and  N_67 
REMARK       I    between atoms: C_75  and  N_67 
REMARK   22  A    between atoms: C_72  and  C_70 
REMARK   23  A    between atoms: C_73  and  C_70 
REMARK   24  A    between atoms: C_73  and  C_71 
REMARK   25  A    between atoms: C_76  and  C_74 
REMARK   26  A    between atoms: C_77  and  C_74 
REMARK   27  A    between atoms: C_77  and  C_75 
REMARK       I    between atoms: N_80  and  C_76 
REMARK   28  A    between atoms: C_77  and  N_81 
REMARK       I    between atoms: C_82  and  N_81 
REMARK   29  A    between atoms: C_84  and  C_82 
REMARK   30  A    between atoms: C_85  and  C_84 
REMARK   31  A    between atoms: C_84  and  N_86 
REMARK   32  A    between atoms: C_98  and  C_85 
REMARK       I    between atoms: C_87  and  N_86 
REMARK   33  A    between atoms: C_88  and  C_87 
REMARK   34  A    between atoms: C_108  and  C_88 
REMARK   35  A    between atoms: C_96  and  C_89 
REMARK   36  A    between atoms: N_95  and  C_90 
REMARK   37  A    between atoms: C_109  and  C_108 
REMARK   38  A    between atoms: C_110  and  C_109 
REMARK   39  A    between atoms: C_111  and  C_110 
REMARK   40  A    between atoms: C_112  and  C_111 
REMARK   41  A    between atoms: C_113  and  C_112 
REMARK   42  A    between atoms: C_114  and  C_113 
ROOT
HETATM    1  C   UNK N   1      29.869  11.137   3.764  0.00  0.00     0.282 C 
HETATM    2  O   UNK N   1      30.461  10.430   4.565  0.00  0.00    -0.263 OA
HETATM    3  C   UNK N   1      29.855  12.631   3.985  0.00  0.00     0.191 C 
HETATM    4  N   UNK N   1      30.394  12.922   5.298  0.00  0.00    -0.345 N 
HETATM    5  O   UNK N   1      29.241  10.538   2.710  0.00  0.00    -0.312 OA
HETATM    6  C   UNK N   1      31.236  13.939   5.609  0.00  0.00     0.241 C 
HETATM    7  O   UNK N   1      31.626  14.029   6.761  0.00  0.00    -0.271 OA
HETATM    8  C   UNK N   1      31.645  14.999   4.597  0.00  0.00     0.180 C 
HETATM    9  N   UNK N   1      32.781  14.686   3.756  0.00  0.00    -0.346 N 
HETATM   10  C   UNK N   1      34.039  14.402   4.179  0.00  0.00     0.243 C 
HETATM   11  C   UNK N   1      34.341  14.075   5.628  0.00  0.00     0.200 C 
HETATM   12  O   UNK N   1      34.948  14.484   3.372  0.00  0.00    -0.271 OA
HETATM   13  N   UNK N   1      34.807  12.726   5.948  0.00  0.00    -0.344 N 
HETATM   14  C   UNK N   1      35.483  11.825   5.180  0.00  0.00     0.236 C 
HETATM   15  O   UNK N   1      35.823  10.766   5.681  0.00  0.00    -0.272 OA
HETATM   16  N   UNK N   1      35.092  11.508   2.708  0.00  0.00    -0.351 N 
HETATM   17  C   UNK N   1      35.901  12.106   3.765  0.00  0.00     0.225 C 
HETATM   18  N   UNK N   1      33.335   8.526   1.764  0.00  0.00    -0.346 N 
HETATM   19  O   UNK N   1      33.869  10.062   3.917  0.00  0.00    -0.271 OA
HETATM   20  C   UNK N   1      33.543   9.952   1.575  0.00  0.00     0.186 C 
HETATM   21  C   UNK N   1      34.132  10.552   2.828  0.00  0.00     0.241 C 
HETATM   22  C   UNK N   1      32.289   8.032   2.474  0.00  0.00     0.240 C 
HETATM   23  O   UNK N   1      31.396   8.766   2.844  0.00  0.00    -0.271 OA
HETATM   24  C   UNK N   1      32.220   6.595   2.846  0.00  0.00     0.172 C 
HETATM   25  N   UNK N   1      32.215   5.776   1.667  0.00  0.00    -0.346 N 
HETATM   26  C   UNK N   1      33.374   6.217   3.755  0.00  0.00     0.042 C 
HETATM   27  N   UNK N   1      28.891   4.276   1.340  0.00  0.00    -0.346 N 
HETATM   28  O   UNK N   1      31.242   4.584   0.081  0.00  0.00    -0.271 OA
HETATM   29  C   UNK N   1      29.680   5.442   1.633  0.00  0.00     0.186 C 
HETATM   30  C   UNK N   1      31.102   5.232   1.107  0.00  0.00     0.241 C 
HETATM   31  C   UNK N   1      27.676   4.305   0.741  0.00  0.00     0.241 C 
HETATM   32  C   UNK N   1      26.927   5.603   0.470  0.00  0.00     0.176 C 
HETATM   33  N   UNK N   1      26.443   6.182   1.722  0.00  0.00    -0.346 N 
HETATM   34  O   UNK N   1      27.177   3.243   0.405  0.00  0.00    -0.271 OA
HETATM   35  C   UNK N   1      25.595   7.247   1.759  0.00  0.00     0.236 C 
HETATM   36  O   UNK N   1      25.171   7.728   0.720  0.00  0.00    -0.272 OA
HETATM   37  N   UNK N   1      25.827   8.546   3.915  0.00  0.00    -0.350 N 
HETATM   38  C   UNK N   1      25.002   7.722   3.050  0.00  0.00     0.225 C 
HETATM   39  C   UNK N   1      26.990   9.972   2.150  0.00  0.00     0.205 C 
HETATM   40  C   UNK N   1      26.607   9.618   3.589  0.00  0.00     0.243 C 
HETATM   41  O   UNK N   1      27.080  10.278   4.500  0.00  0.00    -0.271 OA
HETATM   42  C   UNK N   1      28.125  11.022   2.050  0.00  0.00     0.159 C 
HETATM   43  C   UNK N   1      28.485  11.314   0.603  0.00  0.00     0.042 C 
HETATM   44  H   UNK N   1      30.124  12.326   6.033  0.00  0.00     0.163 HD
HETATM   45  H   UNK N   1      32.627  14.679   2.784  0.00  0.00     0.163 HD
HETATM   46  H   UNK N   1      34.599  12.421   6.861  0.00  0.00     0.163 HD
HETATM   47  H   UNK N   1      35.263  11.835   1.795  0.00  0.00     0.163 HD
HETATM   48  H   UNK N   1      33.977   7.896   1.362  0.00  0.00     0.163 HD
HETATM   49  H   UNK N   1      33.080   5.595   1.234  0.00  0.00     0.163 HD
HETATM   50  H   UNK N   1      29.258   3.398   1.592  0.00  0.00     0.163 HD
HETATM   51  H   UNK N   1      26.742   5.787   2.572  0.00  0.00     0.163 HD
HETATM   52  H   UNK N   1      25.823   8.298   4.869  0.00  0.00     0.163 HD
ENDROOT
BRANCH  39  53
HETATM   53  N   UNK N   1      25.909  10.290   1.234  0.00  0.00    -0.344 N 
HETATM   54  C   UNK N   1      25.023  11.308   1.303  0.00  0.00     0.241 C 
HETATM   55  O   UNK N   1      25.100  12.168   2.168  0.00  0.00    -0.271 OA
HETATM   56  H   UNK N   1      25.809   9.686   0.463  0.00  0.00     0.163 HD
BRANCH  54  57
HETATM   57  C   UNK N   1      23.988  11.413   0.228  0.00  0.00     0.186 C 
BRANCH  57  58
HETATM   58  N   UNK N   1      22.796  11.964   0.806  0.00  0.00    -0.345 N 
HETATM   59  C   UNK N   1      22.534  13.300   0.774  0.00  0.00     0.241 C 
HETATM   60  O   UNK N   1      23.239  14.057   0.121  0.00  0.00    -0.271 OA
HETATM   61  H   UNK N   1      22.150  11.360   1.237  0.00  0.00     0.163 HD
BRANCH  59  62
HETATM   62  C   UNK N   1      21.383  13.855   1.565  0.00  0.00     0.185 C 
BRANCH  62  63
HETATM   63  C   UNK N   1      20.609  14.986   0.867  0.00  0.00     0.137 C 
BRANCH  63  64
HETATM   64  C   UNK N   1      19.136  14.775   0.722  0.00  0.00     0.217 C 
HETATM   65  O   UNK N   1      18.575  13.878   1.329  0.00  0.00    -0.274 OA
HETATM   66  N   UNK N   1      18.423  15.596  -0.073  0.00  0.00    -0.370 N 
HETATM   67  H   UNK N   1      18.009  15.638  -0.965  0.00  0.00     0.159 HD
HETATM   68  H   UNK N   1      18.259  16.443   0.401  0.00  0.00     0.159 HD
ENDBRANCH  63  64
ENDBRANCH  62  63
BRANCH  62  69
HETATM   69  N   UNK N   1      21.781  14.156   2.928  0.00  0.00    -0.346 N 
HETATM   70  C   UNK N   1      21.799  13.280   3.973  0.00  0.00     0.241 C 
HETATM   71  O   UNK N   1      21.565  12.094   3.805  0.00  0.00    -0.271 OA
HETATM   72  H   UNK N   1      22.064  15.080   3.117  0.00  0.00     0.163 HD
BRANCH  70  73
HETATM   73  C   UNK N   1      21.848  13.808   5.372  0.00  0.00     0.180 C 
BRANCH  73  74
HETATM   74  C   UNK N   1      22.191  12.672   6.330  0.00  0.00     0.075 C 
BRANCH  74  75
HETATM   75  C   UNK N   1      23.336  13.013   7.211  0.00  0.00    -0.028 A 
HETATM   76  C   UNK N   1      24.430  13.812   6.892  0.00  0.00     0.096 A 
HETATM   77  N   UNK N   1      25.255  13.898   7.962  0.00  0.00    -0.365 N 
HETATM   78  C   UNK N   1      24.680  13.161   8.940  0.00  0.00     0.042 A 
HETATM   79  H   UNK N   1      26.102  14.396   8.017  0.00  0.00     0.165 HD
HETATM   80  C   UNK N   1      23.510  12.615   8.506  0.00  0.00    -0.002 A 
HETATM   81  C   UNK N   1      25.163  12.957  10.225  0.00  0.00     0.030 A 
HETATM   82  C   UNK N   1      22.724  11.815   9.338  0.00  0.00     0.014 A 
HETATM   83  C   UNK N   1      23.183  11.581  10.646  0.00  0.00     0.001 A 
HETATM   84  C   UNK N   1      24.397  12.149  11.089  0.00  0.00     0.002 A 
ENDBRANCH  74  75
ENDBRANCH  73  74
BRANCH  73  85
HETATM   85  N   UNK N   1      20.691  14.575   5.807  0.00  0.00    -0.347 N 
HETATM   86  C   UNK N   1      20.675  15.878   6.189  0.00  0.00     0.218 C 
HETATM   87  O   UNK N   1      19.604  16.404   6.451  0.00  0.00    -0.274 OA
HETATM   88  H   UNK N   1      19.829  14.099   5.825  0.00  0.00     0.163 HD
BRANCH  86  89
HETATM   89  C   UNK N   1      21.929  16.688   6.321  0.00  0.00     0.103 C 
BRANCH  89  90
HETATM   90  C   UNK N   1      21.778  18.043   5.630  0.00  0.00     0.009 C 
BRANCH  90  91
HETATM   91  C   UNK N   1      21.667  17.896   4.114  0.00  0.00     0.000 C 
BRANCH  91  92
HETATM   92  C   UNK N   1      21.975  19.210   3.425  0.00  0.00     0.000 C 
BRANCH  92  93
HETATM   93  C   UNK N   1      23.367  19.681   3.801  0.00  0.00     0.000 C 
BRANCH  93  94
HETATM   94  C   UNK N   1      23.949  20.514   2.675  0.00  0.00     0.000 C 
BRANCH  94  95
HETATM   95  C   UNK N   1      25.464  20.432   2.654  0.00  0.00    -0.000 C 
BRANCH  95  96
HETATM   96  C   UNK N   1      26.023  20.473   4.063  0.00  0.00    -0.005 C 
HETATM   97  C   UNK N   1      27.459  19.987   4.051  0.00  0.00     0.005 C 
ENDBRANCH  95  96
ENDBRANCH  94  95
ENDBRANCH  93  94
ENDBRANCH  92  93
ENDBRANCH  91  92
ENDBRANCH  90  91
ENDBRANCH  89  90
ENDBRANCH  86  89
ENDBRANCH  73  85
ENDBRANCH  70  73
ENDBRANCH  62  69
ENDBRANCH  59  62
ENDBRANCH  57  58
BRANCH  57  98
HETATM   98  C   UNK N   1      23.703  10.115  -0.552  0.00  0.00     0.144 C 
BRANCH  98  99
HETATM   99  C   UNK N   1      22.439   9.372  -0.217  0.00  0.00     0.141 C 
HETATM  100  O   UNK N   1      21.526   9.302  -1.025  0.00  0.00    -0.650 OA
BRANCH  99 101
HETATM  101  O   UNK N   1      22.338   8.736   0.965  0.00  0.00    -0.776 OA
HETATM  102  H   UNK N   1      21.595   8.821   1.529  0.00  0.00     0.167 HD
ENDBRANCH  99 101
ENDBRANCH  98  99
ENDBRANCH  57  98
ENDBRANCH  54  57
ENDBRANCH  39  53
BRANCH   3 103
HETATM  103  C   UNK N   1      28.432  13.113   3.928  0.00  0.00     0.119 C 
BRANCH 103 104
HETATM  104  C   UNK N   1      28.370  14.480   3.350  0.00  0.00     0.164 C 
HETATM  105  O   UNK N   1      29.189  14.814   2.506  0.00  0.00    -0.292 OA
BRANCH 104 106
HETATM  106  C   UNK N   1      27.284  15.386   3.769  0.00  0.00     0.036 A 
HETATM  107  C   UNK N   1      27.338  15.947   5.056  0.00  0.00     0.017 A 
HETATM  108  C   UNK N   1      26.327  16.789   5.509  0.00  0.00     0.001 A 
HETATM  109  C   UNK N   1      25.248  17.079   4.680  0.00  0.00     0.002 A 
HETATM  110  C   UNK N   1      25.186  16.534   3.396  0.00  0.00     0.030 A 
HETATM  111  C   UNK N   1      26.190  15.690   2.932  0.00  0.00     0.039 A 
BRANCH 111 112
HETATM  112  N   UNK N   1      26.088  15.159   1.627  0.00  0.00    -0.398 N 
HETATM  113  H   UNK N   1      25.801  14.910   0.718  0.00  0.00     0.156 HD
HETATM  114  H   UNK N   1      26.943  14.670   1.625  0.00  0.00     0.156 HD
ENDBRANCH 111 112
ENDBRANCH 104 106
ENDBRANCH 103 104
ENDBRANCH   3 103
BRANCH  32 115
HETATM  115  C   UNK N   1      25.766   5.361  -0.518  0.00  0.00     0.036 C 
BRANCH 115 116
HETATM  116  C   UNK N   1      26.192   5.545  -1.973  0.00  0.00     0.021 C 
BRANCH 116 117
HETATM  117  C   UNK N   1      25.297   6.556  -2.658  0.00  0.00     0.111 C 
BRANCH 117 118
HETATM  118  N   UNK N   1      25.761   7.901  -2.362  0.00  0.00    -0.430 N 
HETATM  119  H   UNK N   1      26.537   8.354  -2.847  0.00  0.00     0.149 HD
HETATM  120  H   UNK N   1      25.283   8.423  -1.628  0.00  0.00     0.149 HD
ENDBRANCH 117 118
ENDBRANCH 116 117
ENDBRANCH 115 116
ENDBRANCH  32 115
BRANCH   8 121
HETATM  121  C   UNK N   1      31.735  16.462   5.077  0.00  0.00     0.023 C 
HETATM  122  C   UNK N   1      32.418  17.366   4.078  0.00  0.00     0.013 C 
BRANCH 121 123
HETATM  123  C   UNK N   1      30.417  17.069   5.550  0.00  0.00     0.116 C 
BRANCH 123 124
HETATM  124  C   UNK N   1      30.398  17.253   7.031  0.00  0.00     0.139 C 
HETATM  125  O   UNK N   1      29.433  17.766   7.571  0.00  0.00    -0.650 OA
BRANCH 124 126
HETATM  126  O   UNK N   1      31.430  16.814   7.776  0.00  0.00    -0.776 OA
HETATM  127  H   UNK N   1      32.068  16.127   7.787  0.00  0.00     0.167 HD
ENDBRANCH 124 126
ENDBRANCH 123 124
ENDBRANCH 121 123
ENDBRANCH   8 121
BRANCH  29 128
HETATM  128  C   UNK N   1      29.536   5.769   3.116  0.00  0.00     0.144 C 
BRANCH 128 129
HETATM  129  C   UNK N   1      29.310   4.524   3.913  0.00  0.00     0.141 C 
HETATM  130  O   UNK N   1      30.234   3.755   4.128  0.00  0.00    -0.650 OA
BRANCH 129 131
HETATM  131  O   UNK N   1      28.080   4.235   4.373  0.00  0.00    -0.776 OA
HETATM  132  H   UNK N   1      27.580   4.046   5.143  0.00  0.00     0.167 HD
ENDBRANCH 129 131
ENDBRANCH 128 129
ENDBRANCH  29 128
BRANCH  11 133
HETATM  133  C   UNK N   1      35.193  15.114   6.339  0.00  0.00     0.199 C 
BRANCH 133 134
HETATM  134  O   UNK N   1      36.459  15.197   5.762  0.00  0.00    -0.398 OA
HETATM  135  H   UNK N   1      37.294  14.840   6.101  0.00  0.00     0.209 HD
ENDBRANCH 133 134
ENDBRANCH  11 133
BRANCH  20 136
HETATM  136  C   UNK N   1      32.306  10.645   0.965  0.00  0.00     0.144 C 
BRANCH 136 137
HETATM  137  C   UNK N   1      32.552  11.987   0.343  0.00  0.00     0.141 C 
HETATM  138  O   UNK N   1      32.298  12.181  -0.834  0.00  0.00    -0.650 OA
BRANCH 137 139
HETATM  139  O   UNK N   1      32.994  13.002   1.107  0.00  0.00    -0.776 OA
HETATM  140  H   UNK N   1      32.592  13.849   1.104  0.00  0.00     0.167 HD
ENDBRANCH 137 139
ENDBRANCH 136 137
ENDBRANCH  20 136
TORSDOF 42
ENDMDL
MODEL 8
REMARK VINA RESULT:      -6.9      2.111      3.497
REMARK WARNING: 32 MAX_TORS EXCEEDED!!!
REMARK  42 active torsions:
REMARK  status: ('A' for Active; 'I' for Inactive)
REMARK    1  A    between atoms: C_5  and  C_3 
REMARK    2  A    between atoms: C_96  and  C_5 
REMARK    3  A    between atoms: C_10  and  C_7 
REMARK    4  A    between atoms: O_14  and  C_7 
REMARK    5  A    between atoms: C_12  and  C_10 
REMARK    6  A    between atoms: C_13  and  C_12 
REMARK    7  A    between atoms: C_21  and  C_18 
REMARK    8  A    between atoms: O_22  and  C_21 
REMARK    9  A    between atoms: C_32  and  O_27 
REMARK   10  A    between atoms: C_34  and  C_31 
REMARK   11  A    between atoms: C_34  and  C_32 
REMARK   12  A    between atoms: C_45  and  O_40 
REMARK   13  A    between atoms: C_47  and  C_44 
REMARK   14  A    between atoms: C_47  and  C_45 
REMARK   15  A    between atoms: C_50  and  C_48 
REMARK   16  A    between atoms: C_51  and  C_48 
REMARK   17  A    between atoms: C_53  and  C_50 
REMARK   18  A    between atoms: N_54  and  C_53 
REMARK   19  A    between atoms: C_60  and  N_64 
REMARK       I    between atoms: C_72  and  N_64 
REMARK   20  A    between atoms: C_71  and  O_66 
REMARK   21  A    between atoms: C_70  and  N_67 
REMARK       I    between atoms: C_75  and  N_67 
REMARK   22  A    between atoms: C_72  and  C_70 
REMARK   23  A    between atoms: C_73  and  C_70 
REMARK   24  A    between atoms: C_73  and  C_71 
REMARK   25  A    between atoms: C_76  and  C_74 
REMARK   26  A    between atoms: C_77  and  C_74 
REMARK   27  A    between atoms: C_77  and  C_75 
REMARK       I    between atoms: N_80  and  C_76 
REMARK   28  A    between atoms: C_77  and  N_81 
REMARK       I    between atoms: C_82  and  N_81 
REMARK   29  A    between atoms: C_84  and  C_82 
REMARK   30  A    between atoms: C_85  and  C_84 
REMARK   31  A    between atoms: C_84  and  N_86 
REMARK   32  A    between atoms: C_98  and  C_85 
REMARK       I    between atoms: C_87  and  N_86 
REMARK   33  A    between atoms: C_88  and  C_87 
REMARK   34  A    between atoms: C_108  and  C_88 
REMARK   35  A    between atoms: C_96  and  C_89 
REMARK   36  A    between atoms: N_95  and  C_90 
REMARK   37  A    between atoms: C_109  and  C_108 
REMARK   38  A    between atoms: C_110  and  C_109 
REMARK   39  A    between atoms: C_111  and  C_110 
REMARK   40  A    between atoms: C_112  and  C_111 
REMARK   41  A    between atoms: C_113  and  C_112 
REMARK   42  A    between atoms: C_114  and  C_113 
ROOT
HETATM    1  C   UNK N   1      25.500  13.284   3.182  0.00  0.00     0.282 C 
HETATM    2  O   UNK N   1      24.818  12.644   2.397  0.00  0.00    -0.263 OA
HETATM    3  C   UNK N   1      25.019  14.649   3.619  0.00  0.00     0.191 C 
HETATM    4  N   UNK N   1      23.887  15.036   2.802  0.00  0.00    -0.345 N 
HETATM    5  O   UNK N   1      26.671  12.737   3.621  0.00  0.00    -0.312 OA
HETATM    6  C   UNK N   1      22.762  15.656   3.238  0.00  0.00     0.241 C 
HETATM    7  O   UNK N   1      21.883  15.888   2.425  0.00  0.00    -0.271 OA
HETATM    8  C   UNK N   1      22.595  16.131   4.674  0.00  0.00     0.180 C 
HETATM    9  N   UNK N   1      22.093  15.160   5.622  0.00  0.00    -0.346 N 
HETATM   10  C   UNK N   1      20.905  14.509   5.550  0.00  0.00     0.243 C 
HETATM   11  C   UNK N   1      20.075  14.495   4.282  0.00  0.00     0.200 C 
HETATM   12  O   UNK N   1      20.476  13.982   6.563  0.00  0.00    -0.271 OA
HETATM   13  N   UNK N   1      19.887  13.219   3.594  0.00  0.00    -0.344 N 
HETATM   14  C   UNK N   1      19.898  11.946   4.085  0.00  0.00     0.236 C 
HETATM   15  O   UNK N   1      19.658  11.022   3.325  0.00  0.00    -0.272 OA
HETATM   16  N   UNK N   1      21.437  11.157   5.921  0.00  0.00    -0.351 N 
HETATM   17  C   UNK N   1      20.111  11.631   5.538  0.00  0.00     0.225 C 
HETATM   18  N   UNK N   1      24.144   9.037   4.900  0.00  0.00    -0.346 N 
HETATM   19  O   UNK N   1      22.308  10.738   3.893  0.00  0.00    -0.271 OA
HETATM   20  C   UNK N   1      23.679  10.137   5.727  0.00  0.00     0.186 C 
HETATM   21  C   UNK N   1      22.450  10.758   5.107  0.00  0.00     0.241 C 
HETATM   22  C   UNK N   1      24.842   9.234   3.752  0.00  0.00     0.240 C 
HETATM   23  O   UNK N   1      25.241  10.343   3.458  0.00  0.00    -0.271 OA
HETATM   24  C   UNK N   1      25.108   8.116   2.810  0.00  0.00     0.172 C 
HETATM   25  N   UNK N   1      25.864   7.086   3.463  0.00  0.00    -0.346 N 
HETATM   26  C   UNK N   1      23.812   7.560   2.253  0.00  0.00     0.042 C 
HETATM   27  N   UNK N   1      29.236   7.069   2.036  0.00  0.00    -0.346 N 
HETATM   28  O   UNK N   1      27.726   6.020   3.993  0.00  0.00    -0.271 OA
HETATM   29  C   UNK N   1      28.124   7.835   2.532  0.00  0.00     0.186 C 
HETATM   30  C   UNK N   1      27.209   6.920   3.350  0.00  0.00     0.241 C 
HETATM   31  C   UNK N   1      30.534   7.434   2.163  0.00  0.00     0.241 C 
HETATM   32  C   UNK N   1      30.954   8.797   2.698  0.00  0.00     0.176 C 
HETATM   33  N   UNK N   1      30.645   9.841   1.723  0.00  0.00    -0.346 N 
HETATM   34  O   UNK N   1      31.391   6.626   1.840  0.00  0.00    -0.271 OA
HETATM   35  C   UNK N   1      31.070  11.127   1.865  0.00  0.00     0.236 C 
HETATM   36  O   UNK N   1      31.777  11.437   2.812  0.00  0.00    -0.272 OA
HETATM   37  N   UNK N   1      29.552  12.749   0.659  0.00  0.00    -0.350 N 
HETATM   38  C   UNK N   1      30.864  12.137   0.779  0.00  0.00     0.225 C 
HETATM   39  C   UNK N   1      28.990  13.024   3.131  0.00  0.00     0.205 C 
HETATM   40  C   UNK N   1      28.755  13.267   1.638  0.00  0.00     0.243 C 
HETATM   41  O   UNK N   1      27.764  13.894   1.296  0.00  0.00    -0.271 OA
HETATM   42  C   UNK N   1      27.793  13.438   4.023  0.00  0.00     0.159 C 
HETATM   43  C   UNK N   1      28.068  13.148   5.490  0.00  0.00     0.042 C 
HETATM   44  H   UNK N   1      23.939  14.831   1.841  0.00  0.00     0.163 HD
HETATM   45  H   UNK N   1      22.668  14.952   6.394  0.00  0.00     0.163 HD
HETATM   46  H   UNK N   1      19.729  13.288   2.625  0.00  0.00     0.163 HD
HETATM   47  H   UNK N   1      21.621  11.121   6.888  0.00  0.00     0.163 HD
HETATM   48  H   UNK N   1      23.946   8.115   5.182  0.00  0.00     0.163 HD
HETATM   49  H   UNK N   1      25.372   6.452   4.033  0.00  0.00     0.163 HD
HETATM   50  H   UNK N   1      29.039   6.223   1.572  0.00  0.00     0.163 HD
HETATM   51  H   UNK N   1      30.108   9.606   0.932  0.00  0.00     0.163 HD
HETATM   52  H   UNK N   1      29.186  12.795  -0.255  0.00  0.00     0.163 HD
ENDROOT
BRANCH  39  53
HETATM   53  N   UNK N   1      30.243  13.497   3.692  0.00  0.00    -0.344 N 
HETATM   54  C   UNK N   1      30.698  14.766   3.775  0.00  0.00     0.241 C 
HETATM   55  O   UNK N   1      30.013  15.717   3.429  0.00  0.00    -0.271 OA
HETATM   56  H   UNK N   1      30.837  12.803   4.058  0.00  0.00     0.163 HD
BRANCH  54  57
HETATM   57  C   UNK N   1      32.040  14.992   4.396  0.00  0.00     0.186 C 
BRANCH  57  58
HETATM   58  N   UNK N   1      31.937  14.708   5.799  0.00  0.00    -0.345 N 
HETATM   59  C   UNK N   1      32.874  13.966   6.452  0.00  0.00     0.241 C 
HETATM   60  O   UNK N   1      33.912  13.641   5.892  0.00  0.00    -0.271 OA
HETATM   61  H   UNK N   1      31.169  15.060   6.303  0.00  0.00     0.163 HD
BRANCH  59  62
HETATM   62  C   UNK N   1      32.623  13.525   7.867  0.00  0.00     0.185 C 
BRANCH  62  63
HETATM   63  C   UNK N   1      32.422  14.672   8.871  0.00  0.00     0.137 C 
BRANCH  63  64
HETATM   64  C   UNK N   1      33.610  15.021   9.710  0.00  0.00     0.217 C 
HETATM   65  O   UNK N   1      34.640  15.421   9.191  0.00  0.00    -0.274 OA
HETATM   66  N   UNK N   1      33.534  14.907  11.049  0.00  0.00    -0.370 N 
HETATM   67  H   UNK N   1      33.799  14.315  11.790  0.00  0.00     0.159 HD
HETATM   68  H   UNK N   1      33.046  15.681  11.412  0.00  0.00     0.159 HD
ENDBRANCH  63  64
ENDBRANCH  62  63
BRANCH  62  69
HETATM   69  N   UNK N   1      33.592  12.528   8.284  0.00  0.00    -0.346 N 
HETATM   70  C   UNK N   1      33.328  11.407   9.014  0.00  0.00     0.241 C 
HETATM   71  O   UNK N   1      32.183  11.093   9.297  0.00  0.00    -0.271 OA
HETATM   72  H   UNK N   1      34.527  12.675   8.016  0.00  0.00     0.163 HD
BRANCH  70  73
HETATM   73  C   UNK N   1      34.454  10.693   9.695  0.00  0.00     0.180 C 
BRANCH  73  74
HETATM   74  C   UNK N   1      35.137  11.645  10.671  0.00  0.00     0.075 C 
BRANCH  74  75
HETATM   75  C   UNK N   1      34.717  11.400  12.074  0.00  0.00    -0.028 A 
HETATM   76  C   UNK N   1      33.864  10.398  12.530  0.00  0.00     0.096 A 
HETATM   77  N   UNK N   1      33.735  10.492  13.875  0.00  0.00    -0.365 N 
HETATM   78  C   UNK N   1      34.502  11.539  14.255  0.00  0.00     0.042 A 
HETATM   79  H   UNK N   1      33.192   9.913  14.458  0.00  0.00     0.165 HD
HETATM   80  C   UNK N   1      35.110  12.105  13.175  0.00  0.00    -0.002 A 
HETATM   81  C   UNK N   1      34.686  12.015  15.545  0.00  0.00     0.030 A 
HETATM   82  C   UNK N   1      35.962  13.204  13.309  0.00  0.00     0.014 A 
HETATM   83  C   UNK N   1      36.170  13.718  14.601  0.00  0.00     0.001 A 
HETATM   84  C   UNK N   1      35.535  13.126  15.716  0.00  0.00     0.002 A 
ENDBRANCH  74  75
ENDBRANCH  73  74
BRANCH  73  85
HETATM   85  N   UNK N   1      35.399  10.013   8.825  0.00  0.00    -0.347 N 
HETATM   86  C   UNK N   1      36.179   8.948   9.144  0.00  0.00     0.218 C 
HETATM   87  O   UNK N   1      36.866   8.436   8.275  0.00  0.00    -0.274 OA
HETATM   88  H   UNK N   1      35.483  10.361   7.907  0.00  0.00     0.163 HD
BRANCH  86  89
HETATM   89  C   UNK N   1      36.240   8.391  10.535  0.00  0.00     0.103 C 
BRANCH  89  90
HETATM   90  C   UNK N   1      37.487   8.887  11.266  0.00  0.00     0.009 C 
BRANCH  90  91
HETATM   91  C   UNK N   1      37.308   8.844  12.782  0.00  0.00     0.000 C 
BRANCH  91  92
HETATM   92  C   UNK N   1      38.245   9.824  13.459  0.00  0.00     0.000 C 
BRANCH  92  93
HETATM   93  C   UNK N   1      37.750  10.137  14.858  0.00  0.00     0.000 C 
BRANCH  93  94
HETATM   94  C   UNK N   1      37.951   8.930  15.755  0.00  0.00     0.000 C 
BRANCH  94  95
HETATM   95  C   UNK N   1      37.015   8.968  16.949  0.00  0.00    -0.000 C 
BRANCH  95  96
HETATM   96  C   UNK N   1      35.623   8.514  16.553  0.00  0.00    -0.005 C 
HETATM   97  C   UNK N   1      35.696   7.123  15.955  0.00  0.00     0.005 C 
ENDBRANCH  95  96
ENDBRANCH  94  95
ENDBRANCH  93  94
ENDBRANCH  92  93
ENDBRANCH  91  92
ENDBRANCH  90  91
ENDBRANCH  89  90
ENDBRANCH  86  89
ENDBRANCH  73  85
ENDBRANCH  70  73
ENDBRANCH  62  69
ENDBRANCH  59  62
ENDBRANCH  57  58
BRANCH  57  98
HETATM   98  C   UNK N   1      32.674  16.370   4.132  0.00  0.00     0.144 C 
BRANCH  98  99
HETATM   99  C   UNK N   1      32.875  17.277   5.316  0.00  0.00     0.141 C 
HETATM  100  O   UNK N   1      33.950  17.822   5.505  0.00  0.00    -0.650 OA
BRANCH  99 101
HETATM  101  O   UNK N   1      31.842  17.526   6.142  0.00  0.00    -0.776 OA
HETATM  102  H   UNK N   1      30.966  17.658   5.838  0.00  0.00     0.167 HD
ENDBRANCH  99 101
ENDBRANCH  98  99
ENDBRANCH  57  98
ENDBRANCH  54  57
ENDBRANCH  39  53
BRANCH   3 103
HETATM  103  C   UNK N   1      26.129  15.640   3.411  0.00  0.00     0.119 C 
BRANCH 103 104
HETATM  104  C   UNK N   1      26.239  16.550   4.579  0.00  0.00     0.164 C 
HETATM  105  O   UNK N   1      26.075  16.104   5.706  0.00  0.00    -0.292 OA
BRANCH 104 106
HETATM  106  C   UNK N   1      26.600  17.962   4.356  0.00  0.00     0.036 A 
HETATM  107  C   UNK N   1      25.705  18.778   3.642  0.00  0.00     0.017 A 
HETATM  108  C   UNK N   1      26.007  20.111   3.384  0.00  0.00     0.001 A 
HETATM  109  C   UNK N   1      27.211  20.645   3.835  0.00  0.00     0.002 A 
HETATM  110  C   UNK N   1      28.105  19.849   4.552  0.00  0.00     0.030 A 
HETATM  111  C   UNK N   1      27.814  18.513   4.816  0.00  0.00     0.039 A 
BRANCH 111 112
HETATM  112  N   UNK N   1      28.747  17.741   5.543  0.00  0.00    -0.398 N 
HETATM  113  H   UNK N   1      29.553  17.381   5.979  0.00  0.00     0.156 HD
HETATM  114  H   UNK N   1      28.127  17.030   5.824  0.00  0.00     0.156 HD
ENDBRANCH 111 112
ENDBRANCH 104 106
ENDBRANCH 103 104
ENDBRANCH   3 103
BRANCH  32 115
HETATM  115  C   UNK N   1      32.455   8.796   3.058  0.00  0.00     0.036 C 
BRANCH 115 116
HETATM  116  C   UNK N   1      32.705   8.399   4.511  0.00  0.00     0.021 C 
BRANCH 116 117
HETATM  117  C   UNK N   1      33.347   9.544   5.265  0.00  0.00     0.111 C 
BRANCH 117 118
HETATM  118  N   UNK N   1      34.065  10.401   4.337  0.00  0.00    -0.430 N 
HETATM  119  H   UNK N   1      34.891  10.107   3.815  0.00  0.00     0.149 HD
HETATM  120  H   UNK N   1      33.722  11.351   4.199  0.00  0.00     0.149 HD
ENDBRANCH 117 118
ENDBRANCH 116 117
ENDBRANCH 115 116
ENDBRANCH  32 115
BRANCH   8 121
HETATM  121  C   UNK N   1      21.917  17.496   4.912  0.00  0.00     0.023 C 
HETATM  122  C   UNK N   1      21.836  17.864   6.375  0.00  0.00     0.013 C 
BRANCH 121 123
HETATM  123  C   UNK N   1      22.482  18.650   4.089  0.00  0.00     0.116 C 
BRANCH 123 124
HETATM  124  C   UNK N   1      21.414  19.341   3.307  0.00  0.00     0.139 C 
HETATM  125  O   UNK N   1      21.288  20.551   3.382  0.00  0.00    -0.650 OA
BRANCH 124 126
HETATM  126  O   UNK N   1      20.617  18.632   2.486  0.00  0.00    -0.776 OA
HETATM  127  H   UNK N   1      19.758  18.666   2.112  0.00  0.00     0.167 HD
ENDBRANCH 124 126
ENDBRANCH 123 124
ENDBRANCH 121 123
ENDBRANCH   8 121
BRANCH  29 128
HETATM  128  C   UNK N   1      27.487   8.584   1.367  0.00  0.00     0.144 C 
BRANCH 128 129
HETATM  129  C   UNK N   1      27.919   7.996   0.061  0.00  0.00     0.141 C 
HETATM  130  O   UNK N   1      27.407   6.967  -0.350  0.00  0.00    -0.650 OA
BRANCH 129 131
HETATM  131  O   UNK N   1      28.894   8.588  -0.652  0.00  0.00    -0.776 OA
HETATM  132  H   UNK N   1      29.566   9.240  -0.626  0.00  0.00     0.167 HD
ENDBRANCH 129 131
ENDBRANCH 128 129
ENDBRANCH  29 128
BRANCH  11 133
HETATM  133  C   UNK N   1      18.754  15.239   4.392  0.00  0.00     0.199 C 
BRANCH 133 134
HETATM  134  O   UNK N   1      18.906  16.578   4.035  0.00  0.00    -0.398 OA
HETATM  135  H   UNK N   1      19.404  16.944   3.288  0.00  0.00     0.209 HD
ENDBRANCH 133 134
ENDBRANCH  11 133
BRANCH  20 136
HETATM  136  C   UNK N   1      24.827  11.085   6.136  0.00  0.00     0.144 C 
BRANCH 136 137
HETATM  137  C   UNK N   1      24.460  12.178   7.093  0.00  0.00     0.141 C 
HETATM  138  O   UNK N   1      24.856  13.318   6.916  0.00  0.00    -0.650 OA
BRANCH 137 139
HETATM  139  O   UNK N   1      23.631  11.911   8.119  0.00  0.00    -0.776 OA
HETATM  140  H   UNK N   1      22.885  11.350   8.033  0.00  0.00     0.167 HD
ENDBRANCH 137 139
ENDBRANCH 136 137
ENDBRANCH  20 136
TORSDOF 42
ENDMDL
MODEL 9
REMARK VINA RESULT:      -6.9      2.080      3.568
REMARK WARNING: 32 MAX_TORS EXCEEDED!!!
REMARK  42 active torsions:
REMARK  status: ('A' for Active; 'I' for Inactive)
REMARK    1  A    between atoms: C_5  and  C_3 
REMARK    2  A    between atoms: C_96  and  C_5 
REMARK    3  A    between atoms: C_10  and  C_7 
REMARK    4  A    between atoms: O_14  and  C_7 
REMARK    5  A    between atoms: C_12  and  C_10 
REMARK    6  A    between atoms: C_13  and  C_12 
REMARK    7  A    between atoms: C_21  and  C_18 
REMARK    8  A    between atoms: O_22  and  C_21 
REMARK    9  A    between atoms: C_32  and  O_27 
REMARK   10  A    between atoms: C_34  and  C_31 
REMARK   11  A    between atoms: C_34  and  C_32 
REMARK   12  A    between atoms: C_45  and  O_40 
REMARK   13  A    between atoms: C_47  and  C_44 
REMARK   14  A    between atoms: C_47  and  C_45 
REMARK   15  A    between atoms: C_50  and  C_48 
REMARK   16  A    between atoms: C_51  and  C_48 
REMARK   17  A    between atoms: C_53  and  C_50 
REMARK   18  A    between atoms: N_54  and  C_53 
REMARK   19  A    between atoms: C_60  and  N_64 
REMARK       I    between atoms: C_72  and  N_64 
REMARK   20  A    between atoms: C_71  and  O_66 
REMARK   21  A    between atoms: C_70  and  N_67 
REMARK       I    between atoms: C_75  and  N_67 
REMARK   22  A    between atoms: C_72  and  C_70 
REMARK   23  A    between atoms: C_73  and  C_70 
REMARK   24  A    between atoms: C_73  and  C_71 
REMARK   25  A    between atoms: C_76  and  C_74 
REMARK   26  A    between atoms: C_77  and  C_74 
REMARK   27  A    between atoms: C_77  and  C_75 
REMARK       I    between atoms: N_80  and  C_76 
REMARK   28  A    between atoms: C_77  and  N_81 
REMARK       I    between atoms: C_82  and  N_81 
REMARK   29  A    between atoms: C_84  and  C_82 
REMARK   30  A    between atoms: C_85  and  C_84 
REMARK   31  A    between atoms: C_84  and  N_86 
REMARK   32  A    between atoms: C_98  and  C_85 
REMARK       I    between atoms: C_87  and  N_86 
REMARK   33  A    between atoms: C_88  and  C_87 
REMARK   34  A    between atoms: C_108  and  C_88 
REMARK   35  A    between atoms: C_96  and  C_89 
REMARK   36  A    between atoms: N_95  and  C_90 
REMARK   37  A    between atoms: C_109  and  C_108 
REMARK   38  A    between atoms: C_110  and  C_109 
REMARK   39  A    between atoms: C_111  and  C_110 
REMARK   40  A    between atoms: C_112  and  C_111 
REMARK   41  A    between atoms: C_113  and  C_112 
REMARK   42  A    between atoms: C_114  and  C_113 
ROOT
HETATM    1  C   UNK N   1      25.577  13.404   3.224  0.00  0.00     0.282 C 
HETATM    2  O   UNK N   1      24.838  12.693   2.560  0.00  0.00    -0.263 OA
HETATM    3  C   UNK N   1      25.148  14.823   3.519  0.00  0.00     0.191 C 
HETATM    4  N   UNK N   1      23.978  15.140   2.726  0.00  0.00    -0.345 N 
HETATM    5  O   UNK N   1      26.761  12.883   3.659  0.00  0.00    -0.312 OA
HETATM    6  C   UNK N   1      22.893  15.836   3.146  0.00  0.00     0.241 C 
HETATM    7  O   UNK N   1      21.971  15.991   2.360  0.00  0.00    -0.271 OA
HETATM    8  C   UNK N   1      22.819  16.483   4.521  0.00  0.00     0.180 C 
HETATM    9  N   UNK N   1      22.354  15.644   5.605  0.00  0.00    -0.346 N 
HETATM   10  C   UNK N   1      21.152  15.020   5.679  0.00  0.00     0.243 C 
HETATM   11  C   UNK N   1      20.249  14.877   4.470  0.00  0.00     0.200 C 
HETATM   12  O   UNK N   1      20.774  14.630   6.770  0.00  0.00    -0.271 OA
HETATM   13  N   UNK N   1      19.997  13.533   3.952  0.00  0.00    -0.344 N 
HETATM   14  C   UNK N   1      20.012  12.328   4.591  0.00  0.00     0.236 C 
HETATM   15  O   UNK N   1      19.712  11.327   3.963  0.00  0.00    -0.272 OA
HETATM   16  N   UNK N   1      21.641  11.724   6.421  0.00  0.00    -0.351 N 
HETATM   17  C   UNK N   1      20.304  12.183   6.057  0.00  0.00     0.225 C 
HETATM   18  N   UNK N   1      24.243   9.428   5.513  0.00  0.00    -0.346 N 
HETATM   19  O   UNK N   1      22.384  11.044   4.412  0.00  0.00    -0.271 OA
HETATM   20  C   UNK N   1      23.848  10.631   6.226  0.00  0.00     0.186 C 
HETATM   21  C   UNK N   1      22.597  11.204   5.605  0.00  0.00     0.241 C 
HETATM   22  C   UNK N   1      24.877   9.469   4.312  0.00  0.00     0.240 C 
HETATM   23  O   UNK N   1      25.279  10.524   3.866  0.00  0.00    -0.271 OA
HETATM   24  C   UNK N   1      25.066   8.241   3.499  0.00  0.00     0.172 C 
HETATM   25  N   UNK N   1      25.839   7.276   4.228  0.00  0.00    -0.346 N 
HETATM   26  C   UNK N   1      23.730   7.655   3.086  0.00  0.00     0.042 C 
HETATM   27  N   UNK N   1      29.121   7.002   2.627  0.00  0.00    -0.346 N 
HETATM   28  O   UNK N   1      27.709   6.234   4.777  0.00  0.00    -0.271 OA
HETATM   29  C   UNK N   1      28.055   7.851   3.089  0.00  0.00     0.186 C 
HETATM   30  C   UNK N   1      27.172   7.064   4.061  0.00  0.00     0.241 C 
HETATM   31  C   UNK N   1      30.431   7.346   2.638  0.00  0.00     0.241 C 
HETATM   32  C   UNK N   1      30.908   8.752   2.979  0.00  0.00     0.176 C 
HETATM   33  N   UNK N   1      30.562   9.680   1.905  0.00  0.00    -0.346 N 
HETATM   34  O   UNK N   1      31.252   6.483   2.367  0.00  0.00    -0.271 OA
HETATM   35  C   UNK N   1      31.019  10.963   1.867  0.00  0.00     0.236 C 
HETATM   36  O   UNK N   1      31.786  11.365   2.729  0.00  0.00    -0.272 OA
HETATM   37  N   UNK N   1      29.463  12.467   0.561  0.00  0.00    -0.350 N 
HETATM   38  C   UNK N   1      30.769  11.841   0.681  0.00  0.00     0.225 C 
HETATM   39  C   UNK N   1      29.052  13.050   3.009  0.00  0.00     0.205 C 
HETATM   40  C   UNK N   1      28.735  13.119   1.513  0.00  0.00     0.243 C 
HETATM   41  O   UNK N   1      27.738  13.726   1.154  0.00  0.00    -0.271 OA
HETATM   42  C   UNK N   1      27.918  13.598   3.910  0.00  0.00     0.159 C 
HETATM   43  C   UNK N   1      28.272  13.477   5.384  0.00  0.00     0.042 C 
HETATM   44  H   UNK N   1      23.970  14.820   1.795  0.00  0.00     0.163 HD
HETATM   45  H   UNK N   1      22.970  15.515   6.363  0.00  0.00     0.163 HD
HETATM   46  H   UNK N   1      19.784  13.490   2.992  0.00  0.00     0.163 HD
HETATM   47  H   UNK N   1      21.881  11.799   7.373  0.00  0.00     0.163 HD
HETATM   48  H   UNK N   1      24.045   8.552   5.915  0.00  0.00     0.163 HD
HETATM   49  H   UNK N   1      25.370   6.728   4.897  0.00  0.00     0.163 HD
HETATM   50  H   UNK N   1      28.881   6.112   2.280  0.00  0.00     0.163 HD
HETATM   51  H   UNK N   1      29.975   9.367   1.180  0.00  0.00     0.163 HD
HETATM   52  H   UNK N   1      29.046  12.414  -0.330  0.00  0.00     0.163 HD
ENDROOT
BRANCH  39  53
HETATM   53  N   UNK N   1      30.344  13.554   3.438  0.00  0.00    -0.344 N 
HETATM   54  C   UNK N   1      30.903  14.757   3.182  0.00  0.00     0.241 C 
HETATM   55  O   UNK N   1      30.295  15.631   2.582  0.00  0.00    -0.271 OA
HETATM   56  H   UNK N   1      30.884  12.939   3.987  0.00  0.00     0.163 HD
BRANCH  54  57
HETATM   57  C   UNK N   1      32.264  15.033   3.737  0.00  0.00     0.186 C 
BRANCH  57  58
HETATM   58  N   UNK N   1      32.181  14.989   5.169  0.00  0.00    -0.345 N 
HETATM   59  C   UNK N   1      32.924  14.118   5.906  0.00  0.00     0.241 C 
HETATM   60  O   UNK N   1      33.798  13.444   5.377  0.00  0.00    -0.271 OA
HETATM   61  H   UNK N   1      31.569  15.606   5.631  0.00  0.00     0.163 HD
BRANCH  59  62
HETATM   62  C   UNK N   1      32.657  13.967   7.376  0.00  0.00     0.185 C 
BRANCH  62  63
HETATM   63  C   UNK N   1      31.606  14.937   7.941  0.00  0.00     0.137 C 
BRANCH  63  64
HETATM   64  C   UNK N   1      32.012  15.702   9.161  0.00  0.00     0.217 C 
HETATM   65  O   UNK N   1      32.733  16.682   9.067  0.00  0.00    -0.274 OA
HETATM   66  N   UNK N   1      31.562  15.313  10.368  0.00  0.00    -0.370 N 
HETATM   67  H   UNK N   1      31.844  14.828  11.177  0.00  0.00     0.159 HD
HETATM   68  H   UNK N   1      30.633  15.619  10.482  0.00  0.00     0.159 HD
ENDBRANCH  63  64
ENDBRANCH  62  63
BRANCH  62  69
HETATM   69  N   UNK N   1      33.895  13.921   8.132  0.00  0.00    -0.346 N 
HETATM   70  C   UNK N   1      34.216  13.009   9.095  0.00  0.00     0.241 C 
HETATM   71  O   UNK N   1      33.489  12.059   9.331  0.00  0.00    -0.271 OA
HETATM   72  H   UNK N   1      34.566  14.613   7.932  0.00  0.00     0.163 HD
BRANCH  70  73
HETATM   73  C   UNK N   1      35.331  13.311  10.047  0.00  0.00     0.180 C 
BRANCH  73  74
HETATM   74  C   UNK N   1      34.772  14.045  11.261  0.00  0.00     0.075 C 
BRANCH  74  75
HETATM   75  C   UNK N   1      35.422  13.610  12.523  0.00  0.00    -0.028 A 
HETATM   76  C   UNK N   1      36.438  14.268  13.211  0.00  0.00     0.096 A 
HETATM   77  N   UNK N   1      36.757  13.567  14.325  0.00  0.00    -0.365 N 
HETATM   78  C   UNK N   1      35.947  12.485  14.333  0.00  0.00     0.042 A 
HETATM   79  H   UNK N   1      37.441  13.800  14.994  0.00  0.00     0.165 HD
HETATM   80  C   UNK N   1      35.124  12.492  13.247  0.00  0.00    -0.002 A 
HETATM   81  C   UNK N   1      35.907  11.478  15.287  0.00  0.00     0.030 A 
HETATM   82  C   UNK N   1      34.187  11.478  13.033  0.00  0.00     0.014 A 
HETATM   83  C   UNK N   1      34.121  10.438  13.975  0.00  0.00     0.001 A 
HETATM   84  C   UNK N   1      34.977  10.436  15.099  0.00  0.00     0.002 A 
ENDBRANCH  74  75
ENDBRANCH  73  74
BRANCH  73  85
HETATM   85  N   UNK N   1      36.494  13.974   9.481  0.00  0.00    -0.347 N 
HETATM   86  C   UNK N   1      37.786  13.561   9.559  0.00  0.00     0.218 C 
HETATM   87  O   UNK N   1      38.644  14.187   8.959  0.00  0.00    -0.274 OA
HETATM   88  H   UNK N   1      36.328  14.810   8.987  0.00  0.00     0.163 HD
BRANCH  86  89
HETATM   89  C   UNK N   1      38.196  12.372  10.375  0.00  0.00     0.103 C 
BRANCH  89  90
HETATM   90  C   UNK N   1      37.896  11.072   9.631  0.00  0.00     0.009 C 
BRANCH  90  91
HETATM   91  C   UNK N   1      38.570   9.873  10.293  0.00  0.00     0.000 C 
BRANCH  91  92
HETATM   92  C   UNK N   1      38.209   9.801  11.764  0.00  0.00     0.000 C 
BRANCH  92  93
HETATM   93  C   UNK N   1      36.763   9.376  11.926  0.00  0.00     0.000 C 
BRANCH  93  94
HETATM   94  C   UNK N   1      36.621   7.902  11.600  0.00  0.00     0.000 C 
BRANCH  94  95
HETATM   95  C   UNK N   1      35.267   7.600  10.986  0.00  0.00    -0.000 C 
BRANCH  95  96
HETATM   96  C   UNK N   1      34.644   8.858  10.413  0.00  0.00    -0.005 C 
HETATM   97  C   UNK N   1      33.138   8.790  10.562  0.00  0.00     0.005 C 
ENDBRANCH  95  96
ENDBRANCH  94  95
ENDBRANCH  93  94
ENDBRANCH  92  93
ENDBRANCH  91  92
ENDBRANCH  90  91
ENDBRANCH  89  90
ENDBRANCH  86  89
ENDBRANCH  73  85
ENDBRANCH  70  73
ENDBRANCH  62  69
ENDBRANCH  59  62
ENDBRANCH  57  58
BRANCH  57  98
HETATM   98  C   UNK N   1      32.939  16.324   3.239  0.00  0.00     0.144 C 
BRANCH  98  99
HETATM   99  C   UNK N   1      32.755  17.565   4.068  0.00  0.00     0.141 C 
HETATM  100  O   UNK N   1      33.560  17.858   4.937  0.00  0.00    -0.650 OA
BRANCH  99 101
HETATM  101  O   UNK N   1      31.718  18.384   3.813  0.00  0.00    -0.776 OA
HETATM  102  H   UNK N   1      31.055  18.187   3.180  0.00  0.00     0.167 HD
ENDBRANCH  99 101
ENDBRANCH  98  99
ENDBRANCH  57  98
ENDBRANCH  54  57
ENDBRANCH  39  53
BRANCH   3 103
HETATM  103  C   UNK N   1      26.263  15.753   3.131  0.00  0.00     0.119 C 
BRANCH 103 104
HETATM  104  C   UNK N   1      26.246  16.968   3.985  0.00  0.00     0.164 C 
HETATM  105  O   UNK N   1      25.460  17.870   3.733  0.00  0.00    -0.292 OA
BRANCH 104 106
HETATM  106  C   UNK N   1      27.140  17.033   5.156  0.00  0.00     0.036 A 
HETATM  107  C   UNK N   1      26.643  16.618   6.403  0.00  0.00     0.017 A 
HETATM  108  C   UNK N   1      27.438  16.680   7.544  0.00  0.00     0.001 A 
HETATM  109  C   UNK N   1      28.740  17.161   7.451  0.00  0.00     0.002 A 
HETATM  110  C   UNK N   1      29.249  17.569   6.218  0.00  0.00     0.030 A 
HETATM  111  C   UNK N   1      28.464  17.513   5.069  0.00  0.00     0.039 A 
BRANCH 111 112
HETATM  112  N   UNK N   1      29.017  17.938   3.841  0.00  0.00    -0.398 N 
HETATM  113  H   UNK N   1      29.357  18.458   3.078  0.00  0.00     0.156 HD
HETATM  114  H   UNK N   1      29.197  17.043   3.471  0.00  0.00     0.156 HD
ENDBRANCH 111 112
ENDBRANCH 104 106
ENDBRANCH 103 104
ENDBRANCH   3 103
BRANCH  32 115
HETATM  115  C   UNK N   1      32.426   8.756   3.254  0.00  0.00     0.036 C 
BRANCH 115 116
HETATM  116  C   UNK N   1      32.752   8.556   4.731  0.00  0.00     0.021 C 
BRANCH 116 117
HETATM  117  C   UNK N   1      33.582   9.711   5.247  0.00  0.00     0.111 C 
BRANCH 117 118
HETATM  118  N   UNK N   1      32.771  10.550   6.112  0.00  0.00    -0.430 N 
HETATM  119  H   UNK N   1      32.028  10.195   6.715  0.00  0.00     0.149 HD
HETATM  120  H   UNK N   1      32.954  11.554   6.117  0.00  0.00     0.149 HD
ENDBRANCH 117 118
ENDBRANCH 116 117
ENDBRANCH 115 116
ENDBRANCH  32 115
BRANCH   8 121
HETATM  121  C   UNK N   1      22.181  17.883   4.630  0.00  0.00     0.023 C 
HETATM  122  C   UNK N   1      21.981  18.327   6.060  0.00  0.00     0.013 C 
BRANCH 121 123
HETATM  123  C   UNK N   1      22.869  18.972   3.812  0.00  0.00     0.116 C 
BRANCH 123 124
HETATM  124  C   UNK N   1      21.882  19.802   3.062  0.00  0.00     0.139 C 
HETATM  125  O   UNK N   1      20.772  19.360   2.818  0.00  0.00    -0.650 OA
BRANCH 124 126
HETATM  126  O   UNK N   1      22.201  21.057   2.692  0.00  0.00    -0.776 OA
HETATM  127  H   UNK N   1      22.448  21.877   3.072  0.00  0.00     0.167 HD
ENDBRANCH 124 126
ENDBRANCH 123 124
ENDBRANCH 121 123
ENDBRANCH   8 121
BRANCH  29 128
HETATM  128  C   UNK N   1      27.366   8.471   1.879  0.00  0.00     0.144 C 
BRANCH 128 129
HETATM  129  C   UNK N   1      27.712   7.723   0.631  0.00  0.00     0.141 C 
HETATM  130  O   UNK N   1      27.152   6.670   0.370  0.00  0.00    -0.650 OA
BRANCH 129 131
HETATM  131  O   UNK N   1      28.661   8.198  -0.194  0.00  0.00    -0.776 OA
HETATM  132  H   UNK N   1      28.844   8.452  -1.077  0.00  0.00     0.167 HD
ENDBRANCH 129 131
ENDBRANCH 128 129
ENDBRANCH  29 128
BRANCH  11 133
HETATM  133  C   UNK N   1      18.951  15.663   4.562  0.00  0.00     0.199 C 
BRANCH 133 134
HETATM  134  O   UNK N   1      19.028  16.840   3.820  0.00  0.00    -0.398 OA
HETATM  135  H   UNK N   1      19.274  17.725   4.129  0.00  0.00     0.209 HD
ENDBRANCH 133 134
ENDBRANCH  11 133
BRANCH  20 136
HETATM  136  C   UNK N   1      25.036  11.590   6.453  0.00  0.00     0.144 C 
BRANCH 136 137
HETATM  137  C   UNK N   1      24.756  12.779   7.323  0.00  0.00     0.141 C 
HETATM  138  O   UNK N   1      24.813  12.687   8.537  0.00  0.00    -0.650 OA
BRANCH 137 139
HETATM  139  O   UNK N   1      24.506  13.973   6.754  0.00  0.00    -0.776 OA
HETATM  140  H   UNK N   1      24.020  14.061   5.957  0.00  0.00     0.167 HD
ENDBRANCH 137 139
ENDBRANCH 136 137
ENDBRANCH  20 136
TORSDOF 42
ENDMDL
