MODEL 1
REMARK VINA RESULT:      -5.1      0.000      0.000
REMARK  4 active torsions:
REMARK  status: ('A' for Active; 'I' for Inactive)
REMARK    1  A    between atoms: C_2  and  N_11 
REMARK    2  A    between atoms: C_10  and  N_12 
REMARK    3  A    between atoms: N_11  and  C_13 
REMARK    4  A    between atoms: C_13  and  C_14 
ROOT
HETATM    1  C   UNK N   1      23.450  18.097   4.904  0.00  0.00     0.073 A 
HETATM    2  C   UNK N   1      24.663  18.994   4.659  0.00  0.00     0.081 A 
HETATM    3  C   UNK N   1      24.674  20.183   3.670  0.00  0.00     0.031 A 
HETATM    4  C   UNK N   1      23.393  20.479   2.889  0.00  0.00     0.060 A 
HETATM    5  C   UNK N   1      22.239  19.577   3.163  0.00  0.00     0.024 A 
HETATM    6  C   UNK N   1      22.283  18.510   4.073  0.00  0.00     0.011 A 
HETATM    7  S   UNK N   1      20.787  17.807   4.037  0.00  0.00    -0.057 SA
HETATM    8  N   UNK N   1      21.032  19.744   2.520  0.00  0.00    -0.340 N 
ATOM      9  HN  UNK N   1      20.845  20.474   1.833  1.00  0.00     0.168 HD
HETATM   10  C   UNK N   1      20.121  18.819   2.914  0.00  0.00     0.142 A 
ENDROOT
BRANCH   2  11
HETATM   11  N   UNK N   1      25.873  18.675   5.429  0.00  0.00    -0.417 N 
HETATM   12  H   UNK N   1      25.930  17.952   6.147  0.00  0.00     0.153 HD
BRANCH  11  13
HETATM   13  C   UNK N   1      26.982  19.535   5.028  0.00  0.00     0.113 C 
BRANCH  13  14
HETATM   14  C   UNK N   1      27.560  20.269   6.215  0.00  0.00     0.015 C 
HETATM   15  C   UNK N   1      26.865  21.611   6.332  0.00  0.00     0.006 C 
ENDBRANCH  13  14
ENDBRANCH  11  13
ENDBRANCH   2  11
BRANCH  10  16
HETATM   16  N   UNK N   1      18.804  18.754   2.420  0.00  0.00    -0.380 N 
HETATM   17  H   UNK N   1      18.050  19.021   2.993  0.00  0.00     0.158 HD
HETATM   18  H   UNK N   1      18.638  18.442   1.502  0.00  0.00     0.158 HD
ENDBRANCH  10  16
TORSDOF 4
ENDMDL
MODEL 2
REMARK VINA RESULT:      -5.0      5.704      9.072
REMARK  4 active torsions:
REMARK  status: ('A' for Active; 'I' for Inactive)
REMARK    1  A    between atoms: C_2  and  N_11 
REMARK    2  A    between atoms: C_10  and  N_12 
REMARK    3  A    between atoms: N_11  and  C_13 
REMARK    4  A    between atoms: C_13  and  C_14 
ROOT
HETATM    1  C   UNK N   1      29.372  17.573   6.430  0.00  0.00     0.073 A 
HETATM    2  C   UNK N   1      28.310  18.303   7.250  0.00  0.00     0.081 A 
HETATM    3  C   UNK N   1      28.471  18.671   8.744  0.00  0.00     0.031 A 
HETATM    4  C   UNK N   1      29.774  18.280   9.442  0.00  0.00     0.060 A 
HETATM    5  C   UNK N   1      30.778  17.570   8.600  0.00  0.00     0.024 A 
HETATM    6  C   UNK N   1      30.580  17.260   7.247  0.00  0.00     0.011 A 
HETATM    7  S   UNK N   1      31.949  16.482   6.742  0.00  0.00    -0.057 SA
HETATM    8  N   UNK N   1      31.990  17.167   9.118  0.00  0.00    -0.340 N 
ATOM      9  HN  UNK N   1      32.279  17.320  10.084  1.00  0.00     0.168 HD
HETATM   10  C   UNK N   1      32.751  16.542   8.186  0.00  0.00     0.142 A 
ENDROOT
BRANCH   2  11
HETATM   11  N   UNK N   1      27.073  18.661   6.541  0.00  0.00    -0.417 N 
HETATM   12  H   UNK N   1      26.142  18.332   6.797  0.00  0.00     0.153 HD
BRANCH  11  13
HETATM   13  C   UNK N   1      27.359  19.550   5.420  0.00  0.00     0.113 C 
BRANCH  13  14
HETATM   14  C   UNK N   1      27.618  20.960   5.895  0.00  0.00     0.015 C 
HETATM   15  C   UNK N   1      26.450  21.398   6.755  0.00  0.00     0.006 C 
ENDBRANCH  13  14
ENDBRANCH  11  13
ENDBRANCH   2  11
BRANCH  10  16
HETATM   16  N   UNK N   1      34.037  16.026   8.439  0.00  0.00    -0.380 N 
HETATM   17  H   UNK N   1      34.166  15.348   9.140  0.00  0.00     0.158 HD
HETATM   18  H   UNK N   1      34.807  16.345   7.914  0.00  0.00     0.158 HD
ENDBRANCH  10  16
TORSDOF 4
ENDMDL
MODEL 3
REMARK VINA RESULT:      -5.0      1.302      1.918
REMARK  4 active torsions:
REMARK  status: ('A' for Active; 'I' for Inactive)
REMARK    1  A    between atoms: C_2  and  N_11 
REMARK    2  A    between atoms: C_10  and  N_12 
REMARK    3  A    between atoms: N_11  and  C_13 
REMARK    4  A    between atoms: C_13  and  C_14 
ROOT
HETATM    1  C   UNK N   1      23.655  20.632   2.908  0.00  0.00     0.073 A 
HETATM    2  C   UNK N   1      24.710  19.911   3.745  0.00  0.00     0.081 A 
HETATM    3  C   UNK N   1      24.449  18.603   4.527  0.00  0.00     0.031 A 
HETATM    4  C   UNK N   1      23.048  17.993   4.459  0.00  0.00     0.060 A 
HETATM    5  C   UNK N   1      22.055  18.732   3.630  0.00  0.00     0.024 A 
HETATM    6  C   UNK N   1      22.346  19.918   2.939  0.00  0.00     0.011 A 
HETATM    7  S   UNK N   1      20.950  20.362   2.171  0.00  0.00    -0.057 SA
HETATM    8  N   UNK N   1      20.760  18.281   3.492  0.00  0.00    -0.340 N 
ATOM      9  HN  UNK N   1      20.399  17.435   3.933  1.00  0.00     0.168 HD
HETATM   10  C   UNK N   1      20.025  19.099   2.699  0.00  0.00     0.142 A 
ENDROOT
BRANCH   2  11
HETATM   11  N   UNK N   1      26.042  20.530   3.784  0.00  0.00    -0.417 N 
HETATM   12  H   UNK N   1      26.219  21.532   3.709  0.00  0.00     0.153 HD
BRANCH  11  13
HETATM   13  C   UNK N   1      27.079  19.516   3.945  0.00  0.00     0.113 C 
BRANCH  13  14
HETATM   14  C   UNK N   1      27.892  19.759   5.194  0.00  0.00     0.015 C 
HETATM   15  C   UNK N   1      27.465  21.085   5.792  0.00  0.00     0.006 C 
ENDBRANCH  13  14
ENDBRANCH  11  13
ENDBRANCH   2  11
BRANCH  10  16
HETATM   16  N   UNK N   1      18.670  18.880   2.386  0.00  0.00    -0.380 N 
HETATM   17  H   UNK N   1      18.329  17.961   2.289  0.00  0.00     0.158 HD
HETATM   18  H   UNK N   1      18.063  19.645   2.263  0.00  0.00     0.158 HD
ENDBRANCH  10  16
TORSDOF 4
ENDMDL
MODEL 4
REMARK VINA RESULT:      -4.9      6.263      9.877
REMARK  4 active torsions:
REMARK  status: ('A' for Active; 'I' for Inactive)
REMARK    1  A    between atoms: C_2  and  N_11 
REMARK    2  A    between atoms: C_10  and  N_12 
REMARK    3  A    between atoms: N_11  and  C_13 
REMARK    4  A    between atoms: C_13  and  C_14 
ROOT
HETATM    1  C   UNK N   1      30.374  17.227   6.137  0.00  0.00     0.073 A 
HETATM    2  C   UNK N   1      30.624  17.413   4.641  0.00  0.00     0.081 A 
HETATM    3  C   UNK N   1      32.025  17.597   4.014  0.00  0.00     0.031 A 
HETATM    4  C   UNK N   1      33.236  17.592   4.948  0.00  0.00     0.060 A 
HETATM    5  C   UNK N   1      32.941  17.407   6.397  0.00  0.00     0.024 A 
HETATM    6  C   UNK N   1      31.648  17.244   6.914  0.00  0.00     0.011 A 
HETATM    7  S   UNK N   1      31.818  17.076   8.550  0.00  0.00    -0.057 SA
HETATM    8  N   UNK N   1      33.950  17.385   7.335  0.00  0.00    -0.340 N 
ATOM      9  HN  UNK N   1      34.940  17.490   7.114  1.00  0.00     0.168 HD
HETATM   10  C   UNK N   1      33.465  17.206   8.589  0.00  0.00     0.142 A 
ENDROOT
BRANCH   2  11
HETATM   11  N   UNK N   1      29.434  17.412   3.779  0.00  0.00    -0.417 N 
HETATM   12  H   UNK N   1      29.441  17.207   2.780  0.00  0.00     0.153 HD
BRANCH  11  13
HETATM   13  C   UNK N   1      28.238  17.744   4.548  0.00  0.00     0.113 C 
BRANCH  13  14
HETATM   14  C   UNK N   1      27.571  18.988   4.010  0.00  0.00     0.015 C 
HETATM   15  C   UNK N   1      27.829  20.126   4.978  0.00  0.00     0.006 C 
ENDBRANCH  13  14
ENDBRANCH  11  13
ENDBRANCH   2  11
BRANCH  10  16
HETATM   16  N   UNK N   1      34.272  17.144   9.742  0.00  0.00    -0.380 N 
HETATM   17  H   UNK N   1      34.862  16.370   9.888  0.00  0.00     0.158 HD
HETATM   18  H   UNK N   1      34.245  17.875  10.401  0.00  0.00     0.158 HD
ENDBRANCH  10  16
TORSDOF 4
ENDMDL
MODEL 5
REMARK VINA RESULT:      -4.7      5.208      7.730
REMARK  4 active torsions:
REMARK  status: ('A' for Active; 'I' for Inactive)
REMARK    1  A    between atoms: C_2  and  N_11 
REMARK    2  A    between atoms: C_10  and  N_12 
REMARK    3  A    between atoms: N_11  and  C_13 
REMARK    4  A    between atoms: C_13  and  C_14 
ROOT
HETATM    1  C   UNK N   1      30.523  17.014   7.184  0.00  0.00     0.073 A 
HETATM    2  C   UNK N   1      30.569  17.118   8.708  0.00  0.00     0.081 A 
HETATM    3  C   UNK N   1      29.495  17.834   9.559  0.00  0.00     0.031 A 
HETATM    4  C   UNK N   1      28.314  18.477   8.831  0.00  0.00     0.060 A 
HETATM    5  C   UNK N   1      28.314  18.349   7.346  0.00  0.00     0.024 A 
HETATM    6  C   UNK N   1      29.317  17.687   6.623  0.00  0.00     0.011 A 
HETATM    7  S   UNK N   1      28.892  17.803   5.028  0.00  0.00    -0.057 SA
HETATM    8  N   UNK N   1      27.303  18.887   6.581  0.00  0.00    -0.340 N 
ATOM      9  HN  UNK N   1      26.505  19.397   6.962  1.00  0.00     0.168 HD
HETATM   10  C   UNK N   1      27.497  18.657   5.259  0.00  0.00     0.142 A 
ENDROOT
BRANCH   2  11
HETATM   11  N   UNK N   1      31.720  16.487   9.368  0.00  0.00    -0.417 N 
HETATM   12  H   UNK N   1      31.740  16.194  10.345  0.00  0.00     0.153 HD
BRANCH  11  13
HETATM   13  C   UNK N   1      32.832  16.335   8.434  0.00  0.00     0.113 C 
BRANCH  13  14
HETATM   14  C   UNK N   1      34.055  17.078   8.917  0.00  0.00     0.015 C 
HETATM   15  C   UNK N   1      34.222  18.326   8.073  0.00  0.00     0.006 C 
ENDBRANCH  13  14
ENDBRANCH  11  13
ENDBRANCH   2  11
BRANCH  10  16
HETATM   16  N   UNK N   1      26.619  19.094   4.248  0.00  0.00    -0.380 N 
HETATM   17  H   UNK N   1      25.647  19.066   4.395  0.00  0.00     0.158 HD
HETATM   18  H   UNK N   1      26.979  19.428   3.395  0.00  0.00     0.158 HD
ENDBRANCH  10  16
TORSDOF 4
ENDMDL
MODEL 6
REMARK VINA RESULT:      -4.6      8.416     12.059
REMARK  4 active torsions:
REMARK  status: ('A' for Active; 'I' for Inactive)
REMARK    1  A    between atoms: C_2  and  N_11 
REMARK    2  A    between atoms: C_10  and  N_12 
REMARK    3  A    between atoms: N_11  and  C_13 
REMARK    4  A    between atoms: C_13  and  C_14 
ROOT
HETATM    1  C   UNK N   1      32.242  15.318   8.603  0.00  0.00     0.073 A 
HETATM    2  C   UNK N   1      31.825  16.436   7.648  0.00  0.00     0.081 A 
HETATM    3  C   UNK N   1      32.575  17.782   7.512  0.00  0.00     0.031 A 
HETATM    4  C   UNK N   1      33.810  18.007   8.386  0.00  0.00     0.060 A 
HETATM    5  C   UNK N   1      34.175  16.888   9.300  0.00  0.00     0.024 A 
HETATM    6  C   UNK N   1      33.458  15.686   9.383  0.00  0.00     0.011 A 
HETATM    7  S   UNK N   1      34.231  14.762  10.518  0.00  0.00    -0.057 SA
HETATM    8  N   UNK N   1      35.268  16.975  10.135  0.00  0.00    -0.340 N 
ATOM      9  HN  UNK N   1      35.886  17.784  10.188  1.00  0.00     0.168 HD
HETATM   10  C   UNK N   1      35.420  15.851  10.879  0.00  0.00     0.142 A 
ENDROOT
BRANCH   2  11
HETATM   11  N   UNK N   1      30.634  16.179   6.827  0.00  0.00    -0.417 N 
HETATM   12  H   UNK N   1      30.430  15.294   6.363  0.00  0.00     0.153 HD
BRANCH  11  13
HETATM   13  C   UNK N   1      29.782  17.363   6.767  0.00  0.00     0.113 C 
BRANCH  13  14
HETATM   14  C   UNK N   1      28.686  17.300   7.804  0.00  0.00     0.015 C 
HETATM   15  C   UNK N   1      28.826  18.498   8.722  0.00  0.00     0.006 C 
ENDBRANCH  13  14
ENDBRANCH  11  13
ENDBRANCH   2  11
BRANCH  10  16
HETATM   16  N   UNK N   1      36.453  15.664  11.817  0.00  0.00    -0.380 N 
HETATM   17  H   UNK N   1      36.529  14.812  12.304  0.00  0.00     0.158 HD
HETATM   18  H   UNK N   1      37.101  16.387  11.986  0.00  0.00     0.158 HD
ENDBRANCH  10  16
TORSDOF 4
ENDMDL
MODEL 7
REMARK VINA RESULT:      -4.6     12.824     15.134
REMARK  4 active torsions:
REMARK  status: ('A' for Active; 'I' for Inactive)
REMARK    1  A    between atoms: C_2  and  N_11 
REMARK    2  A    between atoms: C_10  and  N_12 
REMARK    3  A    between atoms: N_11  and  C_13 
REMARK    4  A    between atoms: C_13  and  C_14 
ROOT
HETATM    1  C   UNK N   1      35.220  13.306  10.052  0.00  0.00     0.073 A 
HETATM    2  C   UNK N   1      35.582  12.887  11.476  0.00  0.00     0.081 A 
HETATM    3  C   UNK N   1      35.792  13.878  12.643  0.00  0.00     0.031 A 
HETATM    4  C   UNK N   1      35.628  15.371  12.355  0.00  0.00     0.060 A 
HETATM    5  C   UNK N   1      35.275  15.730  10.952  0.00  0.00     0.024 A 
HETATM    6  C   UNK N   1      35.095  14.787   9.929  0.00  0.00     0.011 A 
HETATM    7  S   UNK N   1      34.719  15.646   8.566  0.00  0.00    -0.057 SA
HETATM    8  N   UNK N   1      35.101  17.043  10.571  0.00  0.00    -0.340 N 
ATOM      9  HN  UNK N   1      35.197  17.840  11.201  1.00  0.00     0.168 HD
HETATM   10  C   UNK N   1      34.785  17.146   9.256  0.00  0.00     0.142 A 
ENDROOT
BRANCH   2  11
HETATM   11  N   UNK N   1      35.730  11.444  11.709  0.00  0.00    -0.417 N 
HETATM   12  H   UNK N   1      35.997  10.764  10.996  0.00  0.00     0.153 HD
BRANCH  11  13
HETATM   13  C   UNK N   1      35.442  11.113  13.102  0.00  0.00     0.113 C 
BRANCH  13  14
HETATM   14  C   UNK N   1      34.035  10.586  13.258  0.00  0.00     0.015 C 
HETATM   15  C   UNK N   1      33.614  10.766  14.703  0.00  0.00     0.006 C 
ENDBRANCH  13  14
ENDBRANCH  11  13
ENDBRANCH   2  11
BRANCH  10  16
HETATM   16  N   UNK N   1      34.551  18.369   8.599  0.00  0.00    -0.380 N 
HETATM   17  H   UNK N   1      34.982  19.192   8.923  0.00  0.00     0.158 HD
HETATM   18  H   UNK N   1      33.957  18.400   7.814  0.00  0.00     0.158 HD
ENDBRANCH  10  16
TORSDOF 4
ENDMDL
MODEL 8
REMARK VINA RESULT:      -4.5     16.150     18.593
REMARK  4 active torsions:
REMARK  status: ('A' for Active; 'I' for Inactive)
REMARK    1  A    between atoms: C_2  and  N_11 
REMARK    2  A    between atoms: C_10  and  N_12 
REMARK    3  A    between atoms: N_11  and  C_13 
REMARK    4  A    between atoms: C_13  and  C_14 
ROOT
HETATM    1  C   UNK N   1      34.782  12.928  15.123  0.00  0.00     0.073 A 
HETATM    2  C   UNK N   1      34.591  11.675  14.270  0.00  0.00     0.081 A 
HETATM    3  C   UNK N   1      34.601  10.235  14.833  0.00  0.00     0.031 A 
HETATM    4  C   UNK N   1      34.814  10.053  16.336  0.00  0.00     0.060 A 
HETATM    5  C   UNK N   1      34.996  11.305  17.125  0.00  0.00     0.024 A 
HETATM    6  C   UNK N   1      34.978  12.589  16.562  0.00  0.00     0.011 A 
HETATM    7  S   UNK N   1      35.218  13.647  17.811  0.00  0.00    -0.057 SA
HETATM    8  N   UNK N   1      35.196  11.268  18.488  0.00  0.00    -0.340 N 
ATOM      9  HN  UNK N   1      35.234  10.411  19.039  1.00  0.00     0.168 HD
HETATM   10  C   UNK N   1      35.337  12.513  19.007  0.00  0.00     0.142 A 
ENDROOT
BRANCH   2  11
HETATM   11  N   UNK N   1      34.389  11.894  12.831  0.00  0.00    -0.417 N 
HETATM   12  H   UNK N   1      33.843  11.284  12.222  0.00  0.00     0.153 HD
BRANCH  11  13
HETATM   13  C   UNK N   1      35.077  13.104  12.391  0.00  0.00     0.113 C 
BRANCH  13  14
HETATM   14  C   UNK N   1      35.968  12.824  11.204  0.00  0.00     0.015 C 
HETATM   15  C   UNK N   1      37.403  12.759  11.688  0.00  0.00     0.006 C 
ENDBRANCH  13  14
ENDBRANCH  11  13
ENDBRANCH   2  11
BRANCH  10  16
HETATM   16  N   UNK N   1      35.553  12.774  20.374  0.00  0.00    -0.380 N 
HETATM   17  H   UNK N   1      35.404  12.065  21.040  0.00  0.00     0.158 HD
HETATM   18  H   UNK N   1      35.854  13.666  20.663  0.00  0.00     0.158 HD
ENDBRANCH  10  16
TORSDOF 4
ENDMDL
MODEL 9
REMARK VINA RESULT:      -4.5     16.314     18.361
REMARK  4 active torsions:
REMARK  status: ('A' for Active; 'I' for Inactive)
REMARK    1  A    between atoms: C_2  and  N_11 
REMARK    2  A    between atoms: C_10  and  N_12 
REMARK    3  A    between atoms: N_11  and  C_13 
REMARK    4  A    between atoms: C_13  and  C_14 
ROOT
HETATM    1  C   UNK N   1      35.779  12.283  16.205  0.00  0.00     0.073 A 
HETATM    2  C   UNK N   1      34.925  11.017  16.239  0.00  0.00     0.081 A 
HETATM    3  C   UNK N   1      34.126  10.479  15.029  0.00  0.00     0.031 A 
HETATM    4  C   UNK N   1      34.195  11.264  13.718  0.00  0.00     0.060 A 
HETATM    5  C   UNK N   1      35.041  12.491  13.735  0.00  0.00     0.024 A 
HETATM    6  C   UNK N   1      35.746  12.934  14.863  0.00  0.00     0.011 A 
HETATM    7  S   UNK N   1      36.530  14.317  14.407  0.00  0.00    -0.057 SA
HETATM    8  N   UNK N   1      35.180  13.279  12.614  0.00  0.00    -0.340 N 
ATOM      9  HN  UNK N   1      34.730  13.087  11.719  1.00  0.00     0.168 HD
HETATM   10  C   UNK N   1      35.990  14.342  12.846  0.00  0.00     0.142 A 
ENDROOT
BRANCH   2  11
HETATM   11  N   UNK N   1      34.886  10.294  17.517  0.00  0.00    -0.417 N 
HETATM   12  H   UNK N   1      34.072   9.795  17.877  0.00  0.00     0.153 HD
BRANCH  11  13
HETATM   13  C   UNK N   1      36.171  10.386  18.203  0.00  0.00     0.113 C 
BRANCH  13  14
HETATM   14  C   UNK N   1      35.987  10.698  19.669  0.00  0.00     0.015 C 
HETATM   15  C   UNK N   1      35.393  12.087  19.792  0.00  0.00     0.006 C 
ENDBRANCH  13  14
ENDBRANCH  11  13
ENDBRANCH   2  11
BRANCH  10  16
HETATM   16  N   UNK N   1      36.309  15.313  11.877  0.00  0.00    -0.380 N 
HETATM   17  H   UNK N   1      35.806  15.349  11.032  0.00  0.00     0.158 HD
HETATM   18  H   UNK N   1      37.035  15.956  12.045  0.00  0.00     0.158 HD
ENDBRANCH  10  16
TORSDOF 4
ENDMDL
