MODEL 1
REMARK VINA RESULT:      -6.8      0.000      0.000
REMARK  1 active torsions:
REMARK  status: ('A' for Active; 'I' for Inactive)
REMARK    1  A    between atoms: C_3  and  N_16 
ROOT
HETATM    1  N   UNK N   1      28.168  25.202  -4.086  0.00  0.00    -0.340 N 
ATOM      2  HN  UNK N   1      28.643  25.627  -3.288  1.00  0.00     0.167 HD
HETATM    3  C   UNK N   1      28.739  24.099  -4.458  0.00  0.00     0.117 C 
HETATM    4  C   UNK N   1      28.285  23.301  -5.640  0.00  0.00     0.043 A 
HETATM    5  C   UNK N   1      26.059  25.586  -5.457  0.00  0.00     0.060 A 
HETATM    6  C   UNK N   1      27.048  25.971  -4.508  0.00  0.00     0.060 A 
HETATM    7  C   UNK N   1      26.906  27.216  -3.875  0.00  0.00     0.032 A 
HETATM    8  C   UNK N   1      25.843  28.070  -4.160  0.00  0.00     0.002 A 
HETATM    9  C   UNK N   1      24.988  26.453  -5.716  0.00  0.00     0.032 A 
HETATM   10  C   UNK N   1      24.878  27.685  -5.079  0.00  0.00     0.002 A 
HETATM   11  N   UNK N   1      26.067  24.392  -6.203  0.00  0.00    -0.348 N 
HETATM   12  C   UNK N   1      27.101  23.461  -6.364  0.00  0.00     0.089 A 
HETATM   13  C   UNK N   1      29.099  22.255  -6.188  0.00  0.00     0.032 A 
HETATM   14  S   UNK N   1      27.089  22.341  -7.583  0.00  0.00    -0.076 SA
HETATM   15  C   UNK N   1      28.539  21.628  -7.296  0.00  0.00    -0.018 A 
HETATM   16  C   UNK N   1      29.161  20.542  -8.095  0.00  0.00     0.056 C 
HETATM   17  H   UNK N   1      25.229  24.183  -6.676  0.00  0.00     0.166 HD
ENDROOT
BRANCH   3  18
HETATM   18  N   UNK N   1      29.885  23.673  -3.693  0.00  0.00    -0.363 N 
HETATM   19  C   UNK N   1      31.183  24.263  -3.926  0.00  0.00     0.154 C 
HETATM   20  C   UNK N   1      32.157  23.133  -4.267  0.00  0.00     0.291 C 
HETATM   21  N   UNK N   1      32.155  22.118  -3.207  0.00  0.00     0.087 N 
HETATM   22  C   UNK N   1      30.815  21.547  -3.056  0.00  0.00     0.291 C 
HETATM   23  C   UNK N   1      33.021  21.039  -3.643  0.00  0.00     0.310 C 
HETATM   24  C   UNK N   1      29.822  22.640  -2.683  0.00  0.00     0.154 C 
ENDBRANCH   3  18
TORSDOF 1
ENDMDL
MODEL 2
REMARK VINA RESULT:      -6.7     19.530     22.688
REMARK  1 active torsions:
REMARK  status: ('A' for Active; 'I' for Inactive)
REMARK    1  A    between atoms: C_3  and  N_16 
ROOT
HETATM    1  N   UNK N   1      36.963  14.080  13.573  0.00  0.00    -0.340 N 
ATOM      2  HN  UNK N   1      37.638  14.775  13.252  1.00  0.00     0.167 HD
HETATM    3  C   UNK N   1      36.611  13.271  12.623  0.00  0.00     0.117 C 
HETATM    4  C   UNK N   1      35.589  12.193  12.802  0.00  0.00     0.043 A 
HETATM    5  C   UNK N   1      35.896  13.349  15.765  0.00  0.00     0.060 A 
HETATM    6  C   UNK N   1      36.645  14.244  14.951  0.00  0.00     0.060 A 
HETATM    7  C   UNK N   1      37.176  15.397  15.552  0.00  0.00     0.032 A 
HETATM    8  C   UNK N   1      36.978  15.681  16.901  0.00  0.00     0.002 A 
HETATM    9  C   UNK N   1      35.722  13.646  17.124  0.00  0.00     0.032 A 
HETATM   10  C   UNK N   1      36.254  14.800  17.691  0.00  0.00     0.002 A 
HETATM   11  N   UNK N   1      35.269  12.171  15.317  0.00  0.00    -0.348 N 
HETATM   12  C   UNK N   1      35.039  11.739  14.004  0.00  0.00     0.089 A 
HETATM   13  C   UNK N   1      35.023  11.510  11.675  0.00  0.00     0.032 A 
HETATM   14  S   UNK N   1      33.944  10.550  13.652  0.00  0.00    -0.076 SA
HETATM   15  C   UNK N   1      34.073  10.553  12.015  0.00  0.00    -0.018 A 
HETATM   16  C   UNK N   1      33.292   9.717  11.068  0.00  0.00     0.056 C 
HETATM   17  H   UNK N   1      34.949  11.566  16.025  0.00  0.00     0.166 HD
ENDROOT
BRANCH   3  18
HETATM   18  N   UNK N   1      37.231  13.475  11.336  0.00  0.00    -0.363 N 
HETATM   19  C   UNK N   1      36.758  14.516  10.452  0.00  0.00     0.154 C 
HETATM   20  C   UNK N   1      36.373  13.861   9.123  0.00  0.00     0.291 C 
HETATM   21  N   UNK N   1      37.504  13.098   8.582  0.00  0.00     0.087 N 
HETATM   22  C   UNK N   1      37.901  12.047   9.520  0.00  0.00     0.291 C 
HETATM   23  C   UNK N   1      37.038  12.431   7.381  0.00  0.00     0.310 C 
HETATM   24  C   UNK N   1      38.323  12.664  10.847  0.00  0.00     0.154 C 
ENDBRANCH   3  18
TORSDOF 1
ENDMDL
MODEL 3
REMARK VINA RESULT:      -6.6     11.058     12.941
REMARK  1 active torsions:
REMARK  status: ('A' for Active; 'I' for Inactive)
REMARK    1  A    between atoms: C_3  and  N_16 
ROOT
HETATM    1  N   UNK N   1      29.235  18.228   4.471  0.00  0.00    -0.340 N 
ATOM      2  HN  UNK N   1      29.194  18.262   3.451  1.00  0.00     0.167 HD
HETATM    3  C   UNK N   1      30.189  17.458   4.892  0.00  0.00     0.117 C 
HETATM    4  C   UNK N   1      30.437  17.180   6.341  0.00  0.00     0.043 A 
HETATM    5  C   UNK N   1      28.114  19.372   6.449  0.00  0.00     0.060 A 
HETATM    6  C   UNK N   1      28.230  19.038   5.070  0.00  0.00     0.060 A 
HETATM    7  C   UNK N   1      27.294  19.584   4.177  0.00  0.00     0.032 A 
HETATM    8  C   UNK N   1      26.267  20.422   4.609  0.00  0.00     0.002 A 
HETATM    9  C   UNK N   1      27.084  20.229   6.859  0.00  0.00     0.032 A 
HETATM   10  C   UNK N   1      26.166  20.750   5.952  0.00  0.00     0.002 A 
HETATM   11  N   UNK N   1      28.944  18.886   7.477  0.00  0.00    -0.348 N 
HETATM   12  C   UNK N   1      29.876  17.841   7.437  0.00  0.00     0.089 A 
HETATM   13  C   UNK N   1      31.306  16.117   6.757  0.00  0.00     0.032 A 
HETATM   14  S   UNK N   1      30.463  17.139   8.816  0.00  0.00    -0.076 SA
HETATM   15  C   UNK N   1      31.409  15.982   8.137  0.00  0.00    -0.018 A 
HETATM   16  C   UNK N   1      32.199  14.953   8.860  0.00  0.00     0.056 C 
HETATM   17  H   UNK N   1      28.859  19.347   8.343  0.00  0.00     0.166 HD
ENDROOT
BRANCH   3  18
HETATM   18  N   UNK N   1      31.007  16.829   3.883  0.00  0.00    -0.363 N 
HETATM   19  C   UNK N   1      30.545  15.643   3.200  0.00  0.00     0.154 C 
HETATM   20  C   UNK N   1      31.592  14.545   3.407  0.00  0.00     0.291 C 
HETATM   21  N   UNK N   1      32.911  15.006   2.959  0.00  0.00     0.087 N 
HETATM   22  C   UNK N   1      33.320  16.189   3.719  0.00  0.00     0.291 C 
HETATM   23  C   UNK N   1      33.863  13.958   3.274  0.00  0.00     0.310 C 
HETATM   24  C   UNK N   1      32.317  17.315   3.511  0.00  0.00     0.154 C 
ENDBRANCH   3  18
TORSDOF 1
ENDMDL
MODEL 4
REMARK VINA RESULT:      -6.5     15.340     17.440
REMARK  1 active torsions:
REMARK  status: ('A' for Active; 'I' for Inactive)
REMARK    1  A    between atoms: C_3  and  N_16 
ROOT
HETATM    1  N   UNK N   1      21.953  14.174   8.496  0.00  0.00    -0.340 N 
ATOM      2  HN  UNK N   1      20.981  14.331   8.766  1.00  0.00     0.167 HD
HETATM    3  C   UNK N   1      22.240  14.742   7.367  0.00  0.00     0.117 C 
HETATM    4  C   UNK N   1      23.578  14.622   6.707  0.00  0.00     0.043 A 
HETATM    5  C   UNK N   1      24.050  13.133   9.495  0.00  0.00     0.060 A 
HETATM    6  C   UNK N   1      22.650  13.385   9.454  0.00  0.00     0.060 A 
HETATM    7  C   UNK N   1      21.852  12.848  10.478  0.00  0.00     0.032 A 
HETATM    8  C   UNK N   1      22.394  12.080  11.506  0.00  0.00     0.002 A 
HETATM    9  C   UNK N   1      24.576  12.371  10.547  0.00  0.00     0.032 A 
HETATM   10  C   UNK N   1      23.760  11.845  11.544  0.00  0.00     0.002 A 
HETATM   11  N   UNK N   1      24.984  13.566   8.534  0.00  0.00    -0.348 N 
HETATM   12  C   UNK N   1      24.753  14.110   7.264  0.00  0.00     0.089 A 
HETATM   13  C   UNK N   1      23.773  15.019   5.343  0.00  0.00     0.032 A 
HETATM   14  S   UNK N   1      25.941  14.184   6.114  0.00  0.00    -0.076 SA
HETATM   15  C   UNK N   1      25.068  14.822   4.879  0.00  0.00    -0.018 A 
HETATM   16  C   UNK N   1      25.560  15.101   3.505  0.00  0.00     0.056 C 
HETATM   17  H   UNK N   1      25.929  13.475   8.792  0.00  0.00     0.166 HD
ENDROOT
BRANCH   3  18
HETATM   18  N   UNK N   1      21.182  15.487   6.729  0.00  0.00    -0.363 N 
HETATM   19  C   UNK N   1      20.162  14.805   5.967  0.00  0.00     0.154 C 
HETATM   20  C   UNK N   1      20.163  15.392   4.553  0.00  0.00     0.291 C 
HETATM   21  N   UNK N   1      19.985  16.848   4.603  0.00  0.00     0.087 N 
HETATM   22  C   UNK N   1      21.073  17.465   5.364  0.00  0.00     0.291 C 
HETATM   23  C   UNK N   1      20.093  17.342   3.244  0.00  0.00     0.310 C 
HETATM   24  C   UNK N   1      21.082  16.928   6.789  0.00  0.00     0.154 C 
ENDBRANCH   3  18
TORSDOF 1
ENDMDL
MODEL 5
REMARK VINA RESULT:      -6.4     14.904     16.775
REMARK  1 active torsions:
REMARK  status: ('A' for Active; 'I' for Inactive)
REMARK    1  A    between atoms: C_3  and  N_16 
ROOT
HETATM    1  N   UNK N   1      23.838  13.658   8.136  0.00  0.00    -0.340 N 
ATOM      2  HN  UNK N   1      24.728  13.159   8.184  1.00  0.00     0.167 HD
HETATM    3  C   UNK N   1      23.806  14.499   7.151  0.00  0.00     0.117 C 
HETATM    4  C   UNK N   1      22.645  15.404   6.884  0.00  0.00     0.043 A 
HETATM    5  C   UNK N   1      21.570  13.597   9.290  0.00  0.00     0.060 A 
HETATM    6  C   UNK N   1      22.946  13.254   9.169  0.00  0.00     0.060 A 
HETATM    7  C   UNK N   1      23.499  12.392  10.131  0.00  0.00     0.032 A 
HETATM    8  C   UNK N   1      22.743  11.887  11.186  0.00  0.00     0.002 A 
HETATM    9  C   UNK N   1      20.824  13.064  10.350  0.00  0.00     0.032 A 
HETATM   10  C   UNK N   1      21.401  12.219  11.293  0.00  0.00     0.002 A 
HETATM   11  N   UNK N   1      20.871  14.470   8.435  0.00  0.00    -0.348 N 
HETATM   12  C   UNK N   1      21.375  15.345   7.464  0.00  0.00     0.089 A 
HETATM   13  C   UNK N   1      22.755  16.506   5.972  0.00  0.00     0.032 A 
HETATM   14  S   UNK N   1      20.468  16.581   6.842  0.00  0.00    -0.076 SA
HETATM   15  C   UNK N   1      21.592  17.258   5.856  0.00  0.00    -0.018 A 
HETATM   16  C   UNK N   1      21.414  18.475   5.022  0.00  0.00     0.056 C 
HETATM   17  H   UNK N   1      19.891  14.465   8.533  0.00  0.00     0.166 HD
ENDROOT
BRANCH   3  18
HETATM   18  N   UNK N   1      24.981  14.562   6.315  0.00  0.00    -0.363 N 
HETATM   19  C   UNK N   1      26.134  15.326   6.728  0.00  0.00     0.154 C 
HETATM   20  C   UNK N   1      26.437  16.349   5.629  0.00  0.00     0.291 C 
HETATM   21  N   UNK N   1      26.611  15.674   4.337  0.00  0.00     0.087 N 
HETATM   22  C   UNK N   1      25.391  14.950   3.976  0.00  0.00     0.291 C 
HETATM   23  C   UNK N   1      26.796  16.706   3.334  0.00  0.00     0.310 C 
HETATM   24  C   UNK N   1      25.076  13.900   5.033  0.00  0.00     0.154 C 
ENDBRANCH   3  18
TORSDOF 1
ENDMDL
MODEL 6
REMARK VINA RESULT:      -6.2     13.892     15.712
REMARK  1 active torsions:
REMARK  status: ('A' for Active; 'I' for Inactive)
REMARK    1  A    between atoms: C_3  and  N_16 
ROOT
HETATM    1  N   UNK N   1      31.756  15.898   6.583  0.00  0.00    -0.340 N 
ATOM      2  HN  UNK N   1      31.286  15.579   5.735  1.00  0.00     0.167 HD
HETATM    3  C   UNK N   1      32.935  15.377   6.709  0.00  0.00     0.117 C 
HETATM    4  C   UNK N   1      33.819  15.627   7.891  0.00  0.00     0.043 A 
HETATM    5  C   UNK N   1      31.355  17.583   8.447  0.00  0.00     0.060 A 
HETATM    6  C   UNK N   1      30.949  16.804   7.327  0.00  0.00     0.060 A 
HETATM    7  C   UNK N   1      29.635  16.956   6.858  0.00  0.00     0.032 A 
HETATM    8  C   UNK N   1      28.734  17.830   7.463  0.00  0.00     0.002 A 
HETATM    9  C   UNK N   1      30.437  18.468   9.031  0.00  0.00     0.032 A 
HETATM   10  C   UNK N   1      29.138  18.592   8.549  0.00  0.00     0.002 A 
HETATM   11  N   UNK N   1      32.620  17.529   9.062  0.00  0.00    -0.348 N 
HETATM   12  C   UNK N   1      33.644  16.589   8.889  0.00  0.00     0.089 A 
HETATM   13  C   UNK N   1      34.982  14.823   8.134  0.00  0.00     0.032 A 
HETATM   14  S   UNK N   1      34.886  16.437   9.972  0.00  0.00    -0.076 SA
HETATM   15  C   UNK N   1      35.679  15.175   9.284  0.00  0.00    -0.018 A 
HETATM   16  C   UNK N   1      36.894  14.504   9.813  0.00  0.00     0.056 C 
HETATM   17  H   UNK N   1      32.811  18.252   9.702  0.00  0.00     0.166 HD
ENDROOT
BRANCH   3  18
HETATM   18  N   UNK N   1      33.368  14.489   5.657  0.00  0.00    -0.363 N 
HETATM   19  C   UNK N   1      34.187  14.980   4.574  0.00  0.00     0.154 C 
HETATM   20  C   UNK N   1      33.462  14.674   3.261  0.00  0.00     0.291 C 
HETATM   21  N   UNK N   1      33.158  13.241   3.166  0.00  0.00     0.087 N 
HETATM   22  C   UNK N   1      32.300  12.830   4.279  0.00  0.00     0.291 C 
HETATM   23  C   UNK N   1      32.390  13.044   1.952  0.00  0.00     0.310 C 
HETATM   24  C   UNK N   1      33.005  13.090   5.604  0.00  0.00     0.154 C 
ENDBRANCH   3  18
TORSDOF 1
ENDMDL
MODEL 7
REMARK VINA RESULT:      -6.0     11.872     13.642
REMARK  1 active torsions:
REMARK  status: ('A' for Active; 'I' for Inactive)
REMARK    1  A    between atoms: C_3  and  N_16 
ROOT
HETATM    1  N   UNK N   1      24.977  17.197   5.297  0.00  0.00    -0.340 N 
ATOM      2  HN  UNK N   1      25.397  16.435   5.831  1.00  0.00     0.167 HD
HETATM    3  C   UNK N   1      23.714  17.001   5.084  0.00  0.00     0.117 C 
HETATM    4  C   UNK N   1      22.865  17.931   4.276  0.00  0.00     0.043 A 
HETATM    5  C   UNK N   1      25.655  19.484   4.410  0.00  0.00     0.060 A 
HETATM    6  C   UNK N   1      25.927  18.206   4.974  0.00  0.00     0.060 A 
HETATM    7  C   UNK N   1      27.258  17.896   5.297  0.00  0.00     0.032 A 
HETATM    8  C   UNK N   1      28.299  18.795   5.069  0.00  0.00     0.002 A 
HETATM    9  C   UNK N   1      26.714  20.379   4.204  0.00  0.00     0.032 A 
HETATM   10  C   UNK N   1      28.025  20.041   4.526  0.00  0.00     0.002 A 
HETATM   11  N   UNK N   1      24.388  19.940   4.000  0.00  0.00    -0.348 N 
HETATM   12  C   UNK N   1      23.201  19.214   3.834  0.00  0.00     0.089 A 
HETATM   13  C   UNK N   1      21.558  17.546   3.827  0.00  0.00     0.032 A 
HETATM   14  S   UNK N   1      21.924  19.809   2.966  0.00  0.00    -0.076 SA
HETATM   15  C   UNK N   1      20.914  18.519   3.071  0.00  0.00    -0.018 A 
HETATM   16  C   UNK N   1      19.575  18.395   2.440  0.00  0.00     0.056 C 
HETATM   17  H   UNK N   1      24.327  20.903   3.804  0.00  0.00     0.166 HD
ENDROOT
BRANCH   3  18
HETATM   18  N   UNK N   1      23.142  15.797   5.639  0.00  0.00    -0.363 N 
HETATM   19  C   UNK N   1      23.412  14.513   5.036  0.00  0.00     0.154 C 
HETATM   20  C   UNK N   1      22.068  13.872   4.677  0.00  0.00     0.291 C 
HETATM   21  N   UNK N   1      21.205  13.797   5.862  0.00  0.00     0.087 N 
HETATM   22  C   UNK N   1      20.954  15.138   6.392  0.00  0.00     0.291 C 
HETATM   23  C   UNK N   1      19.923  13.274   5.428  0.00  0.00     0.310 C 
HETATM   24  C   UNK N   1      22.269  15.795   6.792  0.00  0.00     0.154 C 
ENDBRANCH   3  18
TORSDOF 1
ENDMDL
MODEL 8
REMARK VINA RESULT:      -6.0     21.760     24.992
REMARK  1 active torsions:
REMARK  status: ('A' for Active; 'I' for Inactive)
REMARK    1  A    between atoms: C_3  and  N_16 
ROOT
HETATM    1  N   UNK N   1      36.066  10.449  15.959  0.00  0.00    -0.340 N 
ATOM      2  HN  UNK N   1      36.121   9.485  16.292  1.00  0.00     0.167 HD
HETATM    3  C   UNK N   1      36.289  10.536  14.686  0.00  0.00     0.117 C 
HETATM    4  C   UNK N   1      36.329  11.837  13.948  0.00  0.00     0.043 A 
HETATM    5  C   UNK N   1      35.433  12.735  16.881  0.00  0.00     0.060 A 
HETATM    6  C   UNK N   1      35.766  11.357  17.013  0.00  0.00     0.060 A 
HETATM    7  C   UNK N   1      35.764  10.798  18.301  0.00  0.00     0.032 A 
HETATM    8  C   UNK N   1      35.460  11.553  19.431  0.00  0.00     0.002 A 
HETATM    9  C   UNK N   1      35.114  13.473  18.029  0.00  0.00     0.032 A 
HETATM   10  C   UNK N   1      35.128  12.893  19.294  0.00  0.00     0.002 A 
HETATM   11  N   UNK N   1      35.420  13.458  15.673  0.00  0.00    -0.348 N 
HETATM   12  C   UNK N   1      35.927  13.090  14.420  0.00  0.00     0.089 A 
HETATM   13  C   UNK N   1      36.851  11.921  12.615  0.00  0.00     0.032 A 
HETATM   14  S   UNK N   1      36.194  14.200  13.223  0.00  0.00    -0.076 SA
HETATM   15  C   UNK N   1      36.835  13.206  12.084  0.00  0.00    -0.018 A 
HETATM   16  C   UNK N   1      37.343  13.609  10.748  0.00  0.00     0.056 C 
HETATM   17  H   UNK N   1      34.994  14.344  15.715  0.00  0.00     0.166 HD
ENDROOT
BRANCH   3  18
HETATM   18  N   UNK N   1      36.541   9.299  13.986  0.00  0.00    -0.363 N 
HETATM   19  C   UNK N   1      37.858   8.707  13.996  0.00  0.00     0.154 C 
HETATM   20  C   UNK N   1      38.307   8.538  12.541  0.00  0.00     0.291 C 
HETATM   21  N   UNK N   1      37.317   7.759  11.788  0.00  0.00     0.087 N 
HETATM   22  C   UNK N   1      36.021   8.440  11.800  0.00  0.00     0.291 C 
HETATM   23  C   UNK N   1      37.758   7.724  10.407  0.00  0.00     0.310 C 
HETATM   24  C   UNK N   1      35.527   8.596  13.232  0.00  0.00     0.154 C 
ENDBRANCH   3  18
TORSDOF 1
ENDMDL
MODEL 9
REMARK VINA RESULT:      -6.0     19.082     22.515
REMARK  1 active torsions:
REMARK  status: ('A' for Active; 'I' for Inactive)
REMARK    1  A    between atoms: C_3  and  N_16 
ROOT
HETATM    1  N   UNK N   1      35.352  13.224  13.798  0.00  0.00    -0.340 N 
ATOM      2  HN  UNK N   1      35.544  14.218  13.932  1.00  0.00     0.167 HD
HETATM    3  C   UNK N   1      35.257  12.914  12.543  0.00  0.00     0.117 C 
HETATM    4  C   UNK N   1      34.921  11.536  12.064  0.00  0.00     0.043 A 
HETATM    5  C   UNK N   1      35.187  11.120  15.221  0.00  0.00     0.060 A 
HETATM    6  C   UNK N   1      35.256  12.530  15.037  0.00  0.00     0.060 A 
HETATM    7  C   UNK N   1      35.278  13.345  16.180  0.00  0.00     0.032 A 
HETATM    8  C   UNK N   1      35.223  12.810  17.466  0.00  0.00     0.002 A 
HETATM    9  C   UNK N   1      35.149  10.603  16.523  0.00  0.00     0.032 A 
HETATM   10  C   UNK N   1      35.164  11.435  17.638  0.00  0.00     0.002 A 
HETATM   11  N   UNK N   1      35.123  10.166  14.187  0.00  0.00    -0.348 N 
HETATM   12  C   UNK N   1      34.887  10.362  12.821  0.00  0.00     0.089 A 
HETATM   13  C   UNK N   1      34.548  11.293  10.700  0.00  0.00     0.032 A 
HETATM   14  S   UNK N   1      34.442   9.120  11.822  0.00  0.00    -0.076 SA
HETATM   15  C   UNK N   1      34.249   9.964  10.427  0.00  0.00    -0.018 A 
HETATM   16  C   UNK N   1      33.797   9.417   9.122  0.00  0.00     0.056 C 
HETATM   17  H   UNK N   1      35.266   9.232  14.464  0.00  0.00     0.166 HD
ENDROOT
BRANCH   3  18
HETATM   18  N   UNK N   1      35.454  13.983  11.595  0.00  0.00    -0.363 N 
HETATM   19  C   UNK N   1      34.367  14.870  11.254  0.00  0.00     0.154 C 
HETATM   20  C   UNK N   1      34.172  14.812   9.736  0.00  0.00     0.291 C 
HETATM   21  N   UNK N   1      35.428  15.129   9.047  0.00  0.00     0.087 N 
HETATM   22  C   UNK N   1      36.468  14.168   9.420  0.00  0.00     0.291 C 
HETATM   23  C   UNK N   1      35.194  14.959   7.626  0.00  0.00     0.310 C 
HETATM   24  C   UNK N   1      36.712  14.221  10.923  0.00  0.00     0.154 C 
ENDBRANCH   3  18
TORSDOF 1
ENDMDL
