MODEL 1
REMARK VINA RESULT:      -6.3      0.000      0.000
REMARK  8 active torsions:
REMARK  status: ('A' for Active; 'I' for Inactive)
REMARK    1  A    between atoms: C_14  and  C_12 
REMARK    2  A    between atoms: C_17  and  C_12 
REMARK    3  A    between atoms: C_15  and  C_13 
REMARK    4  A    between atoms: C_16  and  C_18 
REMARK    5  A    between atoms: C_19  and  C_17 
REMARK    6  A    between atoms: C_17  and  N_20 
REMARK    7  A    between atoms: C_18  and  O_22 
REMARK    8  A    between atoms: O_24  and  C_19 
ROOT
HETATM    1  C   UNK N   1      27.259  25.010  -3.549  0.00  0.00     0.116 C 
HETATM    2  N   UNK N   1      26.651  26.146  -3.370  0.00  0.00    -0.359 N 
ATOM      3  HN  UNK N   1      26.039  26.216  -2.557  1.00  0.00     0.162 HD
ENDROOT
BRANCH   2   4
HETATM    4  C   UNK N   1      26.757  27.324  -4.212  0.00  0.00     0.185 C 
BRANCH   4   5
HETATM    5  C   UNK N   1      25.767  27.210  -5.384  0.00  0.00     0.074 C 
BRANCH   5   6
HETATM    6  C   UNK N   1      26.386  27.062  -6.744  0.00  0.00    -0.056 A 
HETATM    7  C   UNK N   1      25.811  26.173  -7.661  0.00  0.00     0.007 A 
HETATM    8  C   UNK N   1      26.373  26.008  -8.932  0.00  0.00     0.001 A 
HETATM    9  C   UNK N   1      27.518  26.727  -9.286  0.00  0.00     0.000 A 
HETATM   10  C   UNK N   1      28.100  27.609  -8.372  0.00  0.00     0.001 A 
HETATM   11  C   UNK N   1      27.535  27.777  -7.103  0.00  0.00     0.007 A 
ENDBRANCH   5   6
ENDBRANCH   4   5
BRANCH   4  12
HETATM   12  C   UNK N   1      26.550  28.578  -3.401  0.00  0.00     0.163 C 
HETATM   13  O   UNK N   1      26.989  28.645  -2.265  0.00  0.00    -0.648 OA
BRANCH  12  14
HETATM   14  O   UNK N   1      25.880  29.626  -3.917  0.00  0.00    -0.775 OA
HETATM   15  H   UNK N   1      25.656  29.916  -4.779  0.00  0.00     0.167 HD
ENDBRANCH  12  14
ENDBRANCH   4  12
ENDBRANCH   2   4
BRANCH   1  16
HETATM   16  C   UNK N   1      28.228  24.776  -4.702  0.00  0.00     0.060 C 
HETATM   17  C   UNK N   1      29.385  25.787  -4.675  0.00  0.00     0.013 C 
HETATM   18  C   UNK N   1      30.332  25.524  -3.496  0.00  0.00     0.006 C 
HETATM   19  C   UNK N   1      30.903  24.096  -3.540  0.00  0.00    -0.011 C 
HETATM   20  C   UNK N   1      29.740  23.101  -3.536  0.00  0.00     0.006 C 
HETATM   21  C   UNK N   1      28.798  23.351  -4.713  0.00  0.00     0.013 C 
BRANCH  19  22
HETATM   22  C   UNK N   1      31.815  23.890  -4.767  0.00  0.00    -0.019 C 
HETATM   23  C   UNK N   1      32.574  22.575  -4.691  0.00  0.00     0.010 C 
HETATM   24  C   UNK N   1      32.823  25.020  -4.899  0.00  0.00     0.010 C 
ENDBRANCH  19  22
ENDBRANCH   1  16
BRANCH   1  25
HETATM   25  O   UNK N   1      26.970  23.997  -2.712  0.00  0.00    -0.349 OA
HETATM   26  H   UNK N   1      26.357  23.298  -2.599  0.00  0.00     0.219 HD
ENDBRANCH   1  25
TORSDOF 8
ENDMDL
MODEL 2
REMARK VINA RESULT:      -6.2     20.535     23.388
REMARK  8 active torsions:
REMARK  status: ('A' for Active; 'I' for Inactive)
REMARK    1  A    between atoms: C_14  and  C_12 
REMARK    2  A    between atoms: C_17  and  C_12 
REMARK    3  A    between atoms: C_15  and  C_13 
REMARK    4  A    between atoms: C_16  and  C_18 
REMARK    5  A    between atoms: C_19  and  C_17 
REMARK    6  A    between atoms: C_17  and  N_20 
REMARK    7  A    between atoms: C_18  and  O_22 
REMARK    8  A    between atoms: O_24  and  C_19 
ROOT
HETATM    1  C   UNK N   1      36.483  14.031  14.215  0.00  0.00     0.116 C 
HETATM    2  N   UNK N   1      36.785  14.646  13.110  0.00  0.00    -0.359 N 
ATOM      3  HN  UNK N   1      37.523  15.349  13.162  1.00  0.00     0.162 HD
ENDROOT
BRANCH   2   4
HETATM    4  C   UNK N   1      36.177  14.432  11.808  0.00  0.00     0.185 C 
BRANCH   4   5
HETATM    5  C   UNK N   1      35.989  15.786  11.101  0.00  0.00     0.074 C 
BRANCH   5   6
HETATM    6  C   UNK N   1      34.761  15.903  10.243  0.00  0.00    -0.056 A 
HETATM    7  C   UNK N   1      34.603  17.033   9.431  0.00  0.00     0.007 A 
HETATM    8  C   UNK N   1      33.465  17.173   8.630  0.00  0.00     0.001 A 
HETATM    9  C   UNK N   1      32.476  16.185   8.645  0.00  0.00     0.000 A 
HETATM   10  C   UNK N   1      32.625  15.060   9.460  0.00  0.00     0.001 A 
HETATM   11  C   UNK N   1      33.766  14.918  10.257  0.00  0.00     0.007 A 
ENDBRANCH   5   6
ENDBRANCH   4   5
BRANCH   4  12
HETATM   12  C   UNK N   1      36.994  13.464  10.993  0.00  0.00     0.163 C 
HETATM   13  O   UNK N   1      36.435  12.651  10.276  0.00  0.00    -0.648 OA
BRANCH  12  14
HETATM   14  O   UNK N   1      38.340  13.483  11.049  0.00  0.00    -0.775 OA
HETATM   15  H   UNK N   1      39.028  13.756  10.475  0.00  0.00     0.167 HD
ENDBRANCH  12  14
ENDBRANCH   4  12
ENDBRANCH   2   4
BRANCH   1  16
HETATM   16  C   UNK N   1      35.425  12.936  14.276  0.00  0.00     0.060 C 
HETATM   17  C   UNK N   1      36.021  11.562  13.932  0.00  0.00     0.013 C 
HETATM   18  C   UNK N   1      36.960  11.064  15.040  0.00  0.00     0.006 C 
HETATM   19  C   UNK N   1      36.236  10.981  16.396  0.00  0.00    -0.011 C 
HETATM   20  C   UNK N   1      35.675  12.364  16.738  0.00  0.00     0.006 C 
HETATM   21  C   UNK N   1      34.732  12.861  15.644  0.00  0.00     0.013 C 
BRANCH  19  22
HETATM   22  C   UNK N   1      35.126   9.912  16.378  0.00  0.00    -0.019 C 
HETATM   23  C   UNK N   1      34.566   9.657  17.769  0.00  0.00     0.010 C 
HETATM   24  C   UNK N   1      35.638   8.595  15.818  0.00  0.00     0.010 C 
ENDBRANCH  19  22
ENDBRANCH   1  16
BRANCH   1  25
HETATM   25  O   UNK N   1      37.093  14.424  15.347  0.00  0.00    -0.349 OA
HETATM   26  H   UNK N   1      37.298  14.118  16.209  0.00  0.00     0.219 HD
ENDBRANCH   1  25
TORSDOF 8
ENDMDL
MODEL 3
REMARK VINA RESULT:      -6.2      3.241      4.546
REMARK  8 active torsions:
REMARK  status: ('A' for Active; 'I' for Inactive)
REMARK    1  A    between atoms: C_14  and  C_12 
REMARK    2  A    between atoms: C_17  and  C_12 
REMARK    3  A    between atoms: C_15  and  C_13 
REMARK    4  A    between atoms: C_16  and  C_18 
REMARK    5  A    between atoms: C_19  and  C_17 
REMARK    6  A    between atoms: C_17  and  N_20 
REMARK    7  A    between atoms: C_18  and  O_22 
REMARK    8  A    between atoms: O_24  and  C_19 
ROOT
HETATM    1  C   UNK N   1      28.376  23.927  -7.776  0.00  0.00     0.116 C 
HETATM    2  N   UNK N   1      27.465  24.653  -8.353  0.00  0.00    -0.359 N 
ATOM      3  HN  UNK N   1      27.760  25.206  -9.158  1.00  0.00     0.162 HD
ENDROOT
BRANCH   2   4
HETATM    4  C   UNK N   1      26.068  24.753  -7.968  0.00  0.00     0.185 C 
BRANCH   4   5
HETATM    5  C   UNK N   1      25.639  26.231  -7.973  0.00  0.00     0.074 C 
BRANCH   5   6
HETATM    6  C   UNK N   1      25.970  27.006  -6.729  0.00  0.00    -0.056 A 
HETATM    7  C   UNK N   1      25.055  27.012  -5.668  0.00  0.00     0.007 A 
HETATM    8  C   UNK N   1      25.333  27.733  -4.501  0.00  0.00     0.001 A 
HETATM    9  C   UNK N   1      26.524  28.456  -4.395  0.00  0.00     0.000 A 
HETATM   10  C   UNK N   1      27.436  28.459  -5.455  0.00  0.00     0.001 A 
HETATM   11  C   UNK N   1      27.160  27.735  -6.619  0.00  0.00     0.007 A 
ENDBRANCH   5   6
ENDBRANCH   4   5
BRANCH   4  12
HETATM   12  C   UNK N   1      25.207  23.899  -8.862  0.00  0.00     0.163 C 
HETATM   13  O   UNK N   1      25.204  24.091 -10.066  0.00  0.00    -0.648 OA
BRANCH  12  14
HETATM   14  O   UNK N   1      24.435  22.924  -8.344  0.00  0.00    -0.775 OA
HETATM   15  H   UNK N   1      23.978  22.182  -8.687  0.00  0.00     0.167 HD
ENDBRANCH  12  14
ENDBRANCH   4  12
ENDBRANCH   2   4
BRANCH   1  16
HETATM   16  C   UNK N   1      28.069  23.026  -6.586  0.00  0.00     0.060 C 
HETATM   17  C   UNK N   1      29.140  21.936  -6.418  0.00  0.00     0.013 C 
HETATM   18  C   UNK N   1      30.474  22.529  -5.943  0.00  0.00     0.006 C 
HETATM   19  C   UNK N   1      30.311  23.294  -4.618  0.00  0.00    -0.011 C 
HETATM   20  C   UNK N   1      29.263  24.394  -4.810  0.00  0.00     0.006 C 
HETATM   21  C   UNK N   1      27.930  23.809  -5.273  0.00  0.00     0.013 C 
BRANCH  19  22
HETATM   22  C   UNK N   1      29.925  22.346  -3.464  0.00  0.00    -0.019 C 
HETATM   23  C   UNK N   1      29.858  23.076  -2.132  0.00  0.00     0.010 C 
HETATM   24  C   UNK N   1      30.918  21.202  -3.336  0.00  0.00     0.010 C 
ENDBRANCH  19  22
ENDBRANCH   1  16
BRANCH   1  25
HETATM   25  O   UNK N   1      29.643  24.028  -8.219  0.00  0.00    -0.349 OA
HETATM   26  H   UNK N   1      30.451  24.458  -8.023  0.00  0.00     0.219 HD
ENDBRANCH   1  25
TORSDOF 8
ENDMDL
MODEL 4
REMARK VINA RESULT:      -6.2     16.072     18.850
REMARK  8 active torsions:
REMARK  status: ('A' for Active; 'I' for Inactive)
REMARK    1  A    between atoms: C_14  and  C_12 
REMARK    2  A    between atoms: C_17  and  C_12 
REMARK    3  A    between atoms: C_15  and  C_13 
REMARK    4  A    between atoms: C_16  and  C_18 
REMARK    5  A    between atoms: C_19  and  C_17 
REMARK    6  A    between atoms: C_17  and  N_20 
REMARK    7  A    between atoms: C_18  and  O_22 
REMARK    8  A    between atoms: O_24  and  C_19 
ROOT
HETATM    1  C   UNK N   1      35.019  16.000  10.636  0.00  0.00     0.116 C 
HETATM    2  N   UNK N   1      34.522  17.026  10.011  0.00  0.00    -0.359 N 
ATOM      3  HN  UNK N   1      34.567  17.923  10.494  1.00  0.00     0.162 HD
ENDROOT
BRANCH   2   4
HETATM    4  C   UNK N   1      33.909  17.022   8.694  0.00  0.00     0.185 C 
BRANCH   4   5
HETATM    5  C   UNK N   1      32.381  17.126   8.838  0.00  0.00     0.074 C 
BRANCH   5   6
HETATM    6  C   UNK N   1      31.582  16.483   7.741  0.00  0.00    -0.056 A 
HETATM    7  C   UNK N   1      30.379  17.077   7.337  0.00  0.00     0.007 A 
HETATM    8  C   UNK N   1      29.610  16.493   6.325  0.00  0.00     0.001 A 
HETATM    9  C   UNK N   1      30.037  15.309   5.718  0.00  0.00     0.000 A 
HETATM   10  C   UNK N   1      31.232  14.708   6.124  0.00  0.00     0.001 A 
HETATM   11  C   UNK N   1      32.004  15.294   7.134  0.00  0.00     0.007 A 
ENDBRANCH   5   6
ENDBRANCH   4   5
BRANCH   4  12
HETATM   12  C   UNK N   1      34.485  18.119   7.837  0.00  0.00     0.163 C 
HETATM   13  O   UNK N   1      34.996  19.095   8.361  0.00  0.00    -0.648 OA
BRANCH  12  14
HETATM   14  O   UNK N   1      34.438  18.037   6.493  0.00  0.00    -0.775 OA
HETATM   15  H   UNK N   1      33.770  18.119   5.843  0.00  0.00     0.167 HD
ENDBRANCH  12  14
ENDBRANCH   4  12
ENDBRANCH   2   4
BRANCH   1  16
HETATM   16  C   UNK N   1      35.050  14.606  10.021  0.00  0.00     0.060 C 
HETATM   17  C   UNK N   1      36.277  14.421   9.114  0.00  0.00     0.013 C 
HETATM   18  C   UNK N   1      37.575  14.361   9.933  0.00  0.00     0.006 C 
HETATM   19  C   UNK N   1      37.532  13.227  10.973  0.00  0.00    -0.011 C 
HETATM   20  C   UNK N   1      36.322  13.442  11.886  0.00  0.00     0.006 C 
HETATM   21  C   UNK N   1      35.026  13.493  11.078  0.00  0.00     0.013 C 
BRANCH  19  22
HETATM   22  C   UNK N   1      37.487  11.842  10.296  0.00  0.00    -0.019 C 
HETATM   23  C   UNK N   1      37.433  10.716  11.318  0.00  0.00     0.010 C 
HETATM   24  C   UNK N   1      38.699  11.625   9.405  0.00  0.00     0.010 C 
ENDBRANCH  19  22
ENDBRANCH   1  16
BRANCH   1  25
HETATM   25  O   UNK N   1      35.468  16.178  11.892  0.00  0.00    -0.349 OA
HETATM   26  H   UNK N   1      35.795  16.846  12.461  0.00  0.00     0.219 HD
ENDBRANCH   1  25
TORSDOF 8
ENDMDL
MODEL 5
REMARK VINA RESULT:      -6.1      3.082      6.125
REMARK  8 active torsions:
REMARK  status: ('A' for Active; 'I' for Inactive)
REMARK    1  A    between atoms: C_14  and  C_12 
REMARK    2  A    between atoms: C_17  and  C_12 
REMARK    3  A    between atoms: C_15  and  C_13 
REMARK    4  A    between atoms: C_16  and  C_18 
REMARK    5  A    between atoms: C_19  and  C_17 
REMARK    6  A    between atoms: C_17  and  N_20 
REMARK    7  A    between atoms: C_18  and  O_22 
REMARK    8  A    between atoms: O_24  and  C_19 
ROOT
HETATM    1  C   UNK N   1      25.681  24.595  -5.461  0.00  0.00     0.116 C 
HETATM    2  N   UNK N   1      25.695  23.490  -6.145  0.00  0.00    -0.359 N 
ATOM      3  HN  UNK N   1      25.739  22.620  -5.612  1.00  0.00     0.162 HD
ENDROOT
BRANCH   2   4
HETATM    4  C   UNK N   1      25.655  23.368  -7.592  0.00  0.00     0.185 C 
BRANCH   4   5
HETATM    5  C   UNK N   1      27.089  23.380  -8.148  0.00  0.00     0.074 C 
BRANCH   5   6
HETATM    6  C   UNK N   1      28.067  22.488  -7.437  0.00  0.00    -0.056 A 
HETATM    7  C   UNK N   1      28.766  22.989  -6.331  0.00  0.00     0.007 A 
HETATM    8  C   UNK N   1      29.689  22.183  -5.656  0.00  0.00     0.001 A 
HETATM    9  C   UNK N   1      29.924  20.876  -6.091  0.00  0.00     0.000 A 
HETATM   10  C   UNK N   1      29.235  20.375  -7.200  0.00  0.00     0.001 A 
HETATM   11  C   UNK N   1      28.308  21.179  -7.872  0.00  0.00     0.007 A 
ENDBRANCH   5   6
ENDBRANCH   4   5
BRANCH   4  12
HETATM   12  C   UNK N   1      24.887  22.138  -8.001  0.00  0.00     0.163 C 
HETATM   13  O   UNK N   1      25.065  21.651  -9.105  0.00  0.00    -0.648 OA
BRANCH  12  14
HETATM   14  O   UNK N   1      24.001  21.570  -7.160  0.00  0.00    -0.775 OA
HETATM   15  H   UNK N   1      23.717  20.696  -6.981  0.00  0.00     0.167 HD
ENDBRANCH  12  14
ENDBRANCH   4  12
ENDBRANCH   2   4
BRANCH   1  16
HETATM   16  C   UNK N   1      25.583  25.964  -6.123  0.00  0.00     0.060 C 
HETATM   17  C   UNK N   1      24.937  26.996  -5.186  0.00  0.00     0.013 C 
HETATM   18  C   UNK N   1      25.867  27.350  -4.017  0.00  0.00     0.006 C 
HETATM   19  C   UNK N   1      27.218  27.891  -4.516  0.00  0.00    -0.011 C 
HETATM   20  C   UNK N   1      27.862  26.840  -5.424  0.00  0.00     0.006 C 
HETATM   21  C   UNK N   1      26.946  26.489  -6.595  0.00  0.00     0.013 C 
BRANCH  19  22
HETATM   22  C   UNK N   1      27.052  29.239  -5.246  0.00  0.00    -0.019 C 
HETATM   23  C   UNK N   1      28.321  29.643  -5.980  0.00  0.00     0.010 C 
HETATM   24  C   UNK N   1      26.684  30.349  -4.275  0.00  0.00     0.010 C 
ENDBRANCH  19  22
ENDBRANCH   1  16
BRANCH   1  25
HETATM   25  O   UNK N   1      25.814  24.516  -4.124  0.00  0.00    -0.349 OA
HETATM   26  H   UNK N   1      26.130  25.009  -3.393  0.00  0.00     0.219 HD
ENDBRANCH   1  25
TORSDOF 8
ENDMDL
MODEL 6
REMARK VINA RESULT:      -6.0      1.205      1.722
REMARK  8 active torsions:
REMARK  status: ('A' for Active; 'I' for Inactive)
REMARK    1  A    between atoms: C_14  and  C_12 
REMARK    2  A    between atoms: C_17  and  C_12 
REMARK    3  A    between atoms: C_15  and  C_13 
REMARK    4  A    between atoms: C_16  and  C_18 
REMARK    5  A    between atoms: C_19  and  C_17 
REMARK    6  A    between atoms: C_17  and  N_20 
REMARK    7  A    between atoms: C_18  and  O_22 
REMARK    8  A    between atoms: O_24  and  C_19 
ROOT
HETATM    1  C   UNK N   1      27.292  24.592  -3.403  0.00  0.00     0.116 C 
HETATM    2  N   UNK N   1      26.250  25.324  -3.669  0.00  0.00    -0.359 N 
ATOM      3  HN  UNK N   1      25.371  25.048  -3.230  1.00  0.00     0.162 HD
ENDROOT
BRANCH   2   4
HETATM    4  C   UNK N   1      26.213  26.495  -4.527  0.00  0.00     0.185 C 
BRANCH   4   5
HETATM    5  C   UNK N   1      25.230  26.251  -5.686  0.00  0.00     0.074 C 
BRANCH   5   6
HETATM    6  C   UNK N   1      25.854  25.823  -6.984  0.00  0.00    -0.056 A 
HETATM    7  C   UNK N   1      25.686  24.502  -7.418  0.00  0.00     0.007 A 
HETATM    8  C   UNK N   1      26.263  24.075  -8.618  0.00  0.00     0.001 A 
HETATM    9  C   UNK N   1      27.019  24.966  -9.385  0.00  0.00     0.000 A 
HETATM   10  C   UNK N   1      27.197  26.283  -8.952  0.00  0.00     0.001 A 
HETATM   11  C   UNK N   1      26.615  26.712  -7.754  0.00  0.00     0.007 A 
ENDBRANCH   5   6
ENDBRANCH   4   5
BRANCH   4  12
HETATM   12  C   UNK N   1      25.870  27.727  -3.730  0.00  0.00     0.163 C 
HETATM   13  O   UNK N   1      25.937  27.701  -2.513  0.00  0.00    -0.648 OA
BRANCH  12  14
HETATM   14  O   UNK N   1      25.488  28.861  -4.349  0.00  0.00    -0.775 OA
HETATM   15  H   UNK N   1      24.851  29.084  -5.000  0.00  0.00     0.167 HD
ENDBRANCH  12  14
ENDBRANCH   4  12
ENDBRANCH   2   4
BRANCH   1  16
HETATM   16  C   UNK N   1      28.674  24.908  -3.962  0.00  0.00     0.060 C 
HETATM   17  C   UNK N   1      29.780  24.228  -3.138  0.00  0.00     0.013 C 
HETATM   18  C   UNK N   1      29.772  22.706  -3.338  0.00  0.00     0.006 C 
HETATM   19  C   UNK N   1      29.937  22.332  -4.822  0.00  0.00    -0.011 C 
HETATM   20  C   UNK N   1      28.812  22.992  -5.623  0.00  0.00     0.006 C 
HETATM   21  C   UNK N   1      28.820  24.508  -5.436  0.00  0.00     0.013 C 
BRANCH  19  22
HETATM   22  C   UNK N   1      31.324  22.743  -5.356  0.00  0.00    -0.019 C 
HETATM   23  C   UNK N   1      31.524  22.308  -6.800  0.00  0.00     0.010 C 
HETATM   24  C   UNK N   1      32.438  22.142  -4.515  0.00  0.00     0.010 C 
ENDBRANCH  19  22
ENDBRANCH   1  16
BRANCH   1  25
HETATM   25  O   UNK N   1      27.118  23.489  -2.653  0.00  0.00    -0.349 OA
HETATM   26  H   UNK N   1      27.364  22.586  -2.618  0.00  0.00     0.219 HD
ENDBRANCH   1  25
TORSDOF 8
ENDMDL
MODEL 7
REMARK VINA RESULT:      -6.0      3.043      6.215
REMARK  8 active torsions:
REMARK  status: ('A' for Active; 'I' for Inactive)
REMARK    1  A    between atoms: C_14  and  C_12 
REMARK    2  A    between atoms: C_17  and  C_12 
REMARK    3  A    between atoms: C_15  and  C_13 
REMARK    4  A    between atoms: C_16  and  C_18 
REMARK    5  A    between atoms: C_19  and  C_17 
REMARK    6  A    between atoms: C_17  and  N_20 
REMARK    7  A    between atoms: C_18  and  O_22 
REMARK    8  A    between atoms: O_24  and  C_19 
ROOT
HETATM    1  C   UNK N   1      30.366  24.858  -4.671  0.00  0.00     0.116 C 
HETATM    2  N   UNK N   1      30.983  23.714  -4.648  0.00  0.00    -0.359 N 
ATOM      3  HN  UNK N   1      31.887  23.670  -5.119  1.00  0.00     0.162 HD
ENDROOT
BRANCH   2   4
HETATM    4  C   UNK N   1      30.514  22.491  -4.019  0.00  0.00     0.185 C 
BRANCH   4   5
HETATM    5  C   UNK N   1      30.911  21.283  -4.884  0.00  0.00     0.074 C 
BRANCH   5   6
HETATM    6  C   UNK N   1      29.998  20.986  -6.040  0.00  0.00    -0.056 A 
HETATM    7  C   UNK N   1      30.158  19.785  -6.743  0.00  0.00     0.007 A 
HETATM    8  C   UNK N   1      29.328  19.487  -7.829  0.00  0.00     0.001 A 
HETATM    9  C   UNK N   1      28.340  20.395  -8.222  0.00  0.00     0.000 A 
HETATM   10  C   UNK N   1      28.183  21.599  -7.528  0.00  0.00     0.001 A 
HETATM   11  C   UNK N   1      29.010  21.894  -6.439  0.00  0.00     0.007 A 
ENDBRANCH   5   6
ENDBRANCH   4   5
BRANCH   4  12
HETATM   12  C   UNK N   1      31.034  22.386  -2.608  0.00  0.00     0.163 C 
HETATM   13  O   UNK N   1      30.523  23.051  -1.722  0.00  0.00    -0.648 OA
BRANCH  12  14
HETATM   14  O   UNK N   1      32.061  21.567  -2.314  0.00  0.00    -0.775 OA
HETATM   15  H   UNK N   1      32.597  21.412  -1.561  0.00  0.00     0.167 HD
ENDBRANCH  12  14
ENDBRANCH   4  12
ENDBRANCH   2   4
BRANCH   1  16
HETATM   16  C   UNK N   1      29.025  25.076  -3.980  0.00  0.00     0.060 C 
HETATM   17  C   UNK N   1      28.825  26.551  -3.598  0.00  0.00     0.013 C 
HETATM   18  C   UNK N   1      28.611  27.427  -4.840  0.00  0.00     0.006 C 
HETATM   19  C   UNK N   1      27.406  26.946  -5.668  0.00  0.00    -0.011 C 
HETATM   20  C   UNK N   1      27.635  25.485  -6.065  0.00  0.00     0.006 C 
HETATM   21  C   UNK N   1      27.839  24.606  -4.833  0.00  0.00     0.013 C 
BRANCH  19  22
HETATM   22  C   UNK N   1      26.084  27.118  -4.892  0.00  0.00    -0.019 C 
HETATM   23  C   UNK N   1      24.873  26.887  -5.783  0.00  0.00     0.010 C 
HETATM   24  C   UNK N   1      25.978  28.508  -4.287  0.00  0.00     0.010 C 
ENDBRANCH  19  22
ENDBRANCH   1  16
BRANCH   1  25
HETATM   25  O   UNK N   1      30.915  25.860  -5.380  0.00  0.00    -0.349 OA
HETATM   26  H   UNK N   1      31.347  26.025  -6.195  0.00  0.00     0.219 HD
ENDBRANCH   1  25
TORSDOF 8
ENDMDL
MODEL 8
REMARK VINA RESULT:      -5.9     14.051     16.046
REMARK  8 active torsions:
REMARK  status: ('A' for Active; 'I' for Inactive)
REMARK    1  A    between atoms: C_14  and  C_12 
REMARK    2  A    between atoms: C_17  and  C_12 
REMARK    3  A    between atoms: C_15  and  C_13 
REMARK    4  A    between atoms: C_16  and  C_18 
REMARK    5  A    between atoms: C_19  and  C_17 
REMARK    6  A    between atoms: C_17  and  N_20 
REMARK    7  A    between atoms: C_18  and  O_22 
REMARK    8  A    between atoms: O_24  and  C_19 
ROOT
HETATM    1  C   UNK N   1      19.530  16.375   4.288  0.00  0.00     0.116 C 
HETATM    2  N   UNK N   1      19.343  17.122   3.241  0.00  0.00    -0.359 N 
ATOM      3  HN  UNK N   1      18.414  17.527   3.126  1.00  0.00     0.162 HD
ENDROOT
BRANCH   2   4
HETATM    4  C   UNK N   1      20.324  17.436   2.217  0.00  0.00     0.185 C 
BRANCH   4   5
HETATM    5  C   UNK N   1      19.918  16.766   0.893  0.00  0.00     0.074 C 
BRANCH   5   6
HETATM    6  C   UNK N   1      20.188  15.291   0.803  0.00  0.00    -0.056 A 
HETATM    7  C   UNK N   1      21.511  14.836   0.880  0.00  0.00     0.007 A 
HETATM    8  C   UNK N   1      21.792  13.468   0.790  0.00  0.00     0.001 A 
HETATM    9  C   UNK N   1      20.752  12.552   0.615  0.00  0.00     0.000 A 
HETATM   10  C   UNK N   1      19.431  13.003   0.529  0.00  0.00     0.001 A 
HETATM   11  C   UNK N   1      19.150  14.370   0.624  0.00  0.00     0.007 A 
ENDBRANCH   5   6
ENDBRANCH   4   5
BRANCH   4  12
HETATM   12  C   UNK N   1      20.492  18.928   2.082  0.00  0.00     0.163 C 
HETATM   13  O   UNK N   1      20.559  19.624   3.081  0.00  0.00    -0.648 OA
BRANCH  12  14
HETATM   14  O   UNK N   1      20.566  19.503   0.866  0.00  0.00    -0.775 OA
HETATM   15  H   UNK N   1      20.166  20.242   0.452  0.00  0.00     0.167 HD
ENDBRANCH  12  14
ENDBRANCH   4  12
ENDBRANCH   2   4
BRANCH   1  16
HETATM   16  C   UNK N   1      20.876  15.733   4.603  0.00  0.00     0.060 C 
HETATM   17  C   UNK N   1      21.294  15.993   6.059  0.00  0.00     0.013 C 
HETATM   18  C   UNK N   1      20.411  15.214   7.043  0.00  0.00     0.006 C 
HETATM   19  C   UNK N   1      20.453  13.701   6.762  0.00  0.00    -0.011 C 
HETATM   20  C   UNK N   1      20.005  13.457   5.318  0.00  0.00     0.006 C 
HETATM   21  C   UNK N   1      20.887  14.222   4.333  0.00  0.00     0.013 C 
BRANCH  19  22
HETATM   22  C   UNK N   1      21.856  13.118   7.022  0.00  0.00    -0.019 C 
HETATM   23  C   UNK N   1      21.888  11.611   6.817  0.00  0.00     0.010 C 
HETATM   24  C   UNK N   1      22.325  13.420   8.437  0.00  0.00     0.010 C 
ENDBRANCH  19  22
ENDBRANCH   1  16
BRANCH   1  25
HETATM   25  O   UNK N   1      18.476  16.123   5.085  0.00  0.00    -0.349 OA
HETATM   26  H   UNK N   1      17.892  16.551   5.679  0.00  0.00     0.219 HD
ENDBRANCH   1  25
TORSDOF 8
ENDMDL
MODEL 9
REMARK VINA RESULT:      -5.6      2.807      6.471
REMARK  8 active torsions:
REMARK  status: ('A' for Active; 'I' for Inactive)
REMARK    1  A    between atoms: C_14  and  C_12 
REMARK    2  A    between atoms: C_17  and  C_12 
REMARK    3  A    between atoms: C_15  and  C_13 
REMARK    4  A    between atoms: C_16  and  C_18 
REMARK    5  A    between atoms: C_19  and  C_17 
REMARK    6  A    between atoms: C_17  and  N_20 
REMARK    7  A    between atoms: C_18  and  O_22 
REMARK    8  A    between atoms: O_24  and  C_19 
ROOT
HETATM    1  C   UNK N   1      26.521  24.317  -5.733  0.00  0.00     0.116 C 
HETATM    2  N   UNK N   1      27.072  23.473  -6.555  0.00  0.00    -0.359 N 
ATOM      3  HN  UNK N   1      26.443  22.856  -7.069  1.00  0.00     0.162 HD
ENDROOT
BRANCH   2   4
HETATM    4  C   UNK N   1      28.493  23.323  -6.815  0.00  0.00     0.185 C 
BRANCH   4   5
HETATM    5  C   UNK N   1      28.949  21.920  -6.380  0.00  0.00     0.074 C 
BRANCH   5   6
HETATM    6  C   UNK N   1      29.863  21.876  -5.189  0.00  0.00    -0.056 A 
HETATM    7  C   UNK N   1      30.824  20.861  -5.105  0.00  0.00     0.007 A 
HETATM    8  C   UNK N   1      31.683  20.791  -4.002  0.00  0.00     0.001 A 
HETATM    9  C   UNK N   1      31.576  21.732  -2.975  0.00  0.00     0.000 A 
HETATM   10  C   UNK N   1      30.613  22.742  -3.050  0.00  0.00     0.001 A 
HETATM   11  C   UNK N   1      29.758  22.815  -4.155  0.00  0.00     0.007 A 
ENDBRANCH   5   6
ENDBRANCH   4   5
BRANCH   4  12
HETATM   12  C   UNK N   1      28.801  23.607  -8.263  0.00  0.00     0.163 C 
HETATM   13  O   UNK N   1      28.180  24.472  -8.858  0.00  0.00    -0.648 OA
BRANCH  12  14
HETATM   14  O   UNK N   1      29.756  22.912  -8.911  0.00  0.00    -0.775 OA
HETATM   15  H   UNK N   1      30.637  23.082  -9.182  0.00  0.00     0.167 HD
ENDBRANCH  12  14
ENDBRANCH   4  12
ENDBRANCH   2   4
BRANCH   1  16
HETATM   16  C   UNK N   1      27.336  25.321  -4.926  0.00  0.00     0.060 C 
HETATM   17  C   UNK N   1      28.108  26.282  -5.844  0.00  0.00     0.013 C 
HETATM   18  C   UNK N   1      27.160  27.251  -6.564  0.00  0.00     0.006 C 
HETATM   19  C   UNK N   1      26.320  28.065  -5.563  0.00  0.00    -0.011 C 
HETATM   20  C   UNK N   1      25.535  27.094  -4.677  0.00  0.00     0.006 C 
HETATM   21  C   UNK N   1      26.473  26.132  -3.950  0.00  0.00     0.013 C 
BRANCH  19  22
HETATM   22  C   UNK N   1      27.203  29.007  -4.720  0.00  0.00    -0.019 C 
HETATM   23  C   UNK N   1      26.375  29.846  -3.760  0.00  0.00     0.010 C 
HETATM   24  C   UNK N   1      28.009  29.945  -5.605  0.00  0.00     0.010 C 
ENDBRANCH  19  22
ENDBRANCH   1  16
BRANCH   1  25
HETATM   25  O   UNK N   1      25.189  24.252  -5.556  0.00  0.00    -0.349 OA
HETATM   26  H   UNK N   1      24.543  24.250  -4.877  0.00  0.00     0.219 HD
ENDBRANCH   1  25
TORSDOF 8
ENDMDL
