MODEL 1
REMARK VINA RESULT:      -6.9      0.000      0.000
REMARK  13 active torsions:
REMARK  status: ('A' for Active; 'I' for Inactive)
REMARK    1  A    between atoms: C_5  and  O_14 
REMARK    2  A    between atoms: C_11  and  C_17 
REMARK    3  A    between atoms: C_13  and  O_27 
REMARK    4  A    between atoms: O_14  and  C_15 
REMARK    5  A    between atoms: C_15  and  C_16 
REMARK    6  A    between atoms: C_16  and  O_25 
REMARK    7  A    between atoms: C_17  and  C_18 
REMARK    8  A    between atoms: C_18  and  C_19 
REMARK    9  A    between atoms: C_19  and  C_20 
REMARK   10  A    between atoms: C_19  and  O_28 
REMARK   11  A    between atoms: C_20  and  C_21 
REMARK   12  A    between atoms: C_21  and  C_22 
REMARK   13  A    between atoms: C_22  and  C_23 
ROOT
HETATM    1  C   UNK N   1      28.416  17.023   7.394  0.00  0.00    -0.049 A 
HETATM    2  C   UNK N   1      27.973  17.639   8.568  0.00  0.00     0.008 A 
HETATM    3  C   UNK N   1      28.876  18.282   9.413  0.00  0.00     0.003 A 
HETATM    4  C   UNK N   1      30.233  18.290   9.103  0.00  0.00     0.037 A 
HETATM    5  C   UNK N   1      30.708  17.666   7.935  0.00  0.00     0.076 A 
HETATM    6  C   UNK N   1      29.790  17.043   7.068  0.00  0.00    -0.018 A 
HETATM    7  C   UNK N   1      30.277  16.420   5.792  0.00  0.00     0.047 C 
HETATM    8  C   UNK N   1      29.408  15.246   5.340  0.00  0.00    -0.003 C 
HETATM    9  C   UNK N   1      27.934  15.628   5.280  0.00  0.00     0.001 C 
HETATM   10  C   UNK N   1      27.399  16.302   6.551  0.00  0.00     0.044 C 
HETATM   11  C   UNK N   1      27.885  16.502   4.038  0.00  0.00     0.019 C 
HETATM   12  C   UNK N   1      29.746  14.942   3.884  0.00  0.00     0.037 C 
HETATM   13  C   UNK N   1      28.780  15.775   3.028  0.00  0.00     0.123 C 
ENDROOT
BRANCH  11  14
HETATM   14  C   UNK N   1      26.514  16.930   3.478  0.00  0.00     0.010 C 
BRANCH  14  15
HETATM   15  C   UNK N   1      25.571  17.599   4.481  0.00  0.00     0.032 C 
BRANCH  15  16
HETATM   16  C   UNK N   1      25.558  19.127   4.421  0.00  0.00     0.118 C 
BRANCH  16  17
HETATM   17  C   UNK N   1      26.745  19.726   3.663  0.00  0.00     0.032 C 
BRANCH  17  18
HETATM   18  C   UNK N   1      27.909  20.102   4.567  0.00  0.00     0.002 C 
BRANCH  18  19
HETATM   19  C   UNK N   1      27.410  20.163   5.999  0.00  0.00    -0.000 C 
BRANCH  19  20
HETATM   20  C   UNK N   1      27.194  21.600   6.420  0.00  0.00    -0.005 C 
HETATM   21  C   UNK N   1      26.095  21.653   7.461  0.00  0.00     0.005 C 
ENDBRANCH  19  20
ENDBRANCH  18  19
ENDBRANCH  17  18
ENDBRANCH  16  17
BRANCH  16  22
HETATM   22  O   UNK N   1      24.330  19.628   3.977  0.00  0.00    -0.396 OA
HETATM   23  H   UNK N   1      23.504  19.153   3.804  0.00  0.00     0.210 HD
ENDBRANCH  16  22
ENDBRANCH  15  16
ENDBRANCH  14  15
ENDBRANCH  11  14
BRANCH  13  24
HETATM   24  O   UNK N   1      28.034  14.895   2.241  0.00  0.00    -0.395 OA
HETATM   25  H   UNK N   1      28.294  14.577   1.363  0.00  0.00     0.210 HD
ENDBRANCH  13  24
BRANCH   5  26
HETATM   26  O   UNK N   1      32.036  17.635   7.645  0.00  0.00    -0.340 OA
BRANCH  26  27
HETATM   27  C   UNK N   1      33.064  17.879   8.543  0.00  0.00     0.285 C 
BRANCH  27  28
HETATM   28  C   UNK N   1      34.338  18.295   7.869  0.00  0.00     0.164 C 
HETATM   29  O   UNK N   1      34.580  17.895   6.741  0.00  0.00    -0.648 OA
BRANCH  28  30
HETATM   30  O   UNK N   1      35.203  19.122   8.485  0.00  0.00    -0.775 OA
HETATM   31  H   UNK N   1      35.472  19.889   8.950  0.00  0.00     0.167 HD
ENDBRANCH  28  30
ENDBRANCH  27  28
ENDBRANCH  26  27
ENDBRANCH   5  26
TORSDOF 13
ENDMDL
MODEL 2
REMARK VINA RESULT:      -6.8      2.238      4.279
REMARK  13 active torsions:
REMARK  status: ('A' for Active; 'I' for Inactive)
REMARK    1  A    between atoms: C_5  and  O_14 
REMARK    2  A    between atoms: C_11  and  C_17 
REMARK    3  A    between atoms: C_13  and  O_27 
REMARK    4  A    between atoms: O_14  and  C_15 
REMARK    5  A    between atoms: C_15  and  C_16 
REMARK    6  A    between atoms: C_16  and  O_25 
REMARK    7  A    between atoms: C_17  and  C_18 
REMARK    8  A    between atoms: C_18  and  C_19 
REMARK    9  A    between atoms: C_19  and  C_20 
REMARK   10  A    between atoms: C_19  and  O_28 
REMARK   11  A    between atoms: C_20  and  C_21 
REMARK   12  A    between atoms: C_21  and  C_22 
REMARK   13  A    between atoms: C_22  and  C_23 
ROOT
HETATM    1  C   UNK N   1      31.596  17.097   6.019  0.00  0.00    -0.049 A 
HETATM    2  C   UNK N   1      32.237  16.697   4.844  0.00  0.00     0.008 A 
HETATM    3  C   UNK N   1      33.536  16.192   4.884  0.00  0.00     0.003 A 
HETATM    4  C   UNK N   1      34.212  16.108   6.097  0.00  0.00     0.037 A 
HETATM    5  C   UNK N   1      33.597  16.518   7.294  0.00  0.00     0.076 A 
HETATM    6  C   UNK N   1      32.273  16.999   7.255  0.00  0.00    -0.018 A 
HETATM    7  C   UNK N   1      31.586  17.388   8.532  0.00  0.00     0.047 C 
HETATM    8  C   UNK N   1      30.538  18.483   8.327  0.00  0.00    -0.003 C 
HETATM    9  C   UNK N   1      29.556  18.121   7.219  0.00  0.00     0.001 C 
HETATM   10  C   UNK N   1      30.214  17.681   5.904  0.00  0.00     0.044 C 
HETATM   11  C   UNK N   1      28.710  17.049   7.886  0.00  0.00     0.019 C 
HETATM   12  C   UNK N   1      29.656  18.530   9.570  0.00  0.00     0.037 C 
HETATM   13  C   UNK N   1      28.478  17.579   9.305  0.00  0.00     0.123 C 
ENDROOT
BRANCH  11  14
HETATM   14  C   UNK N   1      27.433  16.556   7.177  0.00  0.00     0.010 C 
BRANCH  14  15
HETATM   15  C   UNK N   1      27.656  15.826   5.850  0.00  0.00     0.032 C 
BRANCH  15  16
HETATM   16  C   UNK N   1      26.863  16.392   4.670  0.00  0.00     0.118 C 
BRANCH  16  17
HETATM   17  C   UNK N   1      26.404  17.838   4.872  0.00  0.00     0.032 C 
BRANCH  17  18
HETATM   18  C   UNK N   1      27.015  18.809   3.873  0.00  0.00     0.002 C 
BRANCH  18  19
HETATM   19  C   UNK N   1      27.671  19.944   4.637  0.00  0.00    -0.000 C 
BRANCH  19  20
HETATM   20  C   UNK N   1      26.970  20.161   5.960  0.00  0.00    -0.005 C 
HETATM   21  C   UNK N   1      27.101  21.617   6.359  0.00  0.00     0.005 C 
ENDBRANCH  19  20
ENDBRANCH  18  19
ENDBRANCH  17  18
ENDBRANCH  16  17
BRANCH  16  22
HETATM   22  O   UNK N   1      27.521  16.203   3.451  0.00  0.00    -0.396 OA
HETATM   23  H   UNK N   1      28.472  16.207   3.265  0.00  0.00     0.210 HD
ENDBRANCH  16  22
ENDBRANCH  15  16
ENDBRANCH  14  15
ENDBRANCH  11  14
BRANCH  13  24
HETATM   24  O   UNK N   1      27.299  18.325   9.374  0.00  0.00    -0.395 OA
HETATM   25  H   UNK N   1      26.795  18.497  10.184  0.00  0.00     0.210 HD
ENDBRANCH  13  24
BRANCH   5  26
HETATM   26  O   UNK N   1      34.264  16.476   8.478  0.00  0.00    -0.340 OA
BRANCH  26  27
HETATM   27  C   UNK N   1      34.595  15.325   9.177  0.00  0.00     0.285 C 
BRANCH  27  28
HETATM   28  C   UNK N   1      34.504  15.503  10.664  0.00  0.00     0.164 C 
HETATM   29  O   UNK N   1      35.177  16.362  11.210  0.00  0.00    -0.648 OA
BRANCH  28  30
HETATM   30  O   UNK N   1      33.670  14.740  11.397  0.00  0.00    -0.775 OA
HETATM   31  H   UNK N   1      33.268  13.946  11.687  0.00  0.00     0.167 HD
ENDBRANCH  28  30
ENDBRANCH  27  28
ENDBRANCH  26  27
ENDBRANCH   5  26
TORSDOF 13
ENDMDL
MODEL 3
REMARK VINA RESULT:      -6.7      1.840      2.700
REMARK  13 active torsions:
REMARK  status: ('A' for Active; 'I' for Inactive)
REMARK    1  A    between atoms: C_5  and  O_14 
REMARK    2  A    between atoms: C_11  and  C_17 
REMARK    3  A    between atoms: C_13  and  O_27 
REMARK    4  A    between atoms: O_14  and  C_15 
REMARK    5  A    between atoms: C_15  and  C_16 
REMARK    6  A    between atoms: C_16  and  O_25 
REMARK    7  A    between atoms: C_17  and  C_18 
REMARK    8  A    between atoms: C_18  and  C_19 
REMARK    9  A    between atoms: C_19  and  C_20 
REMARK   10  A    between atoms: C_19  and  O_28 
REMARK   11  A    between atoms: C_20  and  C_21 
REMARK   12  A    between atoms: C_21  and  C_22 
REMARK   13  A    between atoms: C_22  and  C_23 
ROOT
HETATM    1  C   UNK N   1      28.600  17.550   7.540  0.00  0.00    -0.049 A 
HETATM    2  C   UNK N   1      28.318  18.281   8.696  0.00  0.00     0.008 A 
HETATM    3  C   UNK N   1      29.339  18.635   9.575  0.00  0.00     0.003 A 
HETATM    4  C   UNK N   1      30.648  18.237   9.318  0.00  0.00     0.037 A 
HETATM    5  C   UNK N   1      30.958  17.487   8.168  0.00  0.00     0.076 A 
HETATM    6  C   UNK N   1      29.928  17.157   7.265  0.00  0.00    -0.018 A 
HETATM    7  C   UNK N   1      30.255  16.404   6.008  0.00  0.00     0.047 C 
HETATM    8  C   UNK N   1      29.093  15.537   5.522  0.00  0.00    -0.003 C 
HETATM    9  C   UNK N   1      27.802  16.339   5.407  0.00  0.00     0.001 C 
HETATM   10  C   UNK N   1      27.446  17.155   6.658  0.00  0.00     0.044 C 
HETATM   11  C   UNK N   1      28.061  17.176   4.164  0.00  0.00     0.019 C 
HETATM   12  C   UNK N   1      29.378  15.131   4.080  0.00  0.00     0.037 C 
HETATM   13  C   UNK N   1      28.735  16.206   3.189  0.00  0.00     0.123 C 
ENDROOT
BRANCH  11  14
HETATM   14  C   UNK N   1      26.901  17.986   3.554  0.00  0.00     0.010 C 
BRANCH  14  15
HETATM   15  C   UNK N   1      26.881  19.477   3.902  0.00  0.00     0.032 C 
BRANCH  15  16
HETATM   16  C   UNK N   1      25.522  20.006   4.362  0.00  0.00     0.118 C 
BRANCH  16  17
HETATM   17  C   UNK N   1      24.499  20.147   3.230  0.00  0.00     0.032 C 
BRANCH  17  18
HETATM   18  C   UNK N   1      23.156  19.507   3.550  0.00  0.00     0.002 C 
BRANCH  18  19
HETATM   19  C   UNK N   1      22.068  20.276   2.824  0.00  0.00    -0.000 C 
BRANCH  19  20
HETATM   20  C   UNK N   1      20.717  19.984   3.440  0.00  0.00    -0.005 C 
HETATM   21  C   UNK N   1      20.087  18.809   2.722  0.00  0.00     0.005 C 
ENDBRANCH  19  20
ENDBRANCH  18  19
ENDBRANCH  17  18
ENDBRANCH  16  17
BRANCH  16  22
HETATM   22  O   UNK N   1      25.018  19.292   5.454  0.00  0.00    -0.396 OA
HETATM   23  H   UNK N   1      25.172  19.437   6.400  0.00  0.00     0.210 HD
ENDBRANCH  16  22
ENDBRANCH  15  16
ENDBRANCH  14  15
ENDBRANCH  11  14
BRANCH  13  24
HETATM   24  O   UNK N   1      27.791  15.580   2.373  0.00  0.00    -0.395 OA
HETATM   25  H   UNK N   1      26.928  15.251   2.670  0.00  0.00     0.210 HD
ENDBRANCH  13  24
BRANCH   5  26
HETATM   26  O   UNK N   1      32.226  17.061   7.928  0.00  0.00    -0.340 OA
BRANCH  26  27
HETATM   27  C   UNK N   1      33.350  17.420   8.658  0.00  0.00     0.285 C 
BRANCH  27  28
HETATM   28  C   UNK N   1      34.324  18.235   7.860  0.00  0.00     0.164 C 
HETATM   29  O   UNK N   1      34.389  18.080   6.651  0.00  0.00    -0.648 OA
BRANCH  28  30
HETATM   30  O   UNK N   1      35.108  19.149   8.461  0.00  0.00    -0.775 OA
HETATM   31  H   UNK N   1      35.301  19.898   8.989  0.00  0.00     0.167 HD
ENDBRANCH  28  30
ENDBRANCH  27  28
ENDBRANCH  26  27
ENDBRANCH   5  26
TORSDOF 13
ENDMDL
MODEL 4
REMARK VINA RESULT:      -6.6     12.036     16.110
REMARK  13 active torsions:
REMARK  status: ('A' for Active; 'I' for Inactive)
REMARK    1  A    between atoms: C_5  and  O_14 
REMARK    2  A    between atoms: C_11  and  C_17 
REMARK    3  A    between atoms: C_13  and  O_27 
REMARK    4  A    between atoms: O_14  and  C_15 
REMARK    5  A    between atoms: C_15  and  C_16 
REMARK    6  A    between atoms: C_16  and  O_25 
REMARK    7  A    between atoms: C_17  and  C_18 
REMARK    8  A    between atoms: C_18  and  C_19 
REMARK    9  A    between atoms: C_19  and  C_20 
REMARK   10  A    between atoms: C_19  and  O_28 
REMARK   11  A    between atoms: C_20  and  C_21 
REMARK   12  A    between atoms: C_21  and  C_22 
REMARK   13  A    between atoms: C_22  and  C_23 
ROOT
HETATM    1  C   UNK N   1      26.235  23.212  -7.351  0.00  0.00    -0.049 A 
HETATM    2  C   UNK N   1      26.375  22.020  -8.066  0.00  0.00     0.008 A 
HETATM    3  C   UNK N   1      26.658  22.043  -9.430  0.00  0.00     0.003 A 
HETATM    4  C   UNK N   1      26.779  23.260 -10.095  0.00  0.00     0.037 A 
HETATM    5  C   UNK N   1      26.629  24.476  -9.402  0.00  0.00     0.076 A 
HETATM    6  C   UNK N   1      26.373  24.449  -8.018  0.00  0.00    -0.018 A 
HETATM    7  C   UNK N   1      26.265  25.740  -7.257  0.00  0.00     0.047 C 
HETATM    8  C   UNK N   1      25.341  25.632  -6.043  0.00  0.00    -0.003 C 
HETATM    9  C   UNK N   1      25.720  24.455  -5.151  0.00  0.00     0.001 C 
HETATM   10  C   UNK N   1      25.878  23.120  -5.892  0.00  0.00     0.044 C 
HETATM   11  C   UNK N   1      26.992  24.959  -4.488  0.00  0.00     0.019 C 
HETATM   12  C   UNK N   1      25.596  26.840  -5.148  0.00  0.00     0.037 C 
HETATM   13  C   UNK N   1      26.688  26.422  -4.151  0.00  0.00     0.123 C 
ENDROOT
BRANCH  11  14
HETATM   14  C   UNK N   1      27.598  24.152  -3.323  0.00  0.00     0.010 C 
BRANCH  14  15
HETATM   15  C   UNK N   1      29.124  24.034  -3.325  0.00  0.00     0.032 C 
BRANCH  15  16
HETATM   16  C   UNK N   1      29.663  22.739  -2.714  0.00  0.00     0.118 C 
BRANCH  16  17
HETATM   17  C   UNK N   1      30.271  21.779  -3.741  0.00  0.00     0.032 C 
BRANCH  17  18
HETATM   18  C   UNK N   1      30.420  22.394  -5.125  0.00  0.00     0.002 C 
BRANCH  18  19
HETATM   19  C   UNK N   1      29.494  21.665  -6.081  0.00  0.00    -0.000 C 
BRANCH  19  20
HETATM   20  C   UNK N   1      30.151  20.401  -6.589  0.00  0.00    -0.005 C 
HETATM   21  C   UNK N   1      29.229  19.726  -7.584  0.00  0.00     0.005 C 
ENDBRANCH  19  20
ENDBRANCH  18  19
ENDBRANCH  17  18
ENDBRANCH  16  17
BRANCH  16  22
HETATM   22  O   UNK N   1      30.517  22.979  -1.633  0.00  0.00    -0.396 OA
HETATM   23  H   UNK N   1      31.125  23.719  -1.490  0.00  0.00     0.210 HD
ENDBRANCH  16  22
ENDBRANCH  15  16
ENDBRANCH  14  15
ENDBRANCH  11  14
BRANCH  13  24
HETATM   24  O   UNK N   1      26.162  26.541  -2.862  0.00  0.00    -0.395 OA
HETATM   25  H   UNK N   1      25.907  27.374  -2.439  0.00  0.00     0.210 HD
ENDBRANCH  13  24
BRANCH   5  26
HETATM   26  O   UNK N   1      26.707  25.669 -10.051  0.00  0.00    -0.340 OA
BRANCH  26  27
HETATM   27  C   UNK N   1      26.244  25.921 -11.334  0.00  0.00     0.285 C 
BRANCH  27  28
HETATM   28  C   UNK N   1      24.747  25.893 -11.427  0.00  0.00     0.164 C 
HETATM   29  O   UNK N   1      24.192  24.907 -11.885  0.00  0.00    -0.648 OA
BRANCH  28  30
HETATM   30  O   UNK N   1      24.012  26.932 -10.989  0.00  0.00    -0.775 OA
HETATM   31  H   UNK N   1      23.232  27.432 -10.852  0.00  0.00     0.167 HD
ENDBRANCH  28  30
ENDBRANCH  27  28
ENDBRANCH  26  27
ENDBRANCH   5  26
TORSDOF 13
ENDMDL
MODEL 5
REMARK VINA RESULT:      -6.4     10.584     13.106
REMARK  13 active torsions:
REMARK  status: ('A' for Active; 'I' for Inactive)
REMARK    1  A    between atoms: C_5  and  O_14 
REMARK    2  A    between atoms: C_11  and  C_17 
REMARK    3  A    between atoms: C_13  and  O_27 
REMARK    4  A    between atoms: O_14  and  C_15 
REMARK    5  A    between atoms: C_15  and  C_16 
REMARK    6  A    between atoms: C_16  and  O_25 
REMARK    7  A    between atoms: C_17  and  C_18 
REMARK    8  A    between atoms: C_18  and  C_19 
REMARK    9  A    between atoms: C_19  and  C_20 
REMARK   10  A    between atoms: C_19  and  O_28 
REMARK   11  A    between atoms: C_20  and  C_21 
REMARK   12  A    between atoms: C_21  and  C_22 
REMARK   13  A    between atoms: C_22  and  C_23 
ROOT
HETATM    1  C   UNK N   1      27.606  23.741  -3.795  0.00  0.00    -0.049 A 
HETATM    2  C   UNK N   1      27.630  23.673  -2.400  0.00  0.00     0.008 A 
HETATM    3  C   UNK N   1      28.785  23.275  -1.730  0.00  0.00     0.003 A 
HETATM    4  C   UNK N   1      29.919  22.917  -2.453  0.00  0.00     0.037 A 
HETATM    5  C   UNK N   1      29.919  22.962  -3.860  0.00  0.00     0.076 A 
HETATM    6  C   UNK N   1      28.760  23.394  -4.532  0.00  0.00    -0.018 A 
HETATM    7  C   UNK N   1      28.764  23.498  -6.030  0.00  0.00     0.047 C 
HETATM    8  C   UNK N   1      27.380  23.277  -6.640  0.00  0.00    -0.003 C 
HETATM    9  C   UNK N   1      26.331  24.173  -5.994  0.00  0.00     0.001 C 
HETATM   10  C   UNK N   1      26.313  24.127  -4.459  0.00  0.00     0.044 C 
HETATM   11  C   UNK N   1      26.677  25.534  -6.577  0.00  0.00     0.019 C 
HETATM   12  C   UNK N   1      27.416  23.771  -8.083  0.00  0.00     0.037 C 
HETATM   13  C   UNK N   1      26.987  25.247  -8.049  0.00  0.00     0.123 C 
ENDROOT
BRANCH  11  14
HETATM   14  C   UNK N   1      25.708  26.712  -6.351  0.00  0.00     0.010 C 
BRANCH  14  15
HETATM   15  C   UNK N   1      26.283  27.900  -5.574  0.00  0.00     0.032 C 
BRANCH  15  16
HETATM   16  C   UNK N   1      26.323  27.710  -4.057  0.00  0.00     0.118 C 
BRANCH  16  17
HETATM   17  C   UNK N   1      27.728  27.824  -3.458  0.00  0.00     0.032 C 
BRANCH  17  18
HETATM   18  C   UNK N   1      28.800  27.155  -4.305  0.00  0.00     0.002 C 
BRANCH  18  19
HETATM   19  C   UNK N   1      30.162  27.562  -3.773  0.00  0.00    -0.000 C 
BRANCH  19  20
HETATM   20  C   UNK N   1      30.995  26.337  -3.468  0.00  0.00    -0.005 C 
HETATM   21  C   UNK N   1      32.056  26.178  -4.537  0.00  0.00     0.005 C 
ENDBRANCH  19  20
ENDBRANCH  18  19
ENDBRANCH  17  18
ENDBRANCH  16  17
BRANCH  16  22
HETATM   22  O   UNK N   1      25.392  28.518  -3.398  0.00  0.00    -0.396 OA
HETATM   23  H   UNK N   1      25.275  29.479  -3.447  0.00  0.00     0.210 HD
ENDBRANCH  16  22
ENDBRANCH  15  16
ENDBRANCH  14  15
ENDBRANCH  11  14
BRANCH  13  24
HETATM   24  O   UNK N   1      25.842  25.380  -8.838  0.00  0.00    -0.395 OA
HETATM   25  H   UNK N   1      25.068  25.917  -8.609  0.00  0.00     0.210 HD
ENDBRANCH  13  24
BRANCH   5  26
HETATM   26  O   UNK N   1      31.009  22.577  -4.575  0.00  0.00    -0.340 OA
BRANCH  26  27
HETATM   27  C   UNK N   1      32.316  22.559  -4.109  0.00  0.00     0.285 C 
BRANCH  27  28
HETATM   28  C   UNK N   1      32.686  21.252  -3.471  0.00  0.00     0.164 C 
HETATM   29  O   UNK N   1      32.889  20.276  -4.175  0.00  0.00    -0.648 OA
BRANCH  28  30
HETATM   30  O   UNK N   1      32.819  21.154  -2.136  0.00  0.00    -0.775 OA
HETATM   31  H   UNK N   1      32.574  21.270  -1.239  0.00  0.00     0.167 HD
ENDBRANCH  28  30
ENDBRANCH  27  28
ENDBRANCH  26  27
ENDBRANCH   5  26
TORSDOF 13
ENDMDL
MODEL 6
REMARK VINA RESULT:      -6.4      3.914      8.629
REMARK  13 active torsions:
REMARK  status: ('A' for Active; 'I' for Inactive)
REMARK    1  A    between atoms: C_5  and  O_14 
REMARK    2  A    between atoms: C_11  and  C_17 
REMARK    3  A    between atoms: C_13  and  O_27 
REMARK    4  A    between atoms: O_14  and  C_15 
REMARK    5  A    between atoms: C_15  and  C_16 
REMARK    6  A    between atoms: C_16  and  O_25 
REMARK    7  A    between atoms: C_17  and  C_18 
REMARK    8  A    between atoms: C_18  and  C_19 
REMARK    9  A    between atoms: C_19  and  C_20 
REMARK   10  A    between atoms: C_19  and  O_28 
REMARK   11  A    between atoms: C_20  and  C_21 
REMARK   12  A    between atoms: C_21  and  C_22 
REMARK   13  A    between atoms: C_22  and  C_23 
ROOT
HETATM    1  C   UNK N   1      31.059  17.965   8.252  0.00  0.00    -0.049 A 
HETATM    2  C   UNK N   1      30.288  18.596   9.231  0.00  0.00     0.008 A 
HETATM    3  C   UNK N   1      28.900  18.474   9.224  0.00  0.00     0.003 A 
HETATM    4  C   UNK N   1      28.271  17.739   8.224  0.00  0.00     0.037 A 
HETATM    5  C   UNK N   1      29.023  17.104   7.217  0.00  0.00     0.076 A 
HETATM    6  C   UNK N   1      30.427  17.204   7.244  0.00  0.00    -0.018 A 
HETATM    7  C   UNK N   1      31.244  16.487   6.208  0.00  0.00     0.047 C 
HETATM    8  C   UNK N   1      32.566  17.193   5.908  0.00  0.00    -0.003 C 
HETATM    9  C   UNK N   1      33.354  17.477   7.181  0.00  0.00     0.001 C 
HETATM   10  C   UNK N   1      32.549  18.178   8.284  0.00  0.00     0.044 C 
HETATM   11  C   UNK N   1      33.858  16.092   7.555  0.00  0.00     0.019 C 
HETATM   12  C   UNK N   1      33.463  16.214   5.157  0.00  0.00     0.037 C 
HETATM   13  C   UNK N   1      34.288  15.473   6.222  0.00  0.00     0.123 C 
ENDROOT
BRANCH  11  14
HETATM   14  C   UNK N   1      34.899  15.956   8.684  0.00  0.00     0.010 C 
BRANCH  14  15
HETATM   15  C   UNK N   1      34.334  15.631  10.068  0.00  0.00     0.032 C 
BRANCH  15  16
HETATM   16  C   UNK N   1      35.385  15.510  11.173  0.00  0.00     0.118 C 
BRANCH  16  17
HETATM   17  C   UNK N   1      35.248  14.240  12.018  0.00  0.00     0.032 C 
BRANCH  17  18
HETATM   18  C   UNK N   1      36.514  13.889  12.786  0.00  0.00     0.002 C 
BRANCH  18  19
HETATM   19  C   UNK N   1      36.471  14.583  14.135  0.00  0.00    -0.000 C 
BRANCH  19  20
HETATM   20  C   UNK N   1      36.777  13.599  15.242  0.00  0.00    -0.005 C 
HETATM   21  C   UNK N   1      35.477  13.056  15.799  0.00  0.00     0.005 C 
ENDBRANCH  19  20
ENDBRANCH  18  19
ENDBRANCH  17  18
ENDBRANCH  16  17
BRANCH  16  22
HETATM   22  O   UNK N   1      36.684  15.696  10.690  0.00  0.00    -0.396 OA
HETATM   23  H   UNK N   1      37.245  16.485  10.737  0.00  0.00     0.210 HD
ENDBRANCH  16  22
ENDBRANCH  15  16
ENDBRANCH  14  15
ENDBRANCH  11  14
BRANCH  13  24
HETATM   24  O   UNK N   1      35.639  15.720   5.968  0.00  0.00    -0.395 OA
HETATM   25  H   UNK N   1      35.977  16.368   5.331  0.00  0.00     0.210 HD
ENDBRANCH  13  24
BRANCH   5  26
HETATM   26  O   UNK N   1      28.415  16.416   6.214  0.00  0.00    -0.340 OA
BRANCH  26  27
HETATM   27  C   UNK N   1      27.577  16.963   5.253  0.00  0.00     0.285 C 
BRANCH  27  28
HETATM   28  C   UNK N   1      28.286  17.925   4.345  0.00  0.00     0.164 C 
HETATM   29  O   UNK N   1      28.166  19.125   4.529  0.00  0.00    -0.648 OA
BRANCH  28  30
HETATM   30  O   UNK N   1      29.068  17.476   3.346  0.00  0.00    -0.775 OA
HETATM   31  H   UNK N   1      29.321  16.908   2.645  0.00  0.00     0.167 HD
ENDBRANCH  28  30
ENDBRANCH  27  28
ENDBRANCH  26  27
ENDBRANCH   5  26
TORSDOF 13
ENDMDL
MODEL 7
REMARK VINA RESULT:      -6.4      9.437     13.723
REMARK  13 active torsions:
REMARK  status: ('A' for Active; 'I' for Inactive)
REMARK    1  A    between atoms: C_5  and  O_14 
REMARK    2  A    between atoms: C_11  and  C_17 
REMARK    3  A    between atoms: C_13  and  O_27 
REMARK    4  A    between atoms: O_14  and  C_15 
REMARK    5  A    between atoms: C_15  and  C_16 
REMARK    6  A    between atoms: C_16  and  O_25 
REMARK    7  A    between atoms: C_17  and  C_18 
REMARK    8  A    between atoms: C_18  and  C_19 
REMARK    9  A    between atoms: C_19  and  C_20 
REMARK   10  A    between atoms: C_19  and  O_28 
REMARK   11  A    between atoms: C_20  and  C_21 
REMARK   12  A    between atoms: C_21  and  C_22 
REMARK   13  A    between atoms: C_22  and  C_23 
ROOT
HETATM    1  C   UNK N   1      34.254  11.001  13.319  0.00  0.00    -0.049 A 
HETATM    2  C   UNK N   1      33.966  10.287  12.153  0.00  0.00     0.008 A 
HETATM    3  C   UNK N   1      34.273  10.821  10.903  0.00  0.00     0.003 A 
HETATM    4  C   UNK N   1      34.847  12.085  10.809  0.00  0.00     0.037 A 
HETATM    5  C   UNK N   1      35.134  12.833  11.966  0.00  0.00     0.076 A 
HETATM    6  C   UNK N   1      34.850  12.277  13.229  0.00  0.00    -0.018 A 
HETATM    7  C   UNK N   1      35.202  13.042  14.473  0.00  0.00     0.047 C 
HETATM    8  C   UNK N   1      34.272  12.720  15.644  0.00  0.00    -0.003 C 
HETATM    9  C   UNK N   1      34.172  11.219  15.887  0.00  0.00     0.001 C 
HETATM   10  C   UNK N   1      33.851  10.392  14.635  0.00  0.00     0.044 C 
HETATM   11  C   UNK N   1      35.524  10.911  16.513  0.00  0.00     0.019 C 
HETATM   12  C   UNK N   1      34.928  13.235  16.921  0.00  0.00     0.037 C 
HETATM   13  C   UNK N   1      35.766  12.074  17.480  0.00  0.00     0.123 C 
ENDROOT
BRANCH  11  14
HETATM   14  C   UNK N   1      35.763   9.517  17.125  0.00  0.00     0.010 C 
BRANCH  14  15
HETATM   15  C   UNK N   1      37.169   8.943  16.931  0.00  0.00     0.032 C 
BRANCH  15  16
HETATM   16  C   UNK N   1      37.519   8.590  15.485  0.00  0.00     0.118 C 
BRANCH  16  17
HETATM   17  C   UNK N   1      38.558   9.522  14.855  0.00  0.00     0.032 C 
BRANCH  17  18
HETATM   18  C   UNK N   1      37.988  10.398  13.749  0.00  0.00     0.002 C 
BRANCH  18  19
HETATM   19  C   UNK N   1      37.451   9.502  12.649  0.00  0.00    -0.000 C 
BRANCH  19  20
HETATM   20  C   UNK N   1      37.877  10.019  11.294  0.00  0.00    -0.005 C 
HETATM   21  C   UNK N   1      38.853   9.041  10.672  0.00  0.00     0.005 C 
ENDBRANCH  19  20
ENDBRANCH  18  19
ENDBRANCH  17  18
ENDBRANCH  16  17
BRANCH  16  22
HETATM   22  O   UNK N   1      37.851   7.239  15.335  0.00  0.00    -0.396 OA
HETATM   23  H   UNK N   1      37.269   6.485  15.158  0.00  0.00     0.210 HD
ENDBRANCH  16  22
ENDBRANCH  15  16
ENDBRANCH  14  15
ENDBRANCH  11  14
BRANCH  13  24
HETATM   24  O   UNK N   1      35.288  11.772  18.756  0.00  0.00    -0.395 OA
HETATM   25  H   UNK N   1      35.183  12.412  19.477  0.00  0.00     0.210 HD
ENDBRANCH  13  24
BRANCH   5  26
HETATM   26  O   UNK N   1      35.658  14.085  11.883  0.00  0.00    -0.340 OA
BRANCH  26  27
HETATM   27  C   UNK N   1      34.989  15.211  11.427  0.00  0.00     0.285 C 
BRANCH  27  28
HETATM   28  C   UNK N   1      35.916  16.248  10.865  0.00  0.00     0.164 C 
HETATM   29  O   UNK N   1      35.469  17.331  10.523  0.00  0.00    -0.648 OA
BRANCH  28  30
HETATM   30  O   UNK N   1      37.235  16.004  10.756  0.00  0.00    -0.775 OA
HETATM   31  H   UNK N   1      38.146  16.128  10.931  0.00  0.00     0.167 HD
ENDBRANCH  28  30
ENDBRANCH  27  28
ENDBRANCH  26  27
ENDBRANCH   5  26
TORSDOF 13
ENDMDL
MODEL 8
REMARK VINA RESULT:      -6.3      9.825     12.805
REMARK  13 active torsions:
REMARK  status: ('A' for Active; 'I' for Inactive)
REMARK    1  A    between atoms: C_5  and  O_14 
REMARK    2  A    between atoms: C_11  and  C_17 
REMARK    3  A    between atoms: C_13  and  O_27 
REMARK    4  A    between atoms: O_14  and  C_15 
REMARK    5  A    between atoms: C_15  and  C_16 
REMARK    6  A    between atoms: C_16  and  O_25 
REMARK    7  A    between atoms: C_17  and  C_18 
REMARK    8  A    between atoms: C_18  and  C_19 
REMARK    9  A    between atoms: C_19  and  C_20 
REMARK   10  A    between atoms: C_19  and  O_28 
REMARK   11  A    between atoms: C_20  and  C_21 
REMARK   12  A    between atoms: C_21  and  C_22 
REMARK   13  A    between atoms: C_22  and  C_23 
ROOT
HETATM    1  C   UNK N   1      35.019  12.395  16.869  0.00  0.00    -0.049 A 
HETATM    2  C   UNK N   1      35.264  13.086  18.058  0.00  0.00     0.008 A 
HETATM    3  C   UNK N   1      35.372  12.399  19.265  0.00  0.00     0.003 A 
HETATM    4  C   UNK N   1      35.210  11.017  19.296  0.00  0.00     0.037 A 
HETATM    5  C   UNK N   1      34.949  10.297  18.116  0.00  0.00     0.076 A 
HETATM    6  C   UNK N   1      34.870  10.991  16.893  0.00  0.00    -0.018 A 
HETATM    7  C   UNK N   1      34.646  10.228  15.619  0.00  0.00     0.047 C 
HETATM    8  C   UNK N   1      33.907  11.050  14.563  0.00  0.00    -0.003 C 
HETATM    9  C   UNK N   1      34.579  12.398  14.328  0.00  0.00     0.001 C 
HETATM   10  C   UNK N   1      34.862  13.199  15.606  0.00  0.00     0.044 C 
HETATM   11  C   UNK N   1      35.822  11.998  13.549  0.00  0.00     0.019 C 
HETATM   12  C   UNK N   1      34.067  10.345  13.220  0.00  0.00     0.037 C 
HETATM   13  C   UNK N   1      35.326  10.935  12.564  0.00  0.00     0.123 C 
ENDROOT
BRANCH  11  14
HETATM   14  C   UNK N   1      36.689  13.101  12.909  0.00  0.00     0.010 C 
BRANCH  14  15
HETATM   15  C   UNK N   1      36.004  14.457  12.728  0.00  0.00     0.032 C 
BRANCH  15  16
HETATM   16  C   UNK N   1      35.997  14.980  11.290  0.00  0.00     0.118 C 
BRANCH  16  17
HETATM   17  C   UNK N   1      34.620  15.450  10.811  0.00  0.00     0.032 C 
BRANCH  17  18
HETATM   18  C   UNK N   1      34.690  16.573   9.787  0.00  0.00     0.002 C 
BRANCH  18  19
HETATM   19  C   UNK N   1      34.692  15.963   8.398  0.00  0.00    -0.000 C 
BRANCH  19  20
HETATM   20  C   UNK N   1      34.346  17.010   7.363  0.00  0.00    -0.005 C 
HETATM   21  C   UNK N   1      34.119  18.338   8.056  0.00  0.00     0.005 C 
ENDBRANCH  19  20
ENDBRANCH  18  19
ENDBRANCH  17  18
ENDBRANCH  16  17
BRANCH  16  22
HETATM   22  O   UNK N   1      36.996  15.932  11.068  0.00  0.00    -0.396 OA
HETATM   23  H   UNK N   1      37.930  15.906  11.323  0.00  0.00     0.210 HD
ENDBRANCH  16  22
ENDBRANCH  15  16
ENDBRANCH  14  15
ENDBRANCH  11  14
BRANCH  13  24
HETATM   24  O   UNK N   1      34.949  11.513  11.351  0.00  0.00    -0.395 OA
HETATM   25  H   UNK N   1      34.542  11.039  10.610  0.00  0.00     0.210 HD
ENDBRANCH  13  24
BRANCH   5  26
HETATM   26  O   UNK N   1      34.750   8.952  18.142  0.00  0.00    -0.340 OA
BRANCH  26  27
HETATM   27  C   UNK N   1      34.570   8.185  19.284  0.00  0.00     0.285 C 
BRANCH  27  28
HETATM   28  C   UNK N   1      33.136   7.805  19.507  0.00  0.00     0.164 C 
HETATM   29  O   UNK N   1      32.791   6.645  19.354  0.00  0.00    -0.648 OA
BRANCH  28  30
HETATM   30  O   UNK N   1      32.235   8.726  19.897  0.00  0.00    -0.775 OA
HETATM   31  H   UNK N   1      31.385   9.054  20.116  0.00  0.00     0.167 HD
ENDBRANCH  28  30
ENDBRANCH  27  28
ENDBRANCH  26  27
ENDBRANCH   5  26
TORSDOF 13
ENDMDL
MODEL 9
REMARK VINA RESULT:      -6.3      3.296      8.094
REMARK  13 active torsions:
REMARK  status: ('A' for Active; 'I' for Inactive)
REMARK    1  A    between atoms: C_5  and  O_14 
REMARK    2  A    between atoms: C_11  and  C_17 
REMARK    3  A    between atoms: C_13  and  O_27 
REMARK    4  A    between atoms: O_14  and  C_15 
REMARK    5  A    between atoms: C_15  and  C_16 
REMARK    6  A    between atoms: C_16  and  O_25 
REMARK    7  A    between atoms: C_17  and  C_18 
REMARK    8  A    between atoms: C_18  and  C_19 
REMARK    9  A    between atoms: C_19  and  C_20 
REMARK   10  A    between atoms: C_19  and  O_28 
REMARK   11  A    between atoms: C_20  and  C_21 
REMARK   12  A    between atoms: C_21  and  C_22 
REMARK   13  A    between atoms: C_22  and  C_23 
ROOT
HETATM    1  C   UNK N   1      31.081  17.734   8.120  0.00  0.00    -0.049 A 
HETATM    2  C   UNK N   1      30.339  18.170   9.221  0.00  0.00     0.008 A 
HETATM    3  C   UNK N   1      28.951  18.265   9.144  0.00  0.00     0.003 A 
HETATM    4  C   UNK N   1      28.297  17.950   7.956  0.00  0.00     0.037 A 
HETATM    5  C   UNK N   1      29.021  17.522   6.828  0.00  0.00     0.076 A 
HETATM    6  C   UNK N   1      30.421  17.398   6.918  0.00  0.00    -0.018 A 
HETATM    7  C   UNK N   1      31.200  16.891   5.739  0.00  0.00     0.047 C 
HETATM    8  C   UNK N   1      32.624  17.446   5.691  0.00  0.00    -0.003 C 
HETATM    9  C   UNK N   1      33.355  17.233   7.012  0.00  0.00     0.001 C 
HETATM   10  C   UNK N   1      32.580  17.703   8.251  0.00  0.00     0.044 C 
HETATM   11  C   UNK N   1      33.638  15.739   6.978  0.00  0.00     0.019 C 
HETATM   12  C   UNK N   1      33.428  16.598   4.711  0.00  0.00     0.037 C 
HETATM   13  C   UNK N   1      34.069  15.469   5.533  0.00  0.00     0.123 C 
ENDROOT
BRANCH  11  14
HETATM   14  C   UNK N   1      34.572  15.131   8.043  0.00  0.00     0.010 C 
BRANCH  14  15
HETATM   15  C   UNK N   1      33.893  14.234   9.081  0.00  0.00     0.032 C 
BRANCH  15  16
HETATM   16  C   UNK N   1      33.839  14.822  10.492  0.00  0.00     0.118 C 
BRANCH  16  17
HETATM   17  C   UNK N   1      34.768  16.022  10.698  0.00  0.00     0.032 C 
BRANCH  17  18
HETATM   18  C   UNK N   1      36.081  15.656  11.374  0.00  0.00     0.002 C 
BRANCH  18  19
HETATM   19  C   UNK N   1      35.879  14.377  12.166  0.00  0.00    -0.000 C 
BRANCH  19  20
HETATM   20  C   UNK N   1      37.006  13.406  11.892  0.00  0.00    -0.005 C 
HETATM   21  C   UNK N   1      36.488  12.273  11.030  0.00  0.00     0.005 C 
ENDBRANCH  19  20
ENDBRANCH  18  19
ENDBRANCH  17  18
ENDBRANCH  16  17
BRANCH  16  22
HETATM   22  O   UNK N   1      32.529  15.081  10.907  0.00  0.00    -0.396 OA
HETATM   23  H   UNK N   1      31.710  14.623  10.663  0.00  0.00     0.210 HD
ENDBRANCH  16  22
ENDBRANCH  15  16
ENDBRANCH  14  15
ENDBRANCH  11  14
BRANCH  13  24
HETATM   24  O   UNK N   1      35.455  15.570   5.396  0.00  0.00    -0.395 OA
HETATM   25  H   UNK N   1      35.993  16.311   5.715  0.00  0.00     0.210 HD
ENDBRANCH  13  24
BRANCH   5  26
HETATM   26  O   UNK N   1      28.395  17.249   5.653  0.00  0.00    -0.340 OA
BRANCH  26  27
HETATM   27  C   UNK N   1      27.931  18.193   4.748  0.00  0.00     0.285 C 
BRANCH  27  28
HETATM   28  C   UNK N   1      26.437  18.331   4.768  0.00  0.00     0.164 C 
HETATM   29  O   UNK N   1      25.762  17.678   3.989  0.00  0.00    -0.648 OA
BRANCH  28  30
HETATM   30  O   UNK N   1      25.836  19.149   5.652  0.00  0.00    -0.775 OA
HETATM   31  H   UNK N   1      25.532  19.426   6.493  0.00  0.00     0.167 HD
ENDBRANCH  28  30
ENDBRANCH  27  28
ENDBRANCH  26  27
ENDBRANCH   5  26
TORSDOF 13
ENDMDL
