REMARK WARNING: 32 MAX_TORS EXCEEDED!!!
REMARK  74 active torsions:
REMARK  status: ('A' for Active; 'I' for Inactive)
REMARK       I    between atoms: C_3  and  N_4 
REMARK       I    between atoms: C_3  and  N_5 
REMARK    1  A    between atoms: N_5  and  C_6 
REMARK    2  A    between atoms: C_6  and  C_7 
REMARK    3  A    between atoms: C_7  and  C_8 
REMARK    4  A    between atoms: C_8  and  C_9 
REMARK    5  A    between atoms: C_9  and  N_10 
REMARK    6  A    between atoms: C_9  and  C_29 
REMARK       I    between atoms: N_10  and  C_11 
REMARK    7  A    between atoms: C_13  and  C_11 
REMARK       I    between atoms: N_17  and  C_18 
REMARK    8  A    between atoms: C_18  and  C_20 
REMARK    9  A    between atoms: C_20  and  N_21 
REMARK   10  A    between atoms: C_20  and  C_22 
REMARK   11  A    between atoms: C_22  and  C_23 
REMARK       I    between atoms: C_29  and  N_31 
REMARK   12  A    between atoms: C_35  and  C_36 
REMARK       I    between atoms: C_36  and  N_38 
REMARK   13  A    between atoms: N_38  and  C_39 
REMARK   14  A    between atoms: C_39  and  C_40 
REMARK       I    between atoms: C_40  and  N_42 
REMARK   15  A    between atoms: N_42  and  C_43 
REMARK   16  A    between atoms: C_43  and  C_44 
REMARK       I    between atoms: C_44  and  N_46 
REMARK   17  A    between atoms: N_46  and  C_47 
REMARK   18  A    between atoms: C_47  and  C_48 
REMARK       I    between atoms: C_48  and  N_50 
REMARK   19  A    between atoms: N_50  and  C_51 
REMARK   20  A    between atoms: C_51  and  C_52 
REMARK       I    between atoms: C_52  and  N_54 
REMARK   21  A    between atoms: C_55  and  N_54 
REMARK   22  A    between atoms: C_55  and  C_56 
REMARK   23  A    between atoms: C_55  and  C_60 
REMARK   24  A    between atoms: C_56  and  C_57 
REMARK       I    between atoms: C_57  and  N_58 
REMARK       I    between atoms: C_60  and  N_62 
REMARK   25  A    between atoms: N_62  and  C_63 
REMARK   26  A    between atoms: C_63  and  C_64 
REMARK       I    between atoms: C_64  and  N_66 
REMARK   27  A    between atoms: C_67  and  N_66 
REMARK   28  A    between atoms: C_67  and  C_68 
REMARK   29  A    between atoms: C_67  and  C_72 
REMARK   30  A    between atoms: C_68  and  C_69 
REMARK   31  A    between atoms: C_69  and  O_70 
REMARK       I    between atoms: C_72  and  N_74 
REMARK   32  A    between atoms: C_75  and  N_74 
REMARK   33  A    between atoms: C_75  and  C_76 
REMARK   34  A    between atoms: C_75  and  C_83 
REMARK   35  A    between atoms: C_76  and  C_77 
REMARK       I    between atoms: C_83  and  N_85 
REMARK   36  A    between atoms: C_86  and  N_85 
REMARK   37  A    between atoms: C_86  and  C_87 
REMARK   38  A    between atoms: C_86  and  C_92 
REMARK   39  A    between atoms: C_87  and  C_88 
REMARK   40  A    between atoms: C_88  and  C_89 
REMARK   41  A    between atoms: C_89  and  O_90 
REMARK       I    between atoms: C_92  and  N_94 
REMARK   42  A    between atoms: C_95  and  N_94 
REMARK   43  A    between atoms: C_95  and  C_96 
REMARK   44  A    between atoms: C_95  and  C_101 
REMARK   45  A    between atoms: C_96  and  C_97 
REMARK   46  A    between atoms: C_97  and  C_98 
REMARK   47  A    between atoms: C_98  and  O_99 
REMARK       I    between atoms: C_101  and  N_103 
REMARK   48  A    between atoms: C_104  and  N_103 
REMARK   49  A    between atoms: C_104  and  C_105 
REMARK   50  A    between atoms: C_104  and  C_109 
REMARK   51  A    between atoms: C_105  and  C_107 
REMARK       I    between atoms: C_109  and  N_111 
REMARK   52  A    between atoms: C_115  and  C_116 
REMARK       I    between atoms: C_116  and  N_118 
REMARK   53  A    between atoms: C_119  and  N_118 
REMARK   54  A    between atoms: C_119  and  C_120 
REMARK   55  A    between atoms: C_119  and  C_125 
REMARK   56  A    between atoms: C_120  and  C_121 
REMARK   57  A    between atoms: C_121  and  C_122 
REMARK   58  A    between atoms: C_122  and  O_123 
REMARK       I    between atoms: C_125  and  N_127 
REMARK   59  A    between atoms: C_128  and  N_127 
REMARK   60  A    between atoms: C_128  and  C_129 
REMARK   61  A    between atoms: C_128  and  C_134 
REMARK   62  A    between atoms: C_129  and  C_130 
REMARK   63  A    between atoms: C_130  and  C_131 
REMARK   64  A    between atoms: C_131  and  O_132 
REMARK       I    between atoms: C_134  and  N_136 
REMARK   65  A    between atoms: C_137  and  N_136 
REMARK   66  A    between atoms: C_137  and  C_138 
REMARK   67  A    between atoms: C_137  and  C_146 
REMARK   68  A    between atoms: C_138  and  C_139 
REMARK   69  A    between atoms: C_142  and  O_143 
REMARK       I    between atoms: C_146  and  N_148 
REMARK   70  A    between atoms: C_149  and  N_148 
REMARK   71  A    between atoms: C_149  and  C_150 
REMARK   72  A    between atoms: C_149  and  C_154 
REMARK   73  A    between atoms: C_150  and  C_151 
REMARK   74  A    between atoms: C_154  and  O_155 
ROOT
HETATM    1  C   UNK N   1      -4.773 -13.947   0.685  0.00  0.00     0.180 C 
ENDROOT
BRANCH   1   2
HETATM    2  N   UNK N   1      -5.208 -14.540  -0.546  0.00  0.00    -0.346 N 
HETATM    3  C   UNK N   1      -6.458 -14.374  -0.995  0.00  0.00     0.241 C 
HETATM    4  O   UNK N   1      -6.689 -13.504  -1.817  0.00  0.00    -0.271 OA
HETATM    5  H   UNK N   1      -4.574 -15.080  -1.071  0.00  0.00     0.163 HD
BRANCH   3   6
HETATM    6  C   UNK N   1      -7.539 -15.297  -0.545  0.00  0.00     0.186 C 
BRANCH   6   7
HETATM    7  N   UNK N   1      -7.779 -15.193   0.883  0.00  0.00    -0.346 N 
HETATM    8  C   UNK N   1      -8.251 -14.102   1.543  0.00  0.00     0.236 C 
HETATM    9  O   UNK N   1      -8.390 -14.171   2.753  0.00  0.00    -0.272 OA
HETATM   10  H   UNK N   1      -7.581 -15.990   1.426  0.00  0.00     0.163 HD
BRANCH   8  11
HETATM   11  C   UNK N   1      -8.620 -12.800   0.867  0.00  0.00     0.225 C 
BRANCH  11  12
HETATM   12  N   UNK N   1      -8.963 -12.900  -0.538  0.00  0.00    -0.351 N 
HETATM   13  C   UNK N   1     -10.048 -13.548  -1.044  0.00  0.00     0.241 C 
HETATM   14  O   UNK N   1     -10.273 -13.479  -2.239  0.00  0.00    -0.271 OA
HETATM   15  H   UNK N   1      -8.360 -12.461  -1.181  0.00  0.00     0.163 HD
BRANCH  13  16
HETATM   16  C   UNK N   1     -11.044 -14.241  -0.166  0.00  0.00     0.185 C 
BRANCH  16  17
HETATM   17  N   UNK N   1     -11.410 -13.279   0.822  0.00  0.00    -0.346 N 
HETATM   18  C   UNK N   1     -12.544 -13.300   1.528  0.00  0.00     0.236 C 
HETATM   19  O   UNK N   1     -13.219 -14.316   1.606  0.00  0.00    -0.272 OA
HETATM   20  H   UNK N   1     -10.779 -12.544   0.997  0.00  0.00     0.163 HD
BRANCH  18  21
HETATM   21  C   UNK N   1     -13.124 -11.969   1.875  0.00  0.00     0.225 C 
BRANCH  21  22
HETATM   22  N   UNK N   1     -12.728 -10.966   0.881  0.00  0.00    -0.351 N 
HETATM   23  C   UNK N   1     -12.900 -10.947  -0.488  0.00  0.00     0.235 C 
HETATM   24  O   UNK N   1     -12.419 -10.017  -1.110  0.00  0.00    -0.272 OA
HETATM   25  H   UNK N   1     -12.266 -10.179   1.250  0.00  0.00     0.163 HD
BRANCH  23  26
HETATM   26  C   UNK N   1     -13.632 -11.990  -1.319  0.00  0.00     0.225 C 
BRANCH  26  27
HETATM   27  N   UNK N   1     -14.339 -12.983  -0.570  0.00  0.00    -0.351 N 
HETATM   28  C   UNK N   1     -15.366 -12.681   0.249  0.00  0.00     0.235 C 
HETATM   29  O   UNK N   1     -15.835 -13.567   0.943  0.00  0.00    -0.272 OA
HETATM   30  H   UNK N   1     -14.064 -13.924  -0.656  0.00  0.00     0.163 HD
BRANCH  28  31
HETATM   31  C   UNK N   1     -15.869 -11.264   0.408  0.00  0.00     0.225 C 
BRANCH  31  32
HETATM   32  N   UNK N   1     -17.095 -11.363   1.137  0.00  0.00    -0.351 N 
HETATM   33  C   UNK N   1     -18.270 -11.113   0.541  0.00  0.00     0.235 C 
HETATM   34  O   UNK N   1     -18.325 -10.434  -0.474  0.00  0.00    -0.272 OA
HETATM   35  H   UNK N   1     -17.076 -11.619   2.087  0.00  0.00     0.163 HD
BRANCH  33  36
HETATM   36  C   UNK N   1     -19.340 -12.085   0.813  0.00  0.00     0.225 C 
BRANCH  36  37
HETATM   37  N   UNK N   1     -19.003 -13.217  -0.025  0.00  0.00    -0.351 N 
HETATM   38  C   UNK N   1     -18.522 -14.386   0.458  0.00  0.00     0.241 C 
HETATM   39  O   UNK N   1     -18.459 -14.581   1.666  0.00  0.00    -0.271 OA
HETATM   40  H   UNK N   1     -19.130 -13.131  -0.998  0.00  0.00     0.163 HD
BRANCH  38  41
HETATM   41  C   UNK N   1     -18.039 -15.440  -0.512  0.00  0.00     0.179 C 
HETATM   42  C   UNK N   1     -16.647 -15.945  -0.164  0.00  0.00     0.037 C 
HETATM   43  C   UNK N   1     -16.865 -17.187   0.691  0.00  0.00     0.022 C 
HETATM   44  C   UNK N   1     -18.259 -17.680   0.338  0.00  0.00     0.127 C 
HETATM   45  N   UNK N   1     -18.864 -16.595  -0.387  0.00  0.00    -0.337 N 
HETATM   46  C   UNK N   1     -20.109 -16.648  -0.944  0.00  0.00     0.243 C 
HETATM   47  O   UNK N   1     -20.517 -15.708  -1.612  0.00  0.00    -0.271 OA
BRANCH  46  48
HETATM   48  C   UNK N   1     -21.013 -17.821  -0.746  0.00  0.00     0.176 C 
BRANCH  48  49
HETATM   49  C   UNK N   1     -20.333 -19.121  -1.197  0.00  0.00     0.036 C 
BRANCH  49  50
HETATM   50  C   UNK N   1     -20.853 -20.345  -0.448  0.00  0.00     0.023 C 
BRANCH  50  51
HETATM   51  C   UNK N   1     -19.764 -21.396  -0.273  0.00  0.00     0.138 C 
BRANCH  51  52
HETATM   52  N   UNK N   1     -18.610 -20.845   0.400  0.00  0.00    -0.227 N 
HETATM   53  C   UNK N   1     -17.307 -20.957  -0.156  0.00  0.00     0.665 C 
HETATM   54  N   UNK N   1     -17.116 -21.609  -1.244  0.00  0.00    -0.235 N 
HETATM   55  N   UNK N   1     -16.208 -20.365   0.505  0.00  0.00    -0.235 N 
HETATM   56  H   UNK N   1     -17.477 -21.986  -2.079  0.00  0.00     0.174 HD
ATOM     57  HN  UNK N   1     -16.125 -21.850  -1.244  1.00  0.00     0.174 HD
HETATM   58  H   UNK N   1     -15.468 -20.823   0.965  0.00  0.00     0.174 HD
HETATM   59  H   UNK N   1     -16.179 -19.381   0.505  0.00  0.00     0.174 HD
HETATM   60  H   UNK N   1     -18.728 -20.383   1.262  0.00  0.00     0.177 HD
ENDBRANCH  51  52
ENDBRANCH  50  51
ENDBRANCH  49  50
ENDBRANCH  48  49
BRANCH  48  61
HETATM   61  N   UNK N   1     -21.407 -17.883   0.639  0.00  0.00    -0.346 N 
HETATM   62  C   UNK N   1     -22.653 -17.551   1.048  0.00  0.00     0.241 C 
HETATM   63  O   UNK N   1     -22.962 -17.752   2.214  0.00  0.00    -0.271 OA
HETATM   64  H   UNK N   1     -20.748 -18.177   1.309  0.00  0.00     0.163 HD
BRANCH  62  65
HETATM   65  C   UNK N   1     -23.663 -16.920   0.101  0.00  0.00     0.179 C 
HETATM   66  C   UNK N   1     -24.800 -17.899  -0.148  0.00  0.00     0.037 C 
HETATM   67  C   UNK N   1     -25.945 -17.492   0.788  0.00  0.00     0.022 C 
HETATM   68  C   UNK N   1     -25.495 -16.226   1.497  0.00  0.00     0.127 C 
HETATM   69  N   UNK N   1     -24.310 -15.840   0.791  0.00  0.00    -0.337 N 
HETATM   70  C   UNK N   1     -23.973 -14.532   0.659  0.00  0.00     0.243 C 
HETATM   71  O   UNK N   1     -24.562 -13.690   1.322  0.00  0.00    -0.271 OA
BRANCH  70  72
HETATM   72  C   UNK N   1     -22.904 -14.091  -0.308  0.00  0.00     0.171 C 
BRANCH  72  73
HETATM   73  N   UNK N   1     -21.843 -13.425   0.414  0.00  0.00    -0.418 N 
HETATM   74  H   UNK N   1     -21.062 -13.838   0.923  0.00  0.00     0.150 HD
HETATM   75  H   UNK N   1     -21.881 -12.405   0.414  0.00  0.00     0.150 HD
ENDBRANCH  72  73
BRANCH  72  76
HETATM   76  C   UNK N   1     -23.477 -13.168  -1.404  0.00  0.00     0.072 C 
BRANCH  76  77
HETATM   77  C   UNK N   1     -24.219 -11.992  -0.839  0.00  0.00    -0.056 A 
HETATM   78  C   UNK N   1     -25.620 -12.003  -0.837  0.00  0.00     0.007 A 
HETATM   79  C   UNK N   1     -26.329 -10.979  -0.203  0.00  0.00     0.001 A 
HETATM   80  C   UNK N   1     -25.640  -9.939   0.426  0.00  0.00     0.000 A 
HETATM   81  C   UNK N   1     -24.242  -9.916   0.414  0.00  0.00     0.001 A 
HETATM   82  C   UNK N   1     -23.531 -10.946  -0.210  0.00  0.00     0.007 A 
ENDBRANCH  76  77
ENDBRANCH  72  76
ENDBRANCH  70  72
ENDBRANCH  62  65
ENDBRANCH  48  61
ENDBRANCH  46  48
ENDBRANCH  38  41
ENDBRANCH  36  37
ENDBRANCH  33  36
ENDBRANCH  31  32
ENDBRANCH  28  31
ENDBRANCH  26  27
ENDBRANCH  23  26
ENDBRANCH  21  22
ENDBRANCH  18  21
ENDBRANCH  16  17
BRANCH  16  83
HETATM   83  C   UNK N   1     -10.619 -15.600   0.376  0.00  0.00     0.137 C 
BRANCH  83  84
HETATM   84  C   UNK N   1     -10.648 -16.626  -0.724  0.00  0.00     0.217 C 
HETATM   85  N   UNK N   1     -11.363 -17.755  -0.567  0.00  0.00    -0.370 N 
HETATM   86  H   UNK N   1     -12.340 -17.716  -0.453  0.00  0.00     0.159 HD
HETATM   87  H   UNK N   1     -10.906 -18.627  -0.567  0.00  0.00     0.159 HD
HETATM   88  O   UNK N   1     -10.032 -16.443  -1.762  0.00  0.00    -0.274 OA
ENDBRANCH  83  84
ENDBRANCH  16  83
ENDBRANCH  13  16
ENDBRANCH  11  12
ENDBRANCH   8  11
ENDBRANCH   6   7
BRANCH   6  89
HETATM   89  C   UNK N   1      -7.174 -16.732  -0.957  0.00  0.00     0.144 C 
BRANCH  89  90
HETATM   90  C   UNK N   1      -6.629 -17.603   0.139  0.00  0.00     0.141 C 
HETATM   91  O   UNK N   1      -5.837 -17.160   0.953  0.00  0.00    -0.650 OA
BRANCH  90  92
HETATM   92  O   UNK N   1      -7.023 -18.885   0.226  0.00  0.00    -0.776 OA
HETATM   93  H   UNK N   1      -7.935 -19.093   0.287  0.00  0.00     0.167 HD
ENDBRANCH  90  92
ENDBRANCH  89  90
ENDBRANCH   6  89
ENDBRANCH   3   6
ENDBRANCH   1   2
BRANCH   1  94
HETATM   94  C   UNK N   1      -3.380 -14.478   1.077  0.00  0.00     0.073 C 
BRANCH  94  95
HETATM   95  C   UNK N   1      -3.181 -15.948   0.774  0.00  0.00    -0.056 A 
HETATM   96  C   UNK N   1      -2.886 -16.849   1.801  0.00  0.00     0.007 A 
HETATM   97  C   UNK N   1      -2.720 -18.211   1.512  0.00  0.00     0.001 A 
HETATM   98  C   UNK N   1      -2.846 -18.677   0.199  0.00  0.00     0.000 A 
HETATM   99  C   UNK N   1      -3.127 -17.783  -0.833  0.00  0.00     0.001 A 
HETATM  100  C   UNK N   1      -3.288 -16.429  -0.544  0.00  0.00     0.007 A 
ENDBRANCH  94  95
ENDBRANCH   1  94
BRANCH   1 101
HETATM  101  C   UNK N   1      -4.893 -12.445   0.509  0.00  0.00     0.241 C 
HETATM  102  O   UNK N   1      -5.767 -11.860   1.124  0.00  0.00    -0.271 OA
HETATM  103  N   UNK N   1      -4.174 -11.749  -0.413  0.00  0.00    -0.346 N 
HETATM  104  H   UNK N   1      -4.552 -10.894  -0.720  0.00  0.00     0.163 HD
BRANCH 103 105
HETATM  105  C   UNK N   1      -2.906 -12.149  -0.985  0.00  0.00     0.177 C 
BRANCH 105 106
HETATM  106  C   UNK N   1      -2.906 -13.470  -1.780  0.00  0.00     0.045 C 
BRANCH 106 107
HETATM  107  C   UNK N   1      -1.573 -13.753  -2.480  0.00  0.00     0.112 C 
BRANCH 107 108
HETATM  108  C   UNK N   1      -1.008 -15.098  -2.110  0.00  0.00     0.139 C 
HETATM  109  O   UNK N   1      -0.678 -15.337  -0.961  0.00  0.00    -0.650 OA
BRANCH 108 110
HETATM  110  O   UNK N   1      -0.845 -16.043  -3.053  0.00  0.00    -0.776 OA
HETATM  111  H   UNK N   1      -1.359 -16.470  -3.710  0.00  0.00     0.167 HD
ENDBRANCH 108 110
ENDBRANCH 107 108
ENDBRANCH 106 107
ENDBRANCH 105 106
BRANCH 105 112
HETATM  112  C   UNK N   1      -1.900 -12.040   0.115  0.00  0.00     0.241 C 
HETATM  113  O   UNK N   1      -1.910 -11.031   0.810  0.00  0.00    -0.271 OA
HETATM  114  N   UNK N   1      -0.952 -12.999   0.294  0.00  0.00    -0.346 N 
HETATM  115  H   UNK N   1      -1.003 -13.811  -0.260  0.00  0.00     0.163 HD
BRANCH 114 116
HETATM  116  C   UNK N   1       0.125 -12.894   1.252  0.00  0.00     0.177 C 
BRANCH 116 117
HETATM  117  C   UNK N   1       0.656 -11.462   1.259  0.00  0.00     0.045 C 
BRANCH 117 118
HETATM  118  C   UNK N   1       1.213 -11.001  -0.092  0.00  0.00     0.112 C 
BRANCH 118 119
HETATM  119  C   UNK N   1       0.554 -11.268  -1.417  0.00  0.00     0.139 C 
HETATM  120  O   UNK N   1       1.073 -12.047  -2.197  0.00  0.00    -0.650 OA
BRANCH 119 121
HETATM  121  O   UNK N   1      -0.511 -10.551  -1.815  0.00  0.00    -0.776 OA
HETATM  122  H   UNK N   1      -0.449  -9.658  -2.092  0.00  0.00     0.167 HD
ENDBRANCH 119 121
ENDBRANCH 118 119
ENDBRANCH 117 118
ENDBRANCH 116 117
BRANCH 116 123
HETATM  123  C   UNK N   1       1.238 -13.849   0.889  0.00  0.00     0.241 C 
HETATM  124  O   UNK N   1       1.849 -13.693  -0.156  0.00  0.00    -0.271 OA
HETATM  125  N   UNK N   1       1.578 -14.860   1.724  0.00  0.00    -0.346 N 
HETATM  126  H   UNK N   1       1.060 -14.976   2.554  0.00  0.00     0.163 HD
BRANCH 125 127
HETATM  127  C   UNK N   1       2.675 -15.788   1.455  0.00  0.00     0.180 C 
BRANCH 127 128
HETATM  128  C   UNK N   1       2.343 -16.830   0.353  0.00  0.00     0.013 C 
HETATM  129  C   UNK N   1       2.148 -16.248  -1.039  0.00  0.00     0.012 C 
BRANCH 128 130
HETATM  130  C   UNK N   1       1.110 -17.648   0.700  0.00  0.00     0.002 C 
HETATM  131  C   UNK N   1       1.395 -18.581   1.860  0.00  0.00     0.005 C 
ENDBRANCH 128 130
ENDBRANCH 127 128
BRANCH 127 132
HETATM  132  C   UNK N   1       4.049 -15.082   1.518  0.00  0.00     0.243 C 
HETATM  133  O   UNK N   1       4.228 -14.320   2.448  0.00  0.00    -0.271 OA
HETATM  134  N   UNK N   1       5.076 -15.303   0.621  0.00  0.00    -0.337 N 
HETATM  135  C   UNK N   1       5.016 -16.221  -0.470  0.00  0.00     0.127 C 
HETATM  136  C   UNK N   1       6.367 -14.645   0.755  0.00  0.00     0.179 C 
HETATM  137  C   UNK N   1       6.334 -16.066  -1.207  0.00  0.00     0.022 C 
HETATM  138  C   UNK N   1       7.268 -15.342  -0.247  0.00  0.00     0.037 C 
BRANCH 136 139
HETATM  139  C   UNK N   1       6.263 -13.183   0.441  0.00  0.00     0.241 C 
HETATM  140  O   UNK N   1       6.555 -12.370   1.307  0.00  0.00    -0.271 OA
HETATM  141  N   UNK N   1       5.762 -12.775  -0.761  0.00  0.00    -0.346 N 
HETATM  142  H   UNK N   1       5.666 -13.451  -1.470  0.00  0.00     0.163 HD
BRANCH 141 143
HETATM  143  C   UNK N   1       5.359 -11.409  -1.068  0.00  0.00     0.177 C 
BRANCH 143 144
HETATM  144  C   UNK N   1       6.547 -10.441  -1.149  0.00  0.00     0.045 C 
BRANCH 144 145
HETATM  145  C   UNK N   1       6.881  -9.743   0.162  0.00  0.00     0.112 C 
BRANCH 145 146
HETATM  146  C   UNK N   1       8.322  -9.364   0.180  0.00  0.00     0.139 C 
HETATM  147  O   UNK N   1       9.170 -10.201   0.441  0.00  0.00    -0.650 OA
BRANCH 146 148
HETATM  148  O   UNK N   1       8.687  -8.095  -0.080  0.00  0.00    -0.776 OA
HETATM  149  H   UNK N   1       9.579  -7.874  -0.261  0.00  0.00     0.167 HD
ENDBRANCH 146 148
ENDBRANCH 145 146
ENDBRANCH 144 145
ENDBRANCH 143 144
BRANCH 143 150
HETATM  150  C   UNK N   1       4.229 -10.995  -0.147  0.00  0.00     0.241 C 
HETATM  151  O   UNK N   1       3.901 -11.747   0.757  0.00  0.00    -0.271 OA
HETATM  152  N   UNK N   1       3.526  -9.851  -0.289  0.00  0.00    -0.346 N 
HETATM  153  H   UNK N   1       2.803  -9.722   0.367  0.00  0.00     0.163 HD
BRANCH 152 154
HETATM  154  C   UNK N   1       3.672  -8.797  -1.248  0.00  0.00     0.177 C 
BRANCH 154 155
HETATM  155  C   UNK N   1       2.372  -8.722  -2.100  0.00  0.00     0.045 C 
BRANCH 155 156
HETATM  156  C   UNK N   1       1.296  -7.673  -1.697  0.00  0.00     0.112 C 
BRANCH 156 157
HETATM  157  C   UNK N   1       0.359  -8.033  -0.572  0.00  0.00     0.139 C 
HETATM  158  O   UNK N   1      -0.846  -8.037  -0.767  0.00  0.00    -0.650 OA
BRANCH 157 159
HETATM  159  O   UNK N   1       0.825  -8.280   0.666  0.00  0.00    -0.776 OA
HETATM  160  H   UNK N   1       0.838  -8.647   1.528  0.00  0.00     0.167 HD
ENDBRANCH 157 159
ENDBRANCH 156 157
ENDBRANCH 155 156
ENDBRANCH 154 155
BRANCH 154 161
HETATM  161  C   UNK N   1       3.822  -7.530  -0.465  0.00  0.00     0.241 C 
HETATM  162  O   UNK N   1       4.028  -6.481  -1.052  0.00  0.00    -0.271 OA
HETATM  163  N   UNK N   1       3.558  -7.561   0.874  0.00  0.00    -0.346 N 
HETATM  164  H   UNK N   1       3.494  -8.451   1.288  0.00  0.00     0.163 HD
BRANCH 163 165
HETATM  165  C   UNK N   1       3.364  -6.429   1.748  0.00  0.00     0.180 C 
BRANCH 165 166
HETATM  166  C   UNK N   1       4.663  -5.687   2.073  0.00  0.00     0.073 C 
BRANCH 166 167
HETATM  167  C   UNK N   1       5.118  -4.756   1.013  0.00  0.00    -0.056 A 
HETATM  168  C   UNK N   1       4.442  -3.550   0.815  0.00  0.00     0.010 A 
HETATM  169  C   UNK N   1       4.850  -2.680  -0.192  0.00  0.00     0.037 A 
HETATM  170  C   UNK N   1       5.937  -3.008  -1.001  0.00  0.00     0.065 A 
HETATM  171  C   UNK N   1       6.630  -4.205  -0.793  0.00  0.00     0.037 A 
HETATM  172  C   UNK N   1       6.225  -5.078   0.220  0.00  0.00     0.010 A 
BRANCH 170 173
HETATM  173  O   UNK N   1       6.318  -2.171  -1.977  0.00  0.00    -0.361 OA
HETATM  174  H   UNK N   1       6.957  -2.109  -2.659  0.00  0.00     0.217 HD
ENDBRANCH 170 173
ENDBRANCH 166 167
ENDBRANCH 165 166
BRANCH 165 175
HETATM  175  C   UNK N   1       2.124  -5.648   1.373  0.00  0.00     0.241 C 
HETATM  176  O   UNK N   1       1.190  -5.622   2.156  0.00  0.00    -0.271 OA
HETATM  177  N   UNK N   1       2.026  -5.082   0.137  0.00  0.00    -0.345 N 
HETATM  178  H   UNK N   1       2.844  -5.122  -0.409  0.00  0.00     0.163 HD
BRANCH 177 179
HETATM  179  C   UNK N   1       0.887  -4.427  -0.498  0.00  0.00     0.182 C 
BRANCH 179 180
HETATM  180  C   UNK N   1       1.257  -3.028  -1.000  0.00  0.00     0.040 C 
BRANCH 180 181
HETATM  181  C   UNK N   1       1.315  -1.955   0.078  0.00  0.00    -0.020 C 
HETATM  182  C   UNK N   1      -0.060  -1.344   0.261  0.00  0.00     0.009 C 
HETATM  183  C   UNK N   1       2.248  -0.855  -0.378  0.00  0.00     0.009 C 
ENDBRANCH 180 181
ENDBRANCH 179 180
BRANCH 179 184
HETATM  184  C   UNK N   1      -0.455  -4.532   0.181  0.00  0.00     0.163 C 
HETATM  185  O   UNK N   1      -0.661  -3.995   1.258  0.00  0.00    -0.648 OA
BRANCH 184 186
HETATM  186  O   UNK N   1      -1.455  -5.189  -0.434  0.00  0.00    -0.775 OA
HETATM  187  H   UNK N   1      -2.199  -4.815  -0.863  0.00  0.00     0.167 HD
ENDBRANCH 184 186
ENDBRANCH 179 184
ENDBRANCH 177 179
ENDBRANCH 165 175
ENDBRANCH 163 165
ENDBRANCH 154 161
ENDBRANCH 152 154
ENDBRANCH 143 150
ENDBRANCH 141 143
ENDBRANCH 136 139
ENDBRANCH 127 132
ENDBRANCH 125 127
ENDBRANCH 116 123
ENDBRANCH 114 116
ENDBRANCH 105 112
ENDBRANCH 103 105
ENDBRANCH   1 101
TORSDOF 74
