MODEL 1
REMARK VINA RESULT:      -7.4      0.000      0.000
REMARK  1 active torsions:
REMARK  status: ('A' for Active; 'I' for Inactive)
REMARK    1  A    between atoms: C_15  and  N_7 
ROOT
HETATM    1  C   UNK N   1      35.997  13.365  16.102  0.00  0.00     0.039 A 
HETATM    2  C   UNK N   1      35.712  11.988  16.143  0.00  0.00    -0.030 A 
HETATM    3  C   UNK N   1      35.818  14.147  17.249  0.00  0.00     0.017 A 
HETATM    4  C   UNK N   1      35.215  11.403  17.326  0.00  0.00    -0.050 A 
HETATM    5  C   UNK N   1      35.322  13.567  18.421  0.00  0.00     0.002 A 
HETATM    6  C   UNK N   1      35.013  12.203  18.455  0.00  0.00     0.007 A 
HETATM    7  N   UNK N   1      36.262  13.236  13.650  0.00  0.00    -0.341 N 
HETATM    8  C   UNK N   1      35.515  11.987  13.712  0.00  0.00     0.136 C 
HETATM    9  C   UNK N   1      36.445  13.957  14.815  0.00  0.00     0.254 C 
HETATM   10  C   UNK N   1      35.970  11.166  14.903  0.00  0.00     0.038 C 
HETATM   11  C   UNK N   1      35.232   9.834  14.928  0.00  0.00     0.011 C 
HETATM   12  C   UNK N   1      35.496   9.125  16.245  0.00  0.00     0.005 C 
HETATM   13  C   UNK N   1      34.910   9.930  17.408  0.00  0.00     0.039 C 
HETATM   14  O   UNK N   1      36.949  15.069  14.808  0.00  0.00    -0.267 OA
ENDROOT
BRANCH   7  15
HETATM   15  C   UNK N   1      36.707  13.652  12.319  0.00  0.00     0.120 C 
HETATM   16  C   UNK N   1      36.692  12.571  11.205  0.00  0.00     0.298 C 
HETATM   17  N   UNK N   1      35.980  13.047  10.004  0.00  0.00     0.090 N 
HETATM   18  C   UNK N   1      36.622  14.282   9.513  0.00  0.00     0.273 C 
HETATM   19  C   UNK N   1      34.579  13.338  10.363  0.00  0.00     0.273 C 
HETATM   20  C   UNK N   1      36.574  15.403  10.574  0.00  0.00     0.037 C 
HETATM   21  C   UNK N   1      35.903  14.877  11.842  0.00  0.00     0.014 C 
HETATM   22  C   UNK N   1      34.490  14.413  11.469  0.00  0.00     0.037 C 
ENDBRANCH   7  15
TORSDOF 1
ENDMDL
MODEL 2
REMARK VINA RESULT:      -7.2     24.862     26.745
REMARK  1 active torsions:
REMARK  status: ('A' for Active; 'I' for Inactive)
REMARK    1  A    between atoms: C_15  and  N_7 
ROOT
HETATM    1  C   UNK N   1      26.138  27.595  -5.461  0.00  0.00     0.039 A 
HETATM    2  C   UNK N   1      27.185  28.201  -6.178  0.00  0.00    -0.030 A 
HETATM    3  C   UNK N   1      25.679  28.176  -4.273  0.00  0.00     0.017 A 
HETATM    4  C   UNK N   1      27.793  29.374  -5.685  0.00  0.00    -0.050 A 
HETATM    5  C   UNK N   1      26.285  29.337  -3.783  0.00  0.00     0.002 A 
HETATM    6  C   UNK N   1      27.344  29.927  -4.482  0.00  0.00     0.007 A 
HETATM    7  N   UNK N   1      26.286  25.611  -6.925  0.00  0.00    -0.341 N 
HETATM    8  C   UNK N   1      27.620  26.073  -7.286  0.00  0.00     0.136 C 
HETATM    9  C   UNK N   1      25.575  26.318  -5.974  0.00  0.00     0.254 C 
HETATM   10  C   UNK N   1      27.615  27.576  -7.483  0.00  0.00     0.038 C 
HETATM   11  C   UNK N   1      28.997  28.047  -7.922  0.00  0.00     0.011 C 
HETATM   12  C   UNK N   1      29.061  29.564  -7.874  0.00  0.00     0.005 C 
HETATM   13  C   UNK N   1      28.909  30.056  -6.433  0.00  0.00     0.039 C 
HETATM   14  O   UNK N   1      24.510  25.912  -5.537  0.00  0.00    -0.267 OA
ENDROOT
BRANCH   7  15
HETATM   15  C   UNK N   1      25.837  24.378  -7.573  0.00  0.00     0.120 C 
HETATM   16  C   UNK N   1      26.514  24.008  -8.921  0.00  0.00     0.298 C 
HETATM   17  N   UNK N   1      27.011  22.619  -8.908  0.00  0.00     0.090 N 
HETATM   18  C   UNK N   1      25.891  21.701  -8.625  0.00  0.00     0.273 C 
HETATM   19  C   UNK N   1      28.027  22.486  -7.846  0.00  0.00     0.273 C 
HETATM   20  C   UNK N   1      25.254  21.994  -7.249  0.00  0.00     0.037 C 
HETATM   21  C   UNK N   1      25.960  23.187  -6.604  0.00  0.00     0.014 C 
HETATM   22  C   UNK N   1      27.445  22.832  -6.458  0.00  0.00     0.037 C 
ENDBRANCH   7  15
TORSDOF 1
ENDMDL
MODEL 3
REMARK VINA RESULT:      -7.1     22.022     24.867
REMARK  1 active torsions:
REMARK  status: ('A' for Active; 'I' for Inactive)
REMARK    1  A    between atoms: C_15  and  N_7 
ROOT
HETATM    1  C   UNK N   1      27.516  22.275  -7.048  0.00  0.00     0.039 A 
HETATM    2  C   UNK N   1      28.705  22.076  -6.325  0.00  0.00    -0.030 A 
HETATM    3  C   UNK N   1      27.259  21.510  -8.193  0.00  0.00     0.017 A 
HETATM    4  C   UNK N   1      29.652  21.130  -6.768  0.00  0.00    -0.050 A 
HETATM    5  C   UNK N   1      28.201  20.575  -8.633  0.00  0.00     0.002 A 
HETATM    6  C   UNK N   1      29.396  20.393  -7.929  0.00  0.00     0.007 A 
HETATM    7  N   UNK N   1      27.033  24.286  -5.698  0.00  0.00    -0.341 N 
HETATM    8  C   UNK N   1      28.446  24.293  -5.344  0.00  0.00     0.136 C 
HETATM    9  C   UNK N   1      26.579  23.336  -6.592  0.00  0.00     0.254 C 
HETATM   10  C   UNK N   1      28.921  22.881  -5.066  0.00  0.00     0.038 C 
HETATM   11  C   UNK N   1      30.383  22.899  -4.635  0.00  0.00     0.011 C 
HETATM   12  C   UNK N   1      30.926  21.481  -4.603  0.00  0.00     0.005 C 
HETATM   13  C   UNK N   1      30.931  20.882  -6.011  0.00  0.00     0.039 C 
HETATM   14  O   UNK N   1      25.437  23.356  -7.025  0.00  0.00    -0.267 OA
ENDROOT
BRANCH   7  15
HETATM   15  C   UNK N   1      26.218  25.349  -5.106  0.00  0.00     0.120 C 
HETATM   16  C   UNK N   1      26.860  26.164  -3.951  0.00  0.00     0.298 C 
HETATM   17  N   UNK N   1      26.757  27.615  -4.197  0.00  0.00     0.090 N 
HETATM   18  C   UNK N   1      25.338  27.984  -4.360  0.00  0.00     0.273 C 
HETATM   19  C   UNK N   1      27.489  27.942  -5.435  0.00  0.00     0.273 C 
HETATM   20  C   UNK N   1      24.697  27.249  -5.557  0.00  0.00     0.037 C 
HETATM   21  C   UNK N   1      25.729  26.320  -6.197  0.00  0.00     0.014 C 
HETATM   22  C   UNK N   1      26.917  27.178  -6.650  0.00  0.00     0.037 C 
ENDBRANCH   7  15
TORSDOF 1
ENDMDL
MODEL 4
REMARK VINA RESULT:      -7.0      1.710      3.318
REMARK  1 active torsions:
REMARK  status: ('A' for Active; 'I' for Inactive)
REMARK    1  A    between atoms: C_15  and  N_7 
ROOT
HETATM    1  C   UNK N   1      34.816  10.600  15.866  0.00  0.00     0.039 A 
HETATM    2  C   UNK N   1      35.024  11.663  16.763  0.00  0.00    -0.030 A 
HETATM    3  C   UNK N   1      34.815   9.281  16.336  0.00  0.00     0.017 A 
HETATM    4  C   UNK N   1      35.262  11.400  18.127  0.00  0.00    -0.050 A 
HETATM    5  C   UNK N   1      35.055   9.021  17.689  0.00  0.00     0.002 A 
HETATM    6  C   UNK N   1      35.287  10.076  18.578  0.00  0.00     0.007 A 
HETATM    7  N   UNK N   1      35.009  12.167  13.967  0.00  0.00    -0.341 N 
HETATM    8  C   UNK N   1      35.671  13.081  14.888  0.00  0.00     0.136 C 
HETATM    9  C   UNK N   1      34.645  10.914  14.423  0.00  0.00     0.254 C 
HETATM   10  C   UNK N   1      34.964  13.074  16.228  0.00  0.00     0.038 C 
HETATM   11  C   UNK N   1      35.621  14.076  17.169  0.00  0.00     0.011 C 
HETATM   12  C   UNK N   1      35.082  13.890  18.576  0.00  0.00     0.005 C 
HETATM   13  C   UNK N   1      35.477  12.515  19.118  0.00  0.00     0.039 C 
HETATM   14  O   UNK N   1      34.204  10.061  13.670  0.00  0.00    -0.267 OA
ENDROOT
BRANCH   7  15
HETATM   15  C   UNK N   1      34.841  12.650  12.594  0.00  0.00     0.120 C 
HETATM   16  C   UNK N   1      35.333  14.091  12.293  0.00  0.00     0.298 C 
HETATM   17  N   UNK N   1      36.220  14.119  11.115  0.00  0.00     0.090 N 
HETATM   18  C   UNK N   1      35.504  13.566   9.949  0.00  0.00     0.273 C 
HETATM   19  C   UNK N   1      37.408  13.290  11.392  0.00  0.00     0.273 C 
HETATM   20  C   UNK N   1      35.077  12.102  10.192  0.00  0.00     0.037 C 
HETATM   21  C   UNK N   1      35.497  11.675  11.599  0.00  0.00     0.014 C 
HETATM   22  C   UNK N   1      37.019  11.828  11.702  0.00  0.00     0.037 C 
ENDBRANCH   7  15
TORSDOF 1
ENDMDL
MODEL 5
REMARK VINA RESULT:      -6.9     22.365     24.839
REMARK  1 active torsions:
REMARK  status: ('A' for Active; 'I' for Inactive)
REMARK    1  A    between atoms: C_15  and  N_7 
ROOT
HETATM    1  C   UNK N   1      28.951  22.656  -5.545  0.00  0.00     0.039 A 
HETATM    2  C   UNK N   1      28.447  22.108  -6.738  0.00  0.00    -0.030 A 
HETATM    3  C   UNK N   1      30.075  22.086  -4.936  0.00  0.00     0.017 A 
HETATM    4  C   UNK N   1      29.054  20.967  -7.303  0.00  0.00    -0.050 A 
HETATM    5  C   UNK N   1      30.674  20.953  -5.495  0.00  0.00     0.002 A 
HETATM    6  C   UNK N   1      30.159  20.391  -6.669  0.00  0.00     0.007 A 
HETATM    7  N   UNK N   1      26.955  24.100  -5.368  0.00  0.00    -0.341 N 
HETATM    8  C   UNK N   1      26.304  23.182  -6.294  0.00  0.00     0.136 C 
HETATM    9  C   UNK N   1      28.236  23.811  -4.940  0.00  0.00     0.254 C 
HETATM   10  C   UNK N   1      27.267  22.782  -7.395  0.00  0.00     0.038 C 
HETATM   11  C   UNK N   1      26.564  21.873  -8.395  0.00  0.00     0.011 C 
HETATM   12  C   UNK N   1      27.583  21.273  -9.348  0.00  0.00     0.005 C 
HETATM   13  C   UNK N   1      28.548  20.361  -8.587  0.00  0.00     0.039 C 
HETATM   14  O   UNK N   1      28.785  24.469  -4.070  0.00  0.00    -0.267 OA
ENDROOT
BRANCH   7  15
HETATM   15  C   UNK N   1      26.149  25.237  -4.920  0.00  0.00     0.120 C 
HETATM   16  C   UNK N   1      26.750  26.123  -3.796  0.00  0.00     0.298 C 
HETATM   17  N   UNK N   1      26.722  27.551  -4.166  0.00  0.00     0.090 N 
HETATM   18  C   UNK N   1      25.331  27.955  -4.451  0.00  0.00     0.273 C 
HETATM   19  C   UNK N   1      27.542  27.747  -5.377  0.00  0.00     0.273 C 
HETATM   20  C   UNK N   1      24.737  27.145  -5.624  0.00  0.00     0.037 C 
HETATM   21  C   UNK N   1      25.769  26.130  -6.116  0.00  0.00     0.014 C 
HETATM   22  C   UNK N   1      27.016  26.904  -6.559  0.00  0.00     0.037 C 
ENDBRANCH   7  15
TORSDOF 1
ENDMDL
MODEL 6
REMARK VINA RESULT:      -6.8      2.164      3.105
REMARK  1 active torsions:
REMARK  status: ('A' for Active; 'I' for Inactive)
REMARK    1  A    between atoms: C_15  and  N_7 
ROOT
HETATM    1  C   UNK N   1      35.130  12.584  16.711  0.00  0.00     0.039 A 
HETATM    2  C   UNK N   1      35.310  11.328  17.317  0.00  0.00    -0.030 A 
HETATM    3  C   UNK N   1      35.095  13.741  17.500  0.00  0.00     0.017 A 
HETATM    4  C   UNK N   1      35.421  11.230  18.720  0.00  0.00    -0.050 A 
HETATM    5  C   UNK N   1      35.202  13.641  18.890  0.00  0.00     0.002 A 
HETATM    6  C   UNK N   1      35.355  12.390  19.497  0.00  0.00     0.007 A 
HETATM    7  N   UNK N   1      34.625  11.473  14.564  0.00  0.00    -0.341 N 
HETATM    8  C   UNK N   1      34.358  10.268  15.338  0.00  0.00     0.136 C 
HETATM    9  C   UNK N   1      34.939  12.638  15.237  0.00  0.00     0.254 C 
HETATM   10  C   UNK N   1      35.398  10.110  16.430  0.00  0.00     0.038 C 
HETATM   11  C   UNK N   1      35.153   8.817  17.198  0.00  0.00     0.011 C 
HETATM   12  C   UNK N   1      36.027   8.782  18.439  0.00  0.00     0.005 C 
HETATM   13  C   UNK N   1      35.626   9.902  19.402  0.00  0.00     0.039 C 
HETATM   14  O   UNK N   1      35.048  13.706  14.656  0.00  0.00    -0.267 OA
ENDROOT
BRANCH   7  15
HETATM   15  C   UNK N   1      34.471  11.350  13.113  0.00  0.00     0.120 C 
HETATM   16  C   UNK N   1      35.698  11.733  12.243  0.00  0.00     0.298 C 
HETATM   17  N   UNK N   1      36.026  10.667  11.278  0.00  0.00     0.090 N 
HETATM   18  C   UNK N   1      34.852  10.402  10.424  0.00  0.00     0.273 C 
HETATM   19  C   UNK N   1      36.372   9.440  12.022  0.00  0.00     0.273 C 
HETATM   20  C   UNK N   1      33.640   9.936  11.258  0.00  0.00     0.037 C 
HETATM   21  C   UNK N   1      34.015   9.927  12.741  0.00  0.00     0.014 C 
HETATM   22  C   UNK N   1      35.204   8.975  12.919  0.00  0.00     0.037 C 
ENDBRANCH   7  15
TORSDOF 1
ENDMDL
MODEL 7
REMARK VINA RESULT:      -6.8     25.088     26.871
REMARK  1 active torsions:
REMARK  status: ('A' for Active; 'I' for Inactive)
REMARK    1  A    between atoms: C_15  and  N_7 
ROOT
HETATM    1  C   UNK N   1      27.821  27.425  -7.409  0.00  0.00     0.039 A 
HETATM    2  C   UNK N   1      27.192  27.881  -6.236  0.00  0.00    -0.030 A 
HETATM    3  C   UNK N   1      28.783  28.223  -8.039  0.00  0.00     0.017 A 
HETATM    4  C   UNK N   1      27.506  29.153  -5.715  0.00  0.00    -0.050 A 
HETATM    5  C   UNK N   1      29.091  29.486  -7.523  0.00  0.00     0.002 A 
HETATM    6  C   UNK N   1      28.448  29.951  -6.371  0.00  0.00     0.007 A 
HETATM    7  N   UNK N   1      26.226  25.543  -7.530  0.00  0.00    -0.341 N 
HETATM    8  C   UNK N   1      25.369  26.312  -6.638  0.00  0.00     0.136 C 
HETATM    9  C   UNK N   1      27.406  26.112  -7.970  0.00  0.00     0.254 C 
HETATM   10  C   UNK N   1      26.200  26.969  -5.554  0.00  0.00     0.038 C 
HETATM   11  C   UNK N   1      25.293  27.722  -4.588  0.00  0.00     0.011 C 
HETATM   12  C   UNK N   1      26.133  28.581  -3.659  0.00  0.00     0.005 C 
HETATM   13  C   UNK N   1      26.860  29.668  -4.454  0.00  0.00     0.039 C 
HETATM   14  O   UNK N   1      28.103  25.572  -8.814  0.00  0.00    -0.267 OA
ENDROOT
BRANCH   7  15
HETATM   15  C   UNK N   1      25.717  24.231  -7.934  0.00  0.00     0.120 C 
HETATM   16  C   UNK N   1      26.322  23.611  -9.223  0.00  0.00     0.298 C 
HETATM   17  N   UNK N   1      26.784  22.230  -8.988  0.00  0.00     0.090 N 
HETATM   18  C   UNK N   1      25.655  21.412  -8.504  0.00  0.00     0.273 C 
HETATM   19  C   UNK N   1      27.844  22.250  -7.962  0.00  0.00     0.273 C 
HETATM   20  C   UNK N   1      25.089  21.959  -7.176  0.00  0.00     0.037 C 
HETATM   21  C   UNK N   1      25.854  23.222  -6.778  0.00  0.00     0.014 C 
HETATM   22  C   UNK N   1      27.334  22.850  -6.633  0.00  0.00     0.037 C 
ENDBRANCH   7  15
TORSDOF 1
ENDMDL
MODEL 8
REMARK VINA RESULT:      -6.7      8.786     12.432
REMARK  1 active torsions:
REMARK  status: ('A' for Active; 'I' for Inactive)
REMARK    1  A    between atoms: C_15  and  N_7 
ROOT
HETATM    1  C   UNK N   1      28.039  19.046   6.621  0.00  0.00     0.039 A 
HETATM    2  C   UNK N   1      27.508  18.488   5.444  0.00  0.00    -0.030 A 
HETATM    3  C   UNK N   1      27.577  20.288   7.073  0.00  0.00     0.017 A 
HETATM    4  C   UNK N   1      26.536  19.192   4.704  0.00  0.00    -0.050 A 
HETATM    5  C   UNK N   1      26.616  20.987   6.336  0.00  0.00     0.002 A 
HETATM    6  C   UNK N   1      26.105  20.445   5.151  0.00  0.00     0.007 A 
HETATM    7  N   UNK N   1      29.777  17.293   6.667  0.00  0.00    -0.341 N 
HETATM    8  C   UNK N   1      29.487  17.076   5.255  0.00  0.00     0.136 C 
HETATM    9  C   UNK N   1      29.117  18.308   7.330  0.00  0.00     0.254 C 
HETATM   10  C   UNK N   1      27.990  17.122   5.018  0.00  0.00     0.038 C 
HETATM   11  C   UNK N   1      27.687  16.833   3.553  0.00  0.00     0.011 C 
HETATM   12  C   UNK N   1      26.226  17.126   3.264  0.00  0.00     0.005 C 
HETATM   13  C   UNK N   1      25.938  18.618   3.445  0.00  0.00     0.039 C 
HETATM   14  O   UNK N   1      29.407  18.621   8.474  0.00  0.00    -0.267 OA
ENDROOT
BRANCH   7  15
HETATM   15  C   UNK N   1      30.811  16.433   7.248  0.00  0.00     0.120 C 
HETATM   16  C   UNK N   1      31.198  15.162   6.446  0.00  0.00     0.298 C 
HETATM   17  N   UNK N   1      32.659  15.069   6.260  0.00  0.00     0.090 N 
HETATM   18  C   UNK N   1      33.320  15.067   7.580  0.00  0.00     0.273 C 
HETATM   19  C   UNK N   1      33.117  16.241   5.490  0.00  0.00     0.273 C 
HETATM   20  C   UNK N   1      33.019  16.362   8.365  0.00  0.00     0.037 C 
HETATM   21  C   UNK N   1      32.083  17.250   7.544  0.00  0.00     0.014 C 
HETATM   22  C   UNK N   1      32.778  17.563   6.214  0.00  0.00     0.037 C 
ENDBRANCH   7  15
TORSDOF 1
ENDMDL
MODEL 9
REMARK VINA RESULT:      -6.7     20.373     23.436
REMARK  1 active torsions:
REMARK  status: ('A' for Active; 'I' for Inactive)
REMARK    1  A    between atoms: C_15  and  N_7 
ROOT
HETATM    1  C   UNK N   1      30.544  22.965  -4.018  0.00  0.00     0.039 A 
HETATM    2  C   UNK N   1      30.194  22.215  -5.154  0.00  0.00    -0.030 A 
HETATM    3  C   UNK N   1      31.452  22.440  -3.089  0.00  0.00     0.017 A 
HETATM    4  C   UNK N   1      30.730  20.924  -5.343  0.00  0.00    -0.050 A 
HETATM    5  C   UNK N   1      31.980  21.159  -3.275  0.00  0.00     0.002 A 
HETATM    6  C   UNK N   1      31.612  20.401  -4.393  0.00  0.00     0.007 A 
HETATM    7  N   UNK N   1      28.767  24.596  -4.548  0.00  0.00    -0.341 N 
HETATM    8  C   UNK N   1      28.174  23.561  -5.385  0.00  0.00     0.136 C 
HETATM    9  C   UNK N   1      29.898  24.288  -3.816  0.00  0.00     0.254 C 
HETATM   10  C   UNK N   1      29.255  22.836  -6.161  0.00  0.00     0.038 C 
HETATM   11  C   UNK N   1      28.626  21.797  -7.082  0.00  0.00     0.011 C 
HETATM   12  C   UNK N   1      29.708  20.905  -7.665  0.00  0.00     0.005 C 
HETATM   13  C   UNK N   1      30.385  20.098  -6.555  0.00  0.00     0.039 C 
HETATM   14  O   UNK N   1      30.367  25.068  -3.002  0.00  0.00    -0.267 OA
ENDROOT
BRANCH   7  15
HETATM   15  C   UNK N   1      28.058  25.876  -4.512  0.00  0.00     0.120 C 
HETATM   16  C   UNK N   1      27.692  26.514  -5.879  0.00  0.00     0.298 C 
HETATM   17  N   UNK N   1      26.265  26.882  -5.934  0.00  0.00     0.090 N 
HETATM   18  C   UNK N   1      25.957  27.814  -4.833  0.00  0.00     0.273 C 
HETATM   19  C   UNK N   1      25.451  25.661  -5.778  0.00  0.00     0.273 C 
HETATM   20  C   UNK N   1      26.232  27.173  -3.456  0.00  0.00     0.037 C 
HETATM   21  C   UNK N   1      26.785  25.761  -3.653  0.00  0.00     0.014 C 
HETATM   22  C   UNK N   1      25.744  24.953  -4.437  0.00  0.00     0.037 C 
ENDBRANCH   7  15
TORSDOF 1
ENDMDL
