REMARK  11 active torsions:
REMARK  status: ('A' for Active; 'I' for Inactive)
REMARK    1  A    between atoms: C_14  and  C_51 
REMARK    2  A    between atoms: C_17  and  C_18 
REMARK    3  A    between atoms: C_17  and  C_19 
REMARK    4  A    between atoms: C_18  and  O_49 
REMARK    5  A    between atoms: C_20  and  O_46 
REMARK    6  A    between atoms: C_28  and  C_38 
REMARK    7  A    between atoms: C_28  and  O_53 
REMARK    8  A    between atoms: C_29  and  O_41 
REMARK    9  A    between atoms: C_30  and  C_39 
REMARK   10  A    between atoms: C_38  and  O_55 
REMARK   11  A    between atoms: O_41  and  C_42 
ROOT
HETATM    1  C   UNK N   1      11.756 -28.218  -0.240  0.00  0.00     0.000 A 
HETATM    2  C   UNK N   1      11.858 -29.677  -0.188  0.00  0.00     0.078 A 
HETATM    3  C   UNK N   1      13.133 -30.294  -0.078  0.00  0.00     0.067 A 
HETATM    4  C   UNK N   1      12.978 -27.513  -0.269  0.00  0.00     0.022 A 
HETATM    5  C   UNK N   1      14.200 -28.159  -0.163  0.00  0.00    -0.018 A 
HETATM    6  C   UNK N   1      14.271 -29.507  -0.030  0.00  0.00     0.040 A 
HETATM    7  N   UNK N   1      15.588 -29.905   0.258  0.00  0.00    -0.375 N 
HETATM    8  C   UNK N   1      15.544 -27.554   0.181  0.00  0.00     0.047 C 
HETATM    9  C   UNK N   1      16.463 -28.790  -0.056  0.00  0.00     0.146 C 
HETATM   10  C   UNK N   1      17.935 -28.565   0.398  0.00  0.00     0.194 C 
HETATM   11  C   UNK N   1      18.402 -27.330  -0.499  0.00  0.00     0.193 C 
HETATM   12  C   UNK N   1      17.559 -26.028  -0.325  0.00  0.00     0.039 C 
HETATM   13  C   UNK N   1      17.784 -24.940  -1.349  0.00  0.00    -0.015 C 
HETATM   14  C   UNK N   1      16.906 -23.915  -1.373  0.00  0.00    -0.000 C 
HETATM   15  C   UNK N   1      15.723 -23.909  -0.408  0.00  0.00     0.300 C 
HETATM   16  C   UNK N   1      16.032 -26.365  -0.579  0.00  0.00     0.253 C 
HETATM   17  N   UNK N   1      15.190 -25.261  -0.113  0.00  0.00     0.098 N 
HETATM   18  C   UNK N   1      15.101 -25.490   1.337  0.00  0.00     0.274 C 
HETATM   19  C   UNK N   1      15.409 -26.983   1.589  0.00  0.00     0.049 C 
HETATM   20  C   UNK N   1      15.917 -31.108   0.977  0.00  0.00     0.150 C 
ENDROOT
BRANCH   1  21
HETATM   21  C   UNK N   1      10.452 -27.385   0.163  0.00  0.00     0.121 C 
HETATM   22  C   UNK N   1      10.915 -26.610   1.413  0.00  0.00     0.041 C 
HETATM   23  C   UNK N   1      11.849 -25.379   1.244  0.00  0.00     0.038 C 
HETATM   24  C   UNK N   1      11.334 -24.233   2.081  0.00  0.00     0.281 C 
HETATM   25  C   UNK N   1      12.187 -24.851  -0.152  0.00  0.00    -0.016 C 
HETATM   26  N   UNK N   1      10.242 -23.577   1.378  0.00  0.00     0.097 N 
HETATM   27  C   UNK N   1      10.684 -22.903   0.143  0.00  0.00     0.306 C 
HETATM   28  C   UNK N   1       9.087 -24.487   1.279  0.00  0.00     0.314 C 
HETATM   29  C   UNK N   1      11.717 -23.689  -0.630  0.00  0.00    -0.056 C 
HETATM   30  C   UNK N   1       8.873 -25.276  -0.012  0.00  0.00     0.007 A 
HETATM   31  C   UNK N   1       9.536 -26.396  -0.629  0.00  0.00     0.042 A 
HETATM   32  C   UNK N   1       7.651 -25.200  -0.613  0.00  0.00     0.001 A 
HETATM   33  N   UNK N   1       8.750 -26.857  -1.653  0.00  0.00    -0.357 N 
HETATM   34  C   UNK N   1       7.610 -26.150  -1.590  0.00  0.00     0.043 A 
HETATM   35  H   UNK N   1       8.975 -27.563  -2.302  0.00  0.00     0.166 HD
HETATM   36  C   UNK N   1       6.408 -26.445  -2.245  0.00  0.00     0.030 A 
HETATM   37  C   UNK N   1       5.250 -25.736  -1.861  0.00  0.00     0.002 A 
HETATM   38  C   UNK N   1       5.313 -24.748  -0.853  0.00  0.00     0.001 A 
HETATM   39  C   UNK N   1       6.533 -24.471  -0.220  0.00  0.00     0.014 A 
BRANCH  29  40
HETATM   40  C   UNK N   1      12.245 -23.160  -1.929  0.00  0.00     0.031 C 
HETATM   41  C   UNK N   1      13.063 -21.897  -1.691  0.00  0.00     0.010 C 
ENDBRANCH  29  40
BRANCH  21  42
HETATM   42  C   UNK N   1       9.369 -28.374   0.607  0.00  0.00     0.278 C 
HETATM   43  O   UNK N   1       8.759 -29.028  -0.240  0.00  0.00    -0.264 OA
BRANCH  42  44
HETATM   44  O   UNK N   1       9.028 -28.496   1.909  0.00  0.00    -0.325 OA
HETATM   45  C   UNK N   1       8.031 -29.354   2.314  0.00  0.00     0.213 C 
ENDBRANCH  42  44
ENDBRANCH  21  42
ENDBRANCH   1  21
BRANCH   2  46
HETATM   46  O   UNK N   1      10.761 -30.469  -0.148  0.00  0.00    -0.355 OA
HETATM   47  C   UNK N   1      10.800 -31.843  -0.041  0.00  0.00     0.210 C 
ENDBRANCH   2  46
BRANCH  12  48
HETATM   48  C   UNK N   1      17.870 -25.435   1.084  0.00  0.00     0.014 C 
HETATM   49  C   UNK N   1      19.064 -24.486   1.152  0.00  0.00     0.006 C 
ENDBRANCH  12  48
BRANCH  10  50
HETATM   50  C   UNK N   1      18.808 -29.791   0.206  0.00  0.00     0.298 C 
HETATM   51  O   UNK N   1      18.619 -30.779   0.903  0.00  0.00    -0.262 OA
BRANCH  50  52
HETATM   52  O   UNK N   1      19.843 -29.774  -0.669  0.00  0.00    -0.324 OA
HETATM   53  C   UNK N   1      20.715 -30.830  -0.792  0.00  0.00     0.213 C 
ENDBRANCH  50  52
ENDBRANCH  10  50
BRANCH  10  54
HETATM   54  O   UNK N   1      17.963 -28.238   1.757  0.00  0.00    -0.375 OA
HETATM   55  H   UNK N   1      18.170 -28.142   2.700  0.00  0.00     0.211 HD
ENDBRANCH  10  54
BRANCH  11  56
HETATM   56  O   UNK N   1      19.763 -27.106  -0.668  0.00  0.00    -0.311 OA
BRANCH  56  57
HETATM   57  C   UNK N   1      20.740 -26.943   0.262  0.00  0.00     0.255 C 
HETATM   58  O   UNK N   1      21.865 -26.664  -0.113  0.00  0.00    -0.266 OA
HETATM   59  C   UNK N   1      20.499 -27.110   1.726  0.00  0.00     0.126 C 
ENDBRANCH  56  57
ENDBRANCH  11  56
TORSDOF 11
