MODEL 1
REMARK VINA RESULT:      -6.7      0.000      0.000
REMARK WARNING: 32 MAX_TORS EXCEEDED!!!
REMARK  74 active torsions:
REMARK  status: ('A' for Active; 'I' for Inactive)
REMARK       I    between atoms: C_3  and  N_4 
REMARK       I    between atoms: C_3  and  N_5 
REMARK    1  A    between atoms: N_5  and  C_6 
REMARK    2  A    between atoms: C_6  and  C_7 
REMARK    3  A    between atoms: C_7  and  C_8 
REMARK    4  A    between atoms: C_8  and  C_9 
REMARK    5  A    between atoms: C_9  and  N_10 
REMARK    6  A    between atoms: C_9  and  C_29 
REMARK       I    between atoms: N_10  and  C_11 
REMARK    7  A    between atoms: C_13  and  C_11 
REMARK       I    between atoms: N_17  and  C_18 
REMARK    8  A    between atoms: C_18  and  C_20 
REMARK    9  A    between atoms: C_20  and  N_21 
REMARK   10  A    between atoms: C_20  and  C_22 
REMARK   11  A    between atoms: C_22  and  C_23 
REMARK       I    between atoms: C_29  and  N_31 
REMARK   12  A    between atoms: C_35  and  C_36 
REMARK       I    between atoms: C_36  and  N_38 
REMARK   13  A    between atoms: N_38  and  C_39 
REMARK   14  A    between atoms: C_39  and  C_40 
REMARK       I    between atoms: C_40  and  N_42 
REMARK   15  A    between atoms: N_42  and  C_43 
REMARK   16  A    between atoms: C_43  and  C_44 
REMARK       I    between atoms: C_44  and  N_46 
REMARK   17  A    between atoms: N_46  and  C_47 
REMARK   18  A    between atoms: C_47  and  C_48 
REMARK       I    between atoms: C_48  and  N_50 
REMARK   19  A    between atoms: N_50  and  C_51 
REMARK   20  A    between atoms: C_51  and  C_52 
REMARK       I    between atoms: C_52  and  N_54 
REMARK   21  A    between atoms: C_55  and  N_54 
REMARK   22  A    between atoms: C_55  and  C_56 
REMARK   23  A    between atoms: C_55  and  C_60 
REMARK   24  A    between atoms: C_56  and  C_57 
REMARK       I    between atoms: C_57  and  N_58 
REMARK       I    between atoms: C_60  and  N_62 
REMARK   25  A    between atoms: N_62  and  C_63 
REMARK   26  A    between atoms: C_63  and  C_64 
REMARK       I    between atoms: C_64  and  N_66 
REMARK   27  A    between atoms: C_67  and  N_66 
REMARK   28  A    between atoms: C_67  and  C_68 
REMARK   29  A    between atoms: C_67  and  C_72 
REMARK   30  A    between atoms: C_68  and  C_69 
REMARK   31  A    between atoms: C_69  and  O_70 
REMARK       I    between atoms: C_72  and  N_74 
REMARK   32  A    between atoms: C_75  and  N_74 
REMARK   33  A    between atoms: C_75  and  C_76 
REMARK   34  A    between atoms: C_75  and  C_83 
REMARK   35  A    between atoms: C_76  and  C_77 
REMARK       I    between atoms: C_83  and  N_85 
REMARK   36  A    between atoms: C_86  and  N_85 
REMARK   37  A    between atoms: C_86  and  C_87 
REMARK   38  A    between atoms: C_86  and  C_92 
REMARK   39  A    between atoms: C_87  and  C_88 
REMARK   40  A    between atoms: C_88  and  C_89 
REMARK   41  A    between atoms: C_89  and  O_90 
REMARK       I    between atoms: C_92  and  N_94 
REMARK   42  A    between atoms: C_95  and  N_94 
REMARK   43  A    between atoms: C_95  and  C_96 
REMARK   44  A    between atoms: C_95  and  C_101 
REMARK   45  A    between atoms: C_96  and  C_97 
REMARK   46  A    between atoms: C_97  and  C_98 
REMARK   47  A    between atoms: C_98  and  O_99 
REMARK       I    between atoms: C_101  and  N_103 
REMARK   48  A    between atoms: C_104  and  N_103 
REMARK   49  A    between atoms: C_104  and  C_105 
REMARK   50  A    between atoms: C_104  and  C_109 
REMARK   51  A    between atoms: C_105  and  C_107 
REMARK       I    between atoms: C_109  and  N_111 
REMARK   52  A    between atoms: C_115  and  C_116 
REMARK       I    between atoms: C_116  and  N_118 
REMARK   53  A    between atoms: C_119  and  N_118 
REMARK   54  A    between atoms: C_119  and  C_120 
REMARK   55  A    between atoms: C_119  and  C_125 
REMARK   56  A    between atoms: C_120  and  C_121 
REMARK   57  A    between atoms: C_121  and  C_122 
REMARK   58  A    between atoms: C_122  and  O_123 
REMARK       I    between atoms: C_125  and  N_127 
REMARK   59  A    between atoms: C_128  and  N_127 
REMARK   60  A    between atoms: C_128  and  C_129 
REMARK   61  A    between atoms: C_128  and  C_134 
REMARK   62  A    between atoms: C_129  and  C_130 
REMARK   63  A    between atoms: C_130  and  C_131 
REMARK   64  A    between atoms: C_131  and  O_132 
REMARK       I    between atoms: C_134  and  N_136 
REMARK   65  A    between atoms: C_137  and  N_136 
REMARK   66  A    between atoms: C_137  and  C_138 
REMARK   67  A    between atoms: C_137  and  C_146 
REMARK   68  A    between atoms: C_138  and  C_139 
REMARK   69  A    between atoms: C_142  and  O_143 
REMARK       I    between atoms: C_146  and  N_148 
REMARK   70  A    between atoms: C_149  and  N_148 
REMARK   71  A    between atoms: C_149  and  C_150 
REMARK   72  A    between atoms: C_149  and  C_154 
REMARK   73  A    between atoms: C_150  and  C_151 
REMARK   74  A    between atoms: C_154  and  O_155 
ROOT
HETATM    1  C   UNK N   1      31.792  15.795   6.146  0.00  0.00     0.180 C 
ENDROOT
BRANCH   1   2
HETATM    2  N   UNK N   1      32.581  14.906   6.948  0.00  0.00    -0.346 N 
HETATM    3  C   UNK N   1      32.638  15.034   8.279  0.00  0.00     0.241 C 
HETATM    4  O   UNK N   1      31.911  14.349   8.978  0.00  0.00    -0.271 OA
HETATM    5  H   UNK N   1      33.091  14.186   6.510  0.00  0.00     0.163 HD
BRANCH   3   6
HETATM    6  C   UNK N   1      33.636  15.954   8.896  0.00  0.00     0.186 C 
BRANCH   6   7
HETATM    7  N   UNK N   1      33.782  15.715  10.321  0.00  0.00    -0.346 N 
HETATM    8  C   UNK N   1      34.547  14.752  10.901  0.00  0.00     0.236 C 
HETATM    9  O   UNK N   1      34.557  14.675  12.119  0.00  0.00    -0.272 OA
HETATM   10  H   UNK N   1      33.280  16.308  10.924  0.00  0.00     0.163 HD
BRANCH   8  11
HETATM   11  C   UNK N   1      35.394  13.766  10.128  0.00  0.00     0.225 C 
BRANCH  11  12
HETATM   12  N   UNK N   1      36.827  13.912  10.288  0.00  0.00    -0.351 N 
HETATM   13  C   UNK N   1      37.695  12.912  10.605  0.00  0.00     0.241 C 
HETATM   14  O   UNK N   1      38.889  13.149  10.619  0.00  0.00    -0.271 OA
HETATM   15  H   UNK N   1      37.206  14.811  10.155  0.00  0.00     0.163 HD
BRANCH  13  16
HETATM   16  C   UNK N   1      37.241  11.501  10.818  0.00  0.00     0.185 C 
BRANCH  16  17
HETATM   17  N   UNK N   1      36.478  11.170   9.659  0.00  0.00    -0.346 N 
HETATM   18  C   UNK N   1      36.994  10.805   8.482  0.00  0.00     0.236 C 
HETATM   19  O   UNK N   1      38.152  10.425   8.392  0.00  0.00    -0.272 OA
HETATM   20  H   UNK N   1      35.498  11.214   9.732  0.00  0.00     0.163 HD
BRANCH  18  21
HETATM   21  C   UNK N   1      36.238  11.243   7.271  0.00  0.00     0.225 C 
BRANCH  21  22
HETATM   22  N   UNK N   1      34.828  11.469   7.606  0.00  0.00    -0.351 N 
HETATM   23  C   UNK N   1      33.698  11.398   6.817  0.00  0.00     0.235 C 
HETATM   24  O   UNK N   1      32.631  11.696   7.321  0.00  0.00    -0.272 OA
HETATM   25  H   UNK N   1      34.660  11.710   8.546  0.00  0.00     0.163 HD
BRANCH  23  26
HETATM   26  C   UNK N   1      33.646  10.987   5.353  0.00  0.00     0.225 C 
BRANCH  26  27
HETATM   27  N   UNK N   1      32.687  11.687   4.555  0.00  0.00    -0.351 N 
HETATM   28  C   UNK N   1      32.093  11.131   3.480  0.00  0.00     0.235 C 
HETATM   29  O   UNK N   1      31.380  11.834   2.784  0.00  0.00    -0.272 OA
HETATM   30  H   UNK N   1      32.452  12.610   4.800  0.00  0.00     0.163 HD
BRANCH  28  31
HETATM   31  C   UNK N   1      32.375   9.707   3.060  0.00  0.00     0.225 C 
BRANCH  31  32
HETATM   32  N   UNK N   1      31.172   8.977   3.317  0.00  0.00    -0.351 N 
HETATM   33  C   UNK N   1      31.034   8.254   4.438  0.00  0.00     0.235 C 
HETATM   34  O   UNK N   1      32.013   7.872   5.061  0.00  0.00    -0.272 OA
HETATM   35  H   UNK N   1      30.437   9.007   2.663  0.00  0.00     0.163 HD
BRANCH  33  36
HETATM   36  C   UNK N   1      29.752   8.413   5.142  0.00  0.00     0.225 C 
BRANCH  36  37
HETATM   37  N   UNK N   1      28.770   8.431   4.078  0.00  0.00    -0.351 N 
HETATM   38  C   UNK N   1      28.165   9.560   3.641  0.00  0.00     0.241 C 
HETATM   39  O   UNK N   1      28.516  10.656   4.060  0.00  0.00    -0.271 OA
HETATM   40  H   UNK N   1      28.530   7.577   3.650  0.00  0.00     0.163 HD
BRANCH  38  41
HETATM   41  C   UNK N   1      27.031   9.449   2.647  0.00  0.00     0.179 C 
HETATM   42  C   UNK N   1      26.255  10.751   2.514  0.00  0.00     0.037 C 
HETATM   43  C   UNK N   1      26.886  11.484   1.337  0.00  0.00     0.022 C 
HETATM   44  C   UNK N   1      27.556  10.404   0.502  0.00  0.00     0.127 C 
HETATM   45  N   UNK N   1      27.575   9.240   1.347  0.00  0.00    -0.337 N 
HETATM   46  C   UNK N   1      28.042   8.019   0.955  0.00  0.00     0.243 C 
HETATM   47  O   UNK N   1      27.949   7.061   1.711  0.00  0.00    -0.271 OA
BRANCH  46  48
HETATM   48  C   UNK N   1      28.691   7.811  -0.374  0.00  0.00     0.176 C 
BRANCH  48  49
HETATM   49  C   UNK N   1      30.219   7.752  -0.236  0.00  0.00     0.036 C 
BRANCH  49  50
HETATM   50  C   UNK N   1      30.928   7.708  -1.587  0.00  0.00     0.023 C 
BRANCH  50  51
HETATM   51  C   UNK N   1      31.627   9.027  -1.894  0.00  0.00     0.138 C 
BRANCH  51  52
HETATM   52  N   UNK N   1      31.433   9.981  -0.826  0.00  0.00    -0.227 N 
HETATM   53  C   UNK N   1      30.836  11.248  -1.067  0.00  0.00     0.665 C 
HETATM   54  N   UNK N   1      30.512  11.601  -2.257  0.00  0.00    -0.235 N 
HETATM   55  N   UNK N   1      30.618  12.137   0.009  0.00  0.00    -0.235 N 
HETATM   56  H   UNK N   1      30.293  11.350  -3.183  0.00  0.00     0.174 HD
ATOM     57  HN  UNK N   1      30.454  12.619  -2.230  1.00  0.00     0.174 HD
HETATM   58  H   UNK N   1      31.081  12.988   0.186  0.00  0.00     0.174 HD
HETATM   59  H   UNK N   1      29.923  11.876   0.655  0.00  0.00     0.174 HD
HETATM   60  H   UNK N   1      31.720   9.749   0.087  0.00  0.00     0.177 HD
ENDBRANCH  51  52
ENDBRANCH  50  51
ENDBRANCH  49  50
ENDBRANCH  48  49
BRANCH  48  61
HETATM   61  N   UNK N   1      28.167   6.609  -0.971  0.00  0.00    -0.346 N 
HETATM   62  C   UNK N   1      27.399   6.634  -2.084  0.00  0.00     0.241 C 
HETATM   63  O   UNK N   1      27.098   5.574  -2.615  0.00  0.00    -0.271 OA
HETATM   64  H   UNK N   1      28.375   5.741  -0.556  0.00  0.00     0.163 HD
BRANCH  62  65
HETATM   65  C   UNK N   1      26.889   7.941  -2.674  0.00  0.00     0.179 C 
HETATM   66  C   UNK N   1      27.582   8.198  -4.003  0.00  0.00     0.037 C 
HETATM   67  C   UNK N   1      26.617   7.730  -5.100  0.00  0.00     0.022 C 
HETATM   68  C   UNK N   1      25.341   7.299  -4.399  0.00  0.00     0.127 C 
HETATM   69  N   UNK N   1      25.517   7.757  -3.053  0.00  0.00    -0.337 N 
HETATM   70  C   UNK N   1      24.454   8.146  -2.305  0.00  0.00     0.243 C 
HETATM   71  O   UNK N   1      23.322   7.908  -2.701  0.00  0.00    -0.271 OA
BRANCH  70  72
HETATM   72  C   UNK N   1      24.638   8.891  -1.007  0.00  0.00     0.171 C 
BRANCH  72  73
HETATM   73  N   UNK N   1      24.495   7.974   0.101  0.00  0.00    -0.418 N 
HETATM   74  H   UNK N   1      24.921   8.022   1.026  0.00  0.00     0.150 HD
HETATM   75  H   UNK N   1      23.886   7.172  -0.064  0.00  0.00     0.150 HD
ENDBRANCH  72  73
BRANCH  72  76
HETATM   76  C   UNK N   1      23.639  10.060  -0.878  0.00  0.00     0.072 C 
BRANCH  76  77
HETATM   77  C   UNK N   1      22.735   9.917   0.312  0.00  0.00    -0.056 A 
HETATM   78  C   UNK N   1      22.891  10.786   1.399  0.00  0.00     0.007 A 
HETATM   79  C   UNK N   1      21.981  10.754   2.460  0.00  0.00     0.001 A 
HETATM   80  C   UNK N   1      20.916   9.851   2.438  0.00  0.00     0.000 A 
HETATM   81  C   UNK N   1      20.764   8.971   1.362  0.00  0.00     0.001 A 
HETATM   82  C   UNK N   1      21.667   9.010   0.295  0.00  0.00     0.007 A 
ENDBRANCH  76  77
ENDBRANCH  72  76
ENDBRANCH  70  72
ENDBRANCH  62  65
ENDBRANCH  48  61
ENDBRANCH  46  48
ENDBRANCH  38  41
ENDBRANCH  36  37
ENDBRANCH  33  36
ENDBRANCH  31  32
ENDBRANCH  28  31
ENDBRANCH  26  27
ENDBRANCH  23  26
ENDBRANCH  21  22
ENDBRANCH  18  21
ENDBRANCH  16  17
BRANCH  16  83
HETATM   83  C   UNK N   1      36.556  11.217  12.149  0.00  0.00     0.137 C 
BRANCH  83  84
HETATM   84  C   UNK N   1      37.191  12.035  13.241  0.00  0.00     0.217 C 
HETATM   85  N   UNK N   1      38.217  11.526  13.947  0.00  0.00    -0.370 N 
HETATM   86  H   UNK N   1      39.064  11.295  13.502  0.00  0.00     0.159 HD
HETATM   87  H   UNK N   1      38.121  11.385  14.917  0.00  0.00     0.159 HD
HETATM   88  O   UNK N   1      36.788  13.160  13.490  0.00  0.00    -0.274 OA
ENDBRANCH  83  84
ENDBRANCH  16  83
ENDBRANCH  13  16
ENDBRANCH  11  12
ENDBRANCH   8  11
ENDBRANCH   6   7
BRANCH   6  89
HETATM   89  C   UNK N   1      33.225  17.405   8.602  0.00  0.00     0.144 C 
BRANCH  89  90
HETATM   90  C   UNK N   1      34.252  18.239   7.890  0.00  0.00     0.141 C 
HETATM   91  O   UNK N   1      34.712  19.242   8.410  0.00  0.00    -0.650 OA
BRANCH  90  92
HETATM   92  O   UNK N   1      34.673  17.872   6.668  0.00  0.00    -0.776 OA
HETATM   93  H   UNK N   1      34.389  17.059   6.297  0.00  0.00     0.167 HD
ENDBRANCH  90  92
ENDBRANCH  89  90
ENDBRANCH   6  89
ENDBRANCH   3   6
ENDBRANCH   1   2
BRANCH   1  94
HETATM   94  C   UNK N   1      32.648  16.408   5.020  0.00  0.00     0.073 C 
BRANCH  94  95
HETATM   95  C   UNK N   1      33.547  15.408   4.324  0.00  0.00    -0.056 A 
HETATM   96  C   UNK N   1      33.288  15.019   3.007  0.00  0.00     0.007 A 
HETATM   97  C   UNK N   1      34.137  14.105   2.367  0.00  0.00     0.001 A 
HETATM   98  C   UNK N   1      35.243  13.575   3.039  0.00  0.00     0.000 A 
HETATM   99  C   UNK N   1      35.501  13.948   4.357  0.00  0.00     0.001 A 
HETATM  100  C   UNK N   1      34.654  14.854   4.993  0.00  0.00     0.007 A 
ENDBRANCH  94  95
ENDBRANCH   1  94
BRANCH   1 101
HETATM  101  C   UNK N   1      30.568  15.014   5.708  0.00  0.00     0.241 C 
HETATM  102  O   UNK N   1      30.661  13.803   5.608  0.00  0.00    -0.271 OA
HETATM  103  N   UNK N   1      29.424  15.612   5.279  0.00  0.00    -0.346 N 
HETATM  104  H   UNK N   1      28.842  15.086   4.685  0.00  0.00     0.163 HD
BRANCH 103 105
HETATM  105  C   UNK N   1      28.983  16.950   5.613  0.00  0.00     0.177 C 
BRANCH 105 106
HETATM  106  C   UNK N   1      28.465  17.155   7.051  0.00  0.00     0.045 C 
BRANCH 106 107
HETATM  107  C   UNK N   1      29.444  17.927   7.941  0.00  0.00     0.112 C 
BRANCH 107 108
HETATM  108  C   UNK N   1      28.832  18.316   9.260  0.00  0.00     0.139 C 
HETATM  109  O   UNK N   1      29.535  18.690  10.183  0.00  0.00    -0.650 OA
BRANCH 108 110
HETATM  110  O   UNK N   1      27.501  18.235   9.435  0.00  0.00    -0.776 OA
HETATM  111  H   UNK N   1      26.874  17.612   9.746  0.00  0.00     0.167 HD
ENDBRANCH 108 110
ENDBRANCH 107 108
ENDBRANCH 106 107
ENDBRANCH 105 106
BRANCH 105 112
HETATM  112  C   UNK N   1      28.065  17.373   4.513  0.00  0.00     0.241 C 
HETATM  113  O   UNK N   1      28.439  17.222   3.356  0.00  0.00    -0.271 OA
HETATM  114  N   UNK N   1      26.877  17.977   4.787  0.00  0.00    -0.346 N 
HETATM  115  H   UNK N   1      26.596  18.044   5.728  0.00  0.00     0.163 HD
BRANCH 114 116
HETATM  116  C   UNK N   1      26.003  18.525   3.774  0.00  0.00     0.177 C 
BRANCH 116 117
HETATM  117  C   UNK N   1      26.003  20.048   3.878  0.00  0.00     0.045 C 
BRANCH 117 118
HETATM  118  C   UNK N   1      26.937  20.595   4.963  0.00  0.00     0.112 C 
BRANCH 118 119
HETATM  119  C   UNK N   1      26.491  21.007   6.339  0.00  0.00     0.139 C 
HETATM  120  O   UNK N   1      25.911  22.069   6.487  0.00  0.00    -0.650 OA
BRANCH 119 121
HETATM  121  O   UNK N   1      26.852  20.299   7.422  0.00  0.00    -0.776 OA
HETATM  122  H   UNK N   1      27.375  20.656   8.113  0.00  0.00     0.167 HD
ENDBRANCH 119 121
ENDBRANCH 118 119
ENDBRANCH 117 118
ENDBRANCH 116 117
BRANCH 116 123
HETATM  123  C   UNK N   1      24.599  18.000   3.961  0.00  0.00     0.241 C 
HETATM  124  O   UNK N   1      23.679  18.786   4.128  0.00  0.00    -0.271 OA
HETATM  125  N   UNK N   1      24.349  16.669   3.920  0.00  0.00    -0.346 N 
HETATM  126  H   UNK N   1      25.109  16.054   3.800  0.00  0.00     0.163 HD
BRANCH 125 127
HETATM  127  C   UNK N   1      23.008  16.101   4.046  0.00  0.00     0.180 C 
BRANCH 127 128
HETATM  128  C   UNK N   1      22.713  14.985   3.007  0.00  0.00     0.013 C 
HETATM  129  C   UNK N   1      23.913  14.550   2.179  0.00  0.00     0.012 C 
BRANCH 128 130
HETATM  130  C   UNK N   1      21.599  15.381   2.052  0.00  0.00     0.002 C 
HETATM  131  C   UNK N   1      21.319  16.868   2.142  0.00  0.00     0.005 C 
ENDBRANCH 128 130
ENDBRANCH 127 128
BRANCH 127 132
HETATM  132  C   UNK N   1      22.581  15.966   5.526  0.00  0.00     0.243 C 
HETATM  133  O   UNK N   1      23.474  15.856   6.343  0.00  0.00    -0.271 OA
HETATM  134  N   UNK N   1      21.271  16.011   5.961  0.00  0.00    -0.337 N 
HETATM  135  C   UNK N   1      20.140  16.204   5.112  0.00  0.00     0.127 C 
HETATM  136  C   UNK N   1      20.928  15.925   7.373  0.00  0.00     0.179 C 
HETATM  137  C   UNK N   1      18.927  16.107   6.020  0.00  0.00     0.022 C 
HETATM  138  C   UNK N   1      19.452  16.269   7.440  0.00  0.00     0.037 C 
BRANCH 136 139
HETATM  139  C   UNK N   1      21.171  14.545   7.905  0.00  0.00     0.241 C 
HETATM  140  O   UNK N   1      20.222  13.784   8.032  0.00  0.00    -0.271 OA
HETATM  141  N   UNK N   1      22.418  14.183   8.326  0.00  0.00    -0.346 N 
HETATM  142  H   UNK N   1      23.171  14.771   8.085  0.00  0.00     0.163 HD
BRANCH 141 143
HETATM  143  C   UNK N   1      22.714  12.989   9.106  0.00  0.00     0.177 C 
BRANCH 143 144
HETATM  144  C   UNK N   1      22.280  13.113  10.573  0.00  0.00     0.045 C 
BRANCH 144 145
HETATM  145  C   UNK N   1      22.280  11.799  11.342  0.00  0.00     0.112 C 
BRANCH 145 146
HETATM  146  C   UNK N   1      23.201  11.896  12.509  0.00  0.00     0.139 C 
HETATM  147  O   UNK N   1      22.806  11.602  13.625  0.00  0.00    -0.650 OA
BRANCH 146 148
HETATM  148  O   UNK N   1      24.466  12.321  12.334  0.00  0.00    -0.776 OA
HETATM  149  H   UNK N   1      24.751  13.148  12.667  0.00  0.00     0.167 HD
ENDBRANCH 146 148
ENDBRANCH 145 146
ENDBRANCH 144 145
ENDBRANCH 143 144
BRANCH 143 150
HETATM  150  C   UNK N   1      24.153  12.575   8.873  0.00  0.00     0.241 C 
HETATM  151  O   UNK N   1      24.988  12.845   9.722  0.00  0.00    -0.271 OA
HETATM  152  N   UNK N   1      24.583  11.953   7.754  0.00  0.00    -0.346 N 
HETATM  153  H   UNK N   1      25.549  11.765   7.728  0.00  0.00     0.163 HD
BRANCH 152 154
HETATM  154  C   UNK N   1      23.849  11.526   6.601  0.00  0.00     0.177 C 
BRANCH 154 155
HETATM  155  C   UNK N   1      24.536  12.111   5.334  0.00  0.00     0.045 C 
BRANCH 155 156
HETATM  156  C   UNK N   1      26.036  12.510   5.437  0.00  0.00     0.112 C 
BRANCH 156 157
HETATM  157  C   UNK N   1      26.423  13.892   4.975  0.00  0.00     0.139 C 
HETATM  158  O   UNK N   1      27.109  14.025   3.974  0.00  0.00    -0.650 OA
BRANCH 157 159
HETATM  159  O   UNK N   1      26.085  14.982   5.689  0.00  0.00    -0.776 OA
HETATM  160  H   UNK N   1      25.563  15.711   5.959  0.00  0.00     0.167 HD
ENDBRANCH 157 159
ENDBRANCH 156 157
ENDBRANCH 155 156
ENDBRANCH 154 155
BRANCH 154 161
HETATM  161  C   UNK N   1      23.943  10.032   6.568  0.00  0.00     0.241 C 
HETATM  162  O   UNK N   1      23.664   9.390   7.567  0.00  0.00    -0.271 OA
HETATM  163  N   UNK N   1      24.180   9.425   5.369  0.00  0.00    -0.346 N 
HETATM  164  H   UNK N   1      24.487  10.005   4.637  0.00  0.00     0.163 HD
BRANCH 163 165
HETATM  165  C   UNK N   1      24.029   8.023   5.060  0.00  0.00     0.180 C 
BRANCH 165 166
HETATM  166  C   UNK N   1      23.625   7.764   3.607  0.00  0.00     0.073 C 
BRANCH 166 167
HETATM  167  C   UNK N   1      22.772   6.568   3.412  0.00  0.00    -0.056 A 
HETATM  168  C   UNK N   1      21.772   6.272   4.342  0.00  0.00     0.010 A 
HETATM  169  C   UNK N   1      20.981   5.139   4.177  0.00  0.00     0.037 A 
HETATM  170  C   UNK N   1      21.181   4.300   3.082  0.00  0.00     0.065 A 
HETATM  171  C   UNK N   1      22.167   4.603   2.137  0.00  0.00     0.037 A 
HETATM  172  C   UNK N   1      22.959   5.743   2.297  0.00  0.00     0.010 A 
BRANCH 170 173
HETATM  173  O   UNK N   1      20.423   3.204   2.935  0.00  0.00    -0.361 OA
HETATM  174  H   UNK N   1      20.047   2.678   2.257  0.00  0.00     0.217 HD
ENDBRANCH 170 173
ENDBRANCH 166 167
ENDBRANCH 165 166
BRANCH 165 175
HETATM  175  C   UNK N   1      25.125   7.196   5.696  0.00  0.00     0.241 C 
HETATM  176  O   UNK N   1      26.261   7.299   5.263  0.00  0.00    -0.271 OA
HETATM  177  N   UNK N   1      24.815   6.281   6.656  0.00  0.00    -0.345 N 
HETATM  178  H   UNK N   1      23.882   6.298   6.967  0.00  0.00     0.163 HD
BRANCH 177 179
HETATM  179  C   UNK N   1      25.663   5.277   7.292  0.00  0.00     0.182 C 
BRANCH 179 180
HETATM  180  C   UNK N   1      25.269   3.861   6.860  0.00  0.00     0.040 C 
BRANCH 180 181
HETATM  181  C   UNK N   1      24.247   3.795   5.734  0.00  0.00    -0.020 C 
HETATM  182  C   UNK N   1      23.261   2.677   6.007  0.00  0.00     0.009 C 
HETATM  183  C   UNK N   1      24.964   3.468   4.443  0.00  0.00     0.009 C 
ENDBRANCH 180 181
ENDBRANCH 179 180
BRANCH 179 184
HETATM  184  C   UNK N   1      25.969   5.439   8.759  0.00  0.00     0.163 C 
HETATM  185  O   UNK N   1      27.039   5.894   9.133  0.00  0.00    -0.648 OA
BRANCH 184 186
HETATM  186  O   UNK N   1      25.029   5.122   9.668  0.00  0.00    -0.775 OA
HETATM  187  H   UNK N   1      24.298   4.548   9.550  0.00  0.00     0.167 HD
ENDBRANCH 184 186
ENDBRANCH 179 184
ENDBRANCH 177 179
ENDBRANCH 165 175
ENDBRANCH 163 165
ENDBRANCH 154 161
ENDBRANCH 152 154
ENDBRANCH 143 150
ENDBRANCH 141 143
ENDBRANCH 136 139
ENDBRANCH 127 132
ENDBRANCH 125 127
ENDBRANCH 116 123
ENDBRANCH 114 116
ENDBRANCH 105 112
ENDBRANCH 103 105
ENDBRANCH   1 101
TORSDOF 74
ENDMDL
MODEL 2
REMARK VINA RESULT:      -6.6      2.808      9.462
REMARK WARNING: 32 MAX_TORS EXCEEDED!!!
REMARK  74 active torsions:
REMARK  status: ('A' for Active; 'I' for Inactive)
REMARK       I    between atoms: C_3  and  N_4 
REMARK       I    between atoms: C_3  and  N_5 
REMARK    1  A    between atoms: N_5  and  C_6 
REMARK    2  A    between atoms: C_6  and  C_7 
REMARK    3  A    between atoms: C_7  and  C_8 
REMARK    4  A    between atoms: C_8  and  C_9 
REMARK    5  A    between atoms: C_9  and  N_10 
REMARK    6  A    between atoms: C_9  and  C_29 
REMARK       I    between atoms: N_10  and  C_11 
REMARK    7  A    between atoms: C_13  and  C_11 
REMARK       I    between atoms: N_17  and  C_18 
REMARK    8  A    between atoms: C_18  and  C_20 
REMARK    9  A    between atoms: C_20  and  N_21 
REMARK   10  A    between atoms: C_20  and  C_22 
REMARK   11  A    between atoms: C_22  and  C_23 
REMARK       I    between atoms: C_29  and  N_31 
REMARK   12  A    between atoms: C_35  and  C_36 
REMARK       I    between atoms: C_36  and  N_38 
REMARK   13  A    between atoms: N_38  and  C_39 
REMARK   14  A    between atoms: C_39  and  C_40 
REMARK       I    between atoms: C_40  and  N_42 
REMARK   15  A    between atoms: N_42  and  C_43 
REMARK   16  A    between atoms: C_43  and  C_44 
REMARK       I    between atoms: C_44  and  N_46 
REMARK   17  A    between atoms: N_46  and  C_47 
REMARK   18  A    between atoms: C_47  and  C_48 
REMARK       I    between atoms: C_48  and  N_50 
REMARK   19  A    between atoms: N_50  and  C_51 
REMARK   20  A    between atoms: C_51  and  C_52 
REMARK       I    between atoms: C_52  and  N_54 
REMARK   21  A    between atoms: C_55  and  N_54 
REMARK   22  A    between atoms: C_55  and  C_56 
REMARK   23  A    between atoms: C_55  and  C_60 
REMARK   24  A    between atoms: C_56  and  C_57 
REMARK       I    between atoms: C_57  and  N_58 
REMARK       I    between atoms: C_60  and  N_62 
REMARK   25  A    between atoms: N_62  and  C_63 
REMARK   26  A    between atoms: C_63  and  C_64 
REMARK       I    between atoms: C_64  and  N_66 
REMARK   27  A    between atoms: C_67  and  N_66 
REMARK   28  A    between atoms: C_67  and  C_68 
REMARK   29  A    between atoms: C_67  and  C_72 
REMARK   30  A    between atoms: C_68  and  C_69 
REMARK   31  A    between atoms: C_69  and  O_70 
REMARK       I    between atoms: C_72  and  N_74 
REMARK   32  A    between atoms: C_75  and  N_74 
REMARK   33  A    between atoms: C_75  and  C_76 
REMARK   34  A    between atoms: C_75  and  C_83 
REMARK   35  A    between atoms: C_76  and  C_77 
REMARK       I    between atoms: C_83  and  N_85 
REMARK   36  A    between atoms: C_86  and  N_85 
REMARK   37  A    between atoms: C_86  and  C_87 
REMARK   38  A    between atoms: C_86  and  C_92 
REMARK   39  A    between atoms: C_87  and  C_88 
REMARK   40  A    between atoms: C_88  and  C_89 
REMARK   41  A    between atoms: C_89  and  O_90 
REMARK       I    between atoms: C_92  and  N_94 
REMARK   42  A    between atoms: C_95  and  N_94 
REMARK   43  A    between atoms: C_95  and  C_96 
REMARK   44  A    between atoms: C_95  and  C_101 
REMARK   45  A    between atoms: C_96  and  C_97 
REMARK   46  A    between atoms: C_97  and  C_98 
REMARK   47  A    between atoms: C_98  and  O_99 
REMARK       I    between atoms: C_101  and  N_103 
REMARK   48  A    between atoms: C_104  and  N_103 
REMARK   49  A    between atoms: C_104  and  C_105 
REMARK   50  A    between atoms: C_104  and  C_109 
REMARK   51  A    between atoms: C_105  and  C_107 
REMARK       I    between atoms: C_109  and  N_111 
REMARK   52  A    between atoms: C_115  and  C_116 
REMARK       I    between atoms: C_116  and  N_118 
REMARK   53  A    between atoms: C_119  and  N_118 
REMARK   54  A    between atoms: C_119  and  C_120 
REMARK   55  A    between atoms: C_119  and  C_125 
REMARK   56  A    between atoms: C_120  and  C_121 
REMARK   57  A    between atoms: C_121  and  C_122 
REMARK   58  A    between atoms: C_122  and  O_123 
REMARK       I    between atoms: C_125  and  N_127 
REMARK   59  A    between atoms: C_128  and  N_127 
REMARK   60  A    between atoms: C_128  and  C_129 
REMARK   61  A    between atoms: C_128  and  C_134 
REMARK   62  A    between atoms: C_129  and  C_130 
REMARK   63  A    between atoms: C_130  and  C_131 
REMARK   64  A    between atoms: C_131  and  O_132 
REMARK       I    between atoms: C_134  and  N_136 
REMARK   65  A    between atoms: C_137  and  N_136 
REMARK   66  A    between atoms: C_137  and  C_138 
REMARK   67  A    between atoms: C_137  and  C_146 
REMARK   68  A    between atoms: C_138  and  C_139 
REMARK   69  A    between atoms: C_142  and  O_143 
REMARK       I    between atoms: C_146  and  N_148 
REMARK   70  A    between atoms: C_149  and  N_148 
REMARK   71  A    between atoms: C_149  and  C_150 
REMARK   72  A    between atoms: C_149  and  C_154 
REMARK   73  A    between atoms: C_150  and  C_151 
REMARK   74  A    between atoms: C_154  and  O_155 
ROOT
HETATM    1  C   UNK N   1      28.548  17.367   7.228  0.00  0.00     0.180 C 
ENDROOT
BRANCH   1   2
HETATM    2  N   UNK N   1      29.274  17.089   8.433  0.00  0.00    -0.346 N 
HETATM    3  C   UNK N   1      30.404  17.740   8.731  0.00  0.00     0.241 C 
HETATM    4  O   UNK N   1      30.362  18.705   9.475  0.00  0.00    -0.271 OA
HETATM    5  H   UNK N   1      28.933  16.404   9.053  0.00  0.00     0.163 HD
BRANCH   3   6
HETATM    6  C   UNK N   1      31.710  17.240   8.213  0.00  0.00     0.186 C 
BRANCH   6   7
HETATM    7  N   UNK N   1      32.269  16.207   9.066  0.00  0.00    -0.346 N 
HETATM    8  C   UNK N   1      32.709  14.984   8.666  0.00  0.00     0.236 C 
HETATM    9  O   UNK N   1      33.146  14.220   9.510  0.00  0.00    -0.272 OA
HETATM   10  H   UNK N   1      32.336  16.411  10.026  0.00  0.00     0.163 HD
BRANCH   8  11
HETATM   11  C   UNK N   1      32.694  14.509   7.230  0.00  0.00     0.225 C 
BRANCH  11  12
HETATM   12  N   UNK N   1      33.967  14.569   6.538  0.00  0.00    -0.351 N 
HETATM   13  C   UNK N   1      34.131  14.720   5.195  0.00  0.00     0.241 C 
HETATM   14  O   UNK N   1      35.257  14.848   4.748  0.00  0.00    -0.271 OA
HETATM   15  H   UNK N   1      34.781  14.495   7.086  0.00  0.00     0.163 HD
BRANCH  13  16
HETATM   16  C   UNK N   1      32.970  14.857   4.259  0.00  0.00     0.185 C 
BRANCH  16  17
HETATM   17  N   UNK N   1      32.893  13.611   3.567  0.00  0.00    -0.346 N 
HETATM   18  C   UNK N   1      31.759  13.003   3.207  0.00  0.00     0.236 C 
HETATM   19  O   UNK N   1      30.702  13.615   3.167  0.00  0.00    -0.272 OA
HETATM   20  H   UNK N   1      33.741  13.166   3.338  0.00  0.00     0.163 HD
BRANCH  18  21
HETATM   21  C   UNK N   1      31.778  11.511   3.239  0.00  0.00     0.225 C 
BRANCH  21  22
HETATM   22  N   UNK N   1      30.583  11.001   3.920  0.00  0.00    -0.351 N 
HETATM   23  C   UNK N   1      30.464  10.152   5.001  0.00  0.00     0.235 C 
HETATM   24  O   UNK N   1      29.344   9.823   5.346  0.00  0.00    -0.272 OA
HETATM   25  H   UNK N   1      29.729  11.316   3.546  0.00  0.00     0.163 HD
BRANCH  23  26
HETATM   26  C   UNK N   1      31.607   9.567   5.817  0.00  0.00     0.225 C 
BRANCH  26  27
HETATM   27  N   UNK N   1      31.403   9.552   7.233  0.00  0.00    -0.351 N 
HETATM   28  C   UNK N   1      31.113   8.426   7.914  0.00  0.00     0.235 C 
HETATM   29  O   UNK N   1      30.834   8.518   9.098  0.00  0.00    -0.272 OA
HETATM   30  H   UNK N   1      31.477  10.399   7.730  0.00  0.00     0.163 HD
BRANCH  28  31
HETATM   31  C   UNK N   1      31.016   7.082   7.228  0.00  0.00     0.225 C 
BRANCH  31  32
HETATM   32  N   UNK N   1      30.995   6.108   8.275  0.00  0.00    -0.351 N 
HETATM   33  C   UNK N   1      32.105   5.435   8.609  0.00  0.00     0.235 C 
HETATM   34  O   UNK N   1      33.032   5.325   7.819  0.00  0.00    -0.272 OA
HETATM   35  H   UNK N   1      30.155   5.932   8.757  0.00  0.00     0.163 HD
BRANCH  33  36
HETATM   36  C   UNK N   1      32.375   5.330  10.051  0.00  0.00     0.225 C 
BRANCH  36  37
HETATM   37  N   UNK N   1      32.922   6.625  10.398  0.00  0.00    -0.351 N 
HETATM   38  C   UNK N   1      34.106   6.790  11.033  0.00  0.00     0.241 C 
HETATM   39  O   UNK N   1      34.838   5.830  11.243  0.00  0.00    -0.271 OA
HETATM   40  H   UNK N   1      32.405   7.429  10.160  0.00  0.00     0.163 HD
BRANCH  38  41
HETATM   41  C   UNK N   1      34.503   8.170  11.503  0.00  0.00     0.179 C 
HETATM   42  C   UNK N   1      35.165   8.142  12.872  0.00  0.00     0.037 C 
HETATM   43  C   UNK N   1      36.663   8.074  12.600  0.00  0.00     0.022 C 
HETATM   44  C   UNK N   1      36.844   8.636  11.199  0.00  0.00     0.127 C 
HETATM   45  N   UNK N   1      35.519   8.677  10.641  0.00  0.00    -0.337 N 
HETATM   46  C   UNK N   1      35.224   9.178   9.406  0.00  0.00     0.243 C 
HETATM   47  O   UNK N   1      34.059   9.247   9.040  0.00  0.00    -0.271 OA
BRANCH  46  48
HETATM   48  C   UNK N   1      36.291   9.632   8.464  0.00  0.00     0.176 C 
BRANCH  48  49
HETATM   49  C   UNK N   1      36.538   8.585   7.369  0.00  0.00     0.036 C 
BRANCH  49  50
HETATM   50  C   UNK N   1      37.878   8.779   6.664  0.00  0.00     0.023 C 
BRANCH  50  51
HETATM   51  C   UNK N   1      37.724   8.734   5.149  0.00  0.00     0.138 C 
BRANCH  51  52
HETATM   52  N   UNK N   1      36.427   9.223   4.742  0.00  0.00    -0.227 N 
HETATM   53  C   UNK N   1      35.648   8.535   3.773  0.00  0.00     0.665 C 
HETATM   54  N   UNK N   1      36.109   7.491   3.188  0.00  0.00    -0.235 N 
HETATM   55  N   UNK N   1      34.364   9.015   3.433  0.00  0.00    -0.235 N 
HETATM   56  H   UNK N   1      36.742   6.736   3.178  0.00  0.00     0.174 HD
ATOM     57  HN  UNK N   1      35.565   7.399   2.330  1.00  0.00     0.174 HD
HETATM   58  H   UNK N   1      34.083   9.425   2.583  0.00  0.00     0.174 HD
HETATM   59  H   UNK N   1      33.670   8.930   4.126  0.00  0.00     0.174 HD
HETATM   60  H   UNK N   1      36.075  10.051   5.143  0.00  0.00     0.177 HD
ENDBRANCH  51  52
ENDBRANCH  50  51
ENDBRANCH  49  50
ENDBRANCH  48  49
BRANCH  48  61
HETATM   61  N   UNK N   1      35.913  10.905   7.903  0.00  0.00    -0.346 N 
HETATM   62  C   UNK N   1      36.403  12.073   8.377  0.00  0.00     0.241 C 
HETATM   63  O   UNK N   1      36.147  13.106   7.774  0.00  0.00    -0.271 OA
HETATM   64  H   UNK N   1      35.279  10.924   7.151  0.00  0.00     0.163 HD
BRANCH  62  65
HETATM   65  C   UNK N   1      37.241  12.132   9.646  0.00  0.00     0.179 C 
HETATM   66  C   UNK N   1      38.714  12.213   9.272  0.00  0.00     0.037 C 
HETATM   67  C   UNK N   1      39.109  13.693   9.358  0.00  0.00     0.022 C 
HETATM   68  C   UNK N   1      37.889  14.438   9.872  0.00  0.00     0.127 C 
HETATM   69  N   UNK N   1      36.999  13.395  10.285  0.00  0.00    -0.337 N 
HETATM   70  C   UNK N   1      36.144  13.579  11.323  0.00  0.00     0.243 C 
HETATM   71  O   UNK N   1      35.979  14.704  11.773  0.00  0.00    -0.271 OA
BRANCH  70  72
HETATM   72  C   UNK N   1      35.412  12.421  11.951  0.00  0.00     0.171 C 
BRANCH  72  73
HETATM   73  N   UNK N   1      34.244  12.100  11.160  0.00  0.00    -0.418 N 
HETATM   74  H   UNK N   1      34.054  11.258  10.619  0.00  0.00     0.150 HD
HETATM   75  H   UNK N   1      33.513  12.812  11.143  0.00  0.00     0.150 HD
ENDBRANCH  72  73
BRANCH  72  76
HETATM   76  C   UNK N   1      35.012  12.728  13.410  0.00  0.00     0.072 C 
BRANCH  76  77
HETATM   77  C   UNK N   1      35.354  11.609  14.350  0.00  0.00    -0.056 A 
HETATM   78  C   UNK N   1      36.700  11.287  14.569  0.00  0.00     0.007 A 
HETATM   79  C   UNK N   1      37.046  10.337  15.533  0.00  0.00     0.001 A 
HETATM   80  C   UNK N   1      36.049   9.703  16.278  0.00  0.00     0.000 A 
HETATM   81  C   UNK N   1      34.703  10.010  16.053  0.00  0.00     0.001 A 
HETATM   82  C   UNK N   1      34.356  10.969  15.096  0.00  0.00     0.007 A 
ENDBRANCH  76  77
ENDBRANCH  72  76
ENDBRANCH  70  72
ENDBRANCH  62  65
ENDBRANCH  48  61
ENDBRANCH  46  48
ENDBRANCH  38  41
ENDBRANCH  36  37
ENDBRANCH  33  36
ENDBRANCH  31  32
ENDBRANCH  28  31
ENDBRANCH  26  27
ENDBRANCH  23  26
ENDBRANCH  21  22
ENDBRANCH  18  21
ENDBRANCH  16  17
BRANCH  16  83
HETATM   83  C   UNK N   1      32.974  16.094   3.371  0.00  0.00     0.137 C 
BRANCH  83  84
HETATM   84  C   UNK N   1      31.798  16.972   3.703  0.00  0.00     0.217 C 
HETATM   85  N   UNK N   1      30.588  16.692   3.184  0.00  0.00    -0.370 N 
HETATM   86  H   UNK N   1      30.135  15.846   3.402  0.00  0.00     0.159 HD
HETATM   87  H   UNK N   1      30.152  17.339   2.584  0.00  0.00     0.159 HD
HETATM   88  O   UNK N   1      31.928  17.934   4.442  0.00  0.00    -0.274 OA
ENDBRANCH  83  84
ENDBRANCH  16  83
ENDBRANCH  13  16
ENDBRANCH  11  12
ENDBRANCH   8  11
ENDBRANCH   6   7
BRANCH   6  89
HETATM   89  C   UNK N   1      32.672  18.428   8.054  0.00  0.00     0.144 C 
BRANCH  89  90
HETATM   90  C   UNK N   1      34.121  18.071   7.884  0.00  0.00     0.141 C 
HETATM   91  O   UNK N   1      34.575  17.809   6.783  0.00  0.00    -0.650 OA
BRANCH  90  92
HETATM   92  O   UNK N   1      34.929  18.045   8.958  0.00  0.00    -0.776 OA
HETATM   93  H   UNK N   1      34.583  17.823   9.800  0.00  0.00     0.167 HD
ENDBRANCH  90  92
ENDBRANCH  89  90
ENDBRANCH   6  89
ENDBRANCH   3   6
ENDBRANCH   1   2
BRANCH   1  94
HETATM   94  C   UNK N   1      29.117  18.620   6.533  0.00  0.00     0.073 C 
BRANCH  94  95
HETATM   95  C   UNK N   1      28.097  19.375   5.708  0.00  0.00    -0.056 A 
HETATM   96  C   UNK N   1      27.918  19.076   4.354  0.00  0.00     0.007 A 
HETATM   97  C   UNK N   1      26.959  19.770   3.604  0.00  0.00     0.001 A 
HETATM   98  C   UNK N   1      26.178  20.766   4.200  0.00  0.00     0.000 A 
HETATM   99  C   UNK N   1      26.359  21.080   5.546  0.00  0.00     0.001 A 
HETATM  100  C   UNK N   1      27.316  20.391   6.289  0.00  0.00     0.007 A 
ENDBRANCH  94  95
ENDBRANCH   1  94
BRANCH   1 101
HETATM  101  C   UNK N   1      28.552  16.088   6.414  0.00  0.00     0.241 C 
HETATM  102  O   UNK N   1      29.626  15.586   6.133  0.00  0.00    -0.271 OA
HETATM  103  N   UNK N   1      27.426  15.562   5.857  0.00  0.00    -0.346 N 
HETATM  104  H   UNK N   1      27.547  14.981   5.073  0.00  0.00     0.163 HD
BRANCH 103 105
HETATM  105  C   UNK N   1      26.069  15.779   6.311  0.00  0.00     0.177 C 
BRANCH 105 106
HETATM  106  C   UNK N   1      25.462  14.669   7.192  0.00  0.00     0.045 C 
BRANCH 106 107
HETATM  107  C   UNK N   1      25.238  13.355   6.438  0.00  0.00     0.112 C 
BRANCH 107 108
HETATM  108  C   UNK N   1      24.111  12.546   7.022  0.00  0.00     0.139 C 
HETATM  109  O   UNK N   1      23.079  13.087   7.378  0.00  0.00    -0.650 OA
BRANCH 108 110
HETATM  110  O   UNK N   1      24.244  11.216   7.173  0.00  0.00    -0.776 OA
HETATM  111  H   UNK N   1      24.716  10.511   6.774  0.00  0.00     0.167 HD
ENDBRANCH 108 110
ENDBRANCH 107 108
ENDBRANCH 106 107
ENDBRANCH 105 106
BRANCH 105 112
HETATM  112  C   UNK N   1      25.282  16.166   5.101  0.00  0.00     0.241 C 
HETATM  113  O   UNK N   1      25.869  16.235   4.027  0.00  0.00    -0.271 OA
HETATM  114  N   UNK N   1      23.969  16.505   5.199  0.00  0.00    -0.346 N 
HETATM  115  H   UNK N   1      23.526  16.399   6.072  0.00  0.00     0.163 HD
BRANCH 114 116
HETATM  116  C   UNK N   1      23.185  17.011   4.095  0.00  0.00     0.177 C 
BRANCH 116 117
HETATM  117  C   UNK N   1      22.081  17.918   4.634  0.00  0.00     0.045 C 
BRANCH 117 118
HETATM  118  C   UNK N   1      21.928  17.871   6.158  0.00  0.00     0.112 C 
BRANCH 118 119
HETATM  119  C   UNK N   1      20.909  17.036   6.883  0.00  0.00     0.139 C 
HETATM  120  O   UNK N   1      20.132  16.351   6.242  0.00  0.00    -0.650 OA
BRANCH 119 121
HETATM  121  O   UNK N   1      20.744  17.150   8.212  0.00  0.00    -0.776 OA
HETATM  122  H   UNK N   1      20.255  17.845   8.607  0.00  0.00     0.167 HD
ENDBRANCH 119 121
ENDBRANCH 118 119
ENDBRANCH 117 118
ENDBRANCH 116 117
BRANCH 116 123
HETATM  123  C   UNK N   1      22.574  15.865   3.324  0.00  0.00     0.241 C 
HETATM  124  O   UNK N   1      23.229  15.299   2.464  0.00  0.00    -0.271 OA
HETATM  125  N   UNK N   1      21.314  15.446   3.596  0.00  0.00    -0.346 N 
HETATM  126  H   UNK N   1      20.799  15.928   4.283  0.00  0.00     0.163 HD
BRANCH 125 127
HETATM  127  C   UNK N   1      20.682  14.313   2.921  0.00  0.00     0.180 C 
BRANCH 127 128
HETATM  128  C   UNK N   1      20.755  14.402   1.373  0.00  0.00     0.013 C 
HETATM  129  C   UNK N   1      19.527  15.006   0.709  0.00  0.00     0.012 C 
BRANCH 128 130
HETATM  130  C   UNK N   1      21.014  13.044   0.740  0.00  0.00     0.002 C 
HETATM  131  C   UNK N   1      22.408  12.987   0.148  0.00  0.00     0.005 C 
ENDBRANCH 128 130
ENDBRANCH 127 128
BRANCH 127 132
HETATM  132  C   UNK N   1      20.937  12.986   3.672  0.00  0.00     0.243 C 
HETATM  133  O   UNK N   1      22.006  12.878   4.241  0.00  0.00    -0.271 OA
HETATM  134  N   UNK N   1      20.016  11.961   3.769  0.00  0.00    -0.337 N 
HETATM  135  C   UNK N   1      18.705  11.994   3.206  0.00  0.00     0.127 C 
HETATM  136  C   UNK N   1      20.291  10.751   4.529  0.00  0.00     0.179 C 
HETATM  137  C   UNK N   1      18.099  10.634   3.504  0.00  0.00     0.022 C 
HETATM  138  C   UNK N   1      18.963  10.021   4.597  0.00  0.00     0.037 C 
BRANCH 136 139
HETATM  139  C   UNK N   1      21.321   9.906   3.843  0.00  0.00     0.241 C 
HETATM  140  O   UNK N   1      20.988   9.234   2.876  0.00  0.00    -0.271 OA
HETATM  141  N   UNK N   1      22.585   9.820   4.351  0.00  0.00    -0.346 N 
HETATM  142  H   UNK N   1      22.846  10.471   5.042  0.00  0.00     0.163 HD
BRANCH 141 143
HETATM  143  C   UNK N   1      23.575   8.832   3.943  0.00  0.00     0.177 C 
BRANCH 143 144
HETATM  144  C   UNK N   1      23.304   7.439   4.526  0.00  0.00     0.045 C 
BRANCH 144 145
HETATM  145  C   UNK N   1      22.371   7.432   5.729  0.00  0.00     0.112 C 
BRANCH 145 146
HETATM  146  C   UNK N   1      23.157   7.224   6.977  0.00  0.00     0.139 C 
HETATM  147  O   UNK N   1      23.113   6.151   7.555  0.00  0.00    -0.650 OA
BRANCH 146 148
HETATM  148  O   UNK N   1      23.907   8.225   7.475  0.00  0.00    -0.776 OA
HETATM  149  H   UNK N   1      24.737   8.441   7.100  0.00  0.00     0.167 HD
ENDBRANCH 146 148
ENDBRANCH 145 146
ENDBRANCH 144 145
ENDBRANCH 143 144
BRANCH 143 150
HETATM  150  C   UNK N   1      24.967   9.386   4.171  0.00  0.00     0.241 C 
HETATM  151  O   UNK N   1      25.480   9.255   5.271  0.00  0.00    -0.271 OA
HETATM  152  N   UNK N   1      25.670  10.060   3.235  0.00  0.00    -0.346 N 
HETATM  153  H   UNK N   1      26.552  10.384   3.529  0.00  0.00     0.163 HD
BRANCH 152 154
HETATM  154  C   UNK N   1      25.327  10.374   1.880  0.00  0.00     0.177 C 
BRANCH 154 155
HETATM  155  C   UNK N   1      25.268  11.922   1.733  0.00  0.00     0.045 C 
BRANCH 155 156
HETATM  156  C   UNK N   1      25.671  12.787   2.962  0.00  0.00     0.112 C 
BRANCH 156 157
HETATM  157  C   UNK N   1      27.141  13.048   3.178  0.00  0.00     0.139 C 
HETATM  158  O   UNK N   1      27.870  12.136   3.534  0.00  0.00    -0.650 OA
BRANCH 157 159
HETATM  159  O   UNK N   1      27.650  14.287   3.055  0.00  0.00    -0.776 OA
HETATM  160  H   UNK N   1      28.190  15.025   3.260  0.00  0.00     0.167 HD
ENDBRANCH 157 159
ENDBRANCH 156 157
ENDBRANCH 155 156
ENDBRANCH 154 155
BRANCH 154 161
HETATM  161  C   UNK N   1      26.437   9.840   1.028  0.00  0.00     0.241 C 
HETATM  162  O   UNK N   1      26.171   9.159   0.052  0.00  0.00    -0.271 OA
HETATM  163  N   UNK N   1      27.708  10.271   1.276  0.00  0.00    -0.346 N 
HETATM  164  H   UNK N   1      27.855  10.738   2.129  0.00  0.00     0.163 HD
BRANCH 163 165
HETATM  165  C   UNK N   1      28.860  10.116   0.421  0.00  0.00     0.180 C 
BRANCH 165 166
HETATM  166  C   UNK N   1      29.632  11.420   0.203  0.00  0.00     0.073 C 
BRANCH 166 167
HETATM  167  C   UNK N   1      30.525  11.413  -0.980  0.00  0.00    -0.056 A 
HETATM  168  C   UNK N   1      31.852  11.826  -0.847  0.00  0.00     0.010 A 
HETATM  169  C   UNK N   1      32.691  11.842  -1.957  0.00  0.00     0.037 A 
HETATM  170  C   UNK N   1      32.210  11.441  -3.203  0.00  0.00     0.065 A 
HETATM  171  C   UNK N   1      30.887  11.007  -3.337  0.00  0.00     0.037 A 
HETATM  172  C   UNK N   1      30.044  10.986  -2.223  0.00  0.00     0.010 A 
BRANCH 170 173
HETATM  173  O   UNK N   1      33.020  11.470  -4.271  0.00  0.00    -0.361 OA
HETATM  174  H   UNK N   1      33.934  11.496  -4.478  0.00  0.00     0.217 HD
ENDBRANCH 170 173
ENDBRANCH 166 167
ENDBRANCH 165 166
BRANCH 165 175
HETATM  175  C   UNK N   1      29.611   8.840   0.733  0.00  0.00     0.241 C 
HETATM  176  O   UNK N   1      30.117   8.219  -0.186  0.00  0.00    -0.271 OA
HETATM  177  N   UNK N   1      29.620   8.351   2.005  0.00  0.00    -0.345 N 
HETATM  178  H   UNK N   1      29.220   8.941   2.684  0.00  0.00     0.163 HD
BRANCH 177 179
HETATM  179  C   UNK N   1      30.133   7.082   2.510  0.00  0.00     0.182 C 
BRANCH 179 180
HETATM  180  C   UNK N   1      29.374   6.632   3.762  0.00  0.00     0.040 C 
BRANCH 180 181
HETATM  181  C   UNK N   1      28.247   5.641   3.507  0.00  0.00    -0.020 C 
HETATM  182  C   UNK N   1      26.999   6.389   3.081  0.00  0.00     0.009 C 
HETATM  183  C   UNK N   1      27.930   4.919   4.798  0.00  0.00     0.009 C 
ENDBRANCH 180 181
ENDBRANCH 179 180
BRANCH 179 184
HETATM  184  C   UNK N   1      31.628   6.897   2.564  0.00  0.00     0.163 C 
HETATM  185  O   UNK N   1      32.225   6.888   3.629  0.00  0.00    -0.648 OA
BRANCH 184 186
HETATM  186  O   UNK N   1      32.309   6.692   1.421  0.00  0.00    -0.775 OA
HETATM  187  H   UNK N   1      32.815   7.319   0.943  0.00  0.00     0.167 HD
ENDBRANCH 184 186
ENDBRANCH 179 184
ENDBRANCH 177 179
ENDBRANCH 165 175
ENDBRANCH 163 165
ENDBRANCH 154 161
ENDBRANCH 152 154
ENDBRANCH 143 150
ENDBRANCH 141 143
ENDBRANCH 136 139
ENDBRANCH 127 132
ENDBRANCH 125 127
ENDBRANCH 116 123
ENDBRANCH 114 116
ENDBRANCH 105 112
ENDBRANCH 103 105
ENDBRANCH   1 101
TORSDOF 74
ENDMDL
MODEL 3
REMARK VINA RESULT:      -6.6      2.947     11.433
REMARK WARNING: 32 MAX_TORS EXCEEDED!!!
REMARK  74 active torsions:
REMARK  status: ('A' for Active; 'I' for Inactive)
REMARK       I    between atoms: C_3  and  N_4 
REMARK       I    between atoms: C_3  and  N_5 
REMARK    1  A    between atoms: N_5  and  C_6 
REMARK    2  A    between atoms: C_6  and  C_7 
REMARK    3  A    between atoms: C_7  and  C_8 
REMARK    4  A    between atoms: C_8  and  C_9 
REMARK    5  A    between atoms: C_9  and  N_10 
REMARK    6  A    between atoms: C_9  and  C_29 
REMARK       I    between atoms: N_10  and  C_11 
REMARK    7  A    between atoms: C_13  and  C_11 
REMARK       I    between atoms: N_17  and  C_18 
REMARK    8  A    between atoms: C_18  and  C_20 
REMARK    9  A    between atoms: C_20  and  N_21 
REMARK   10  A    between atoms: C_20  and  C_22 
REMARK   11  A    between atoms: C_22  and  C_23 
REMARK       I    between atoms: C_29  and  N_31 
REMARK   12  A    between atoms: C_35  and  C_36 
REMARK       I    between atoms: C_36  and  N_38 
REMARK   13  A    between atoms: N_38  and  C_39 
REMARK   14  A    between atoms: C_39  and  C_40 
REMARK       I    between atoms: C_40  and  N_42 
REMARK   15  A    between atoms: N_42  and  C_43 
REMARK   16  A    between atoms: C_43  and  C_44 
REMARK       I    between atoms: C_44  and  N_46 
REMARK   17  A    between atoms: N_46  and  C_47 
REMARK   18  A    between atoms: C_47  and  C_48 
REMARK       I    between atoms: C_48  and  N_50 
REMARK   19  A    between atoms: N_50  and  C_51 
REMARK   20  A    between atoms: C_51  and  C_52 
REMARK       I    between atoms: C_52  and  N_54 
REMARK   21  A    between atoms: C_55  and  N_54 
REMARK   22  A    between atoms: C_55  and  C_56 
REMARK   23  A    between atoms: C_55  and  C_60 
REMARK   24  A    between atoms: C_56  and  C_57 
REMARK       I    between atoms: C_57  and  N_58 
REMARK       I    between atoms: C_60  and  N_62 
REMARK   25  A    between atoms: N_62  and  C_63 
REMARK   26  A    between atoms: C_63  and  C_64 
REMARK       I    between atoms: C_64  and  N_66 
REMARK   27  A    between atoms: C_67  and  N_66 
REMARK   28  A    between atoms: C_67  and  C_68 
REMARK   29  A    between atoms: C_67  and  C_72 
REMARK   30  A    between atoms: C_68  and  C_69 
REMARK   31  A    between atoms: C_69  and  O_70 
REMARK       I    between atoms: C_72  and  N_74 
REMARK   32  A    between atoms: C_75  and  N_74 
REMARK   33  A    between atoms: C_75  and  C_76 
REMARK   34  A    between atoms: C_75  and  C_83 
REMARK   35  A    between atoms: C_76  and  C_77 
REMARK       I    between atoms: C_83  and  N_85 
REMARK   36  A    between atoms: C_86  and  N_85 
REMARK   37  A    between atoms: C_86  and  C_87 
REMARK   38  A    between atoms: C_86  and  C_92 
REMARK   39  A    between atoms: C_87  and  C_88 
REMARK   40  A    between atoms: C_88  and  C_89 
REMARK   41  A    between atoms: C_89  and  O_90 
REMARK       I    between atoms: C_92  and  N_94 
REMARK   42  A    between atoms: C_95  and  N_94 
REMARK   43  A    between atoms: C_95  and  C_96 
REMARK   44  A    between atoms: C_95  and  C_101 
REMARK   45  A    between atoms: C_96  and  C_97 
REMARK   46  A    between atoms: C_97  and  C_98 
REMARK   47  A    between atoms: C_98  and  O_99 
REMARK       I    between atoms: C_101  and  N_103 
REMARK   48  A    between atoms: C_104  and  N_103 
REMARK   49  A    between atoms: C_104  and  C_105 
REMARK   50  A    between atoms: C_104  and  C_109 
REMARK   51  A    between atoms: C_105  and  C_107 
REMARK       I    between atoms: C_109  and  N_111 
REMARK   52  A    between atoms: C_115  and  C_116 
REMARK       I    between atoms: C_116  and  N_118 
REMARK   53  A    between atoms: C_119  and  N_118 
REMARK   54  A    between atoms: C_119  and  C_120 
REMARK   55  A    between atoms: C_119  and  C_125 
REMARK   56  A    between atoms: C_120  and  C_121 
REMARK   57  A    between atoms: C_121  and  C_122 
REMARK   58  A    between atoms: C_122  and  O_123 
REMARK       I    between atoms: C_125  and  N_127 
REMARK   59  A    between atoms: C_128  and  N_127 
REMARK   60  A    between atoms: C_128  and  C_129 
REMARK   61  A    between atoms: C_128  and  C_134 
REMARK   62  A    between atoms: C_129  and  C_130 
REMARK   63  A    between atoms: C_130  and  C_131 
REMARK   64  A    between atoms: C_131  and  O_132 
REMARK       I    between atoms: C_134  and  N_136 
REMARK   65  A    between atoms: C_137  and  N_136 
REMARK   66  A    between atoms: C_137  and  C_138 
REMARK   67  A    between atoms: C_137  and  C_146 
REMARK   68  A    between atoms: C_138  and  C_139 
REMARK   69  A    between atoms: C_142  and  O_143 
REMARK       I    between atoms: C_146  and  N_148 
REMARK   70  A    between atoms: C_149  and  N_148 
REMARK   71  A    between atoms: C_149  and  C_150 
REMARK   72  A    between atoms: C_149  and  C_154 
REMARK   73  A    between atoms: C_150  and  C_151 
REMARK   74  A    between atoms: C_154  and  O_155 
ROOT
HETATM    1  C   UNK N   1      33.363  15.341   7.895  0.00  0.00     0.180 C 
ENDROOT
BRANCH   1   2
HETATM    2  N   UNK N   1      32.755  16.434   7.195  0.00  0.00    -0.346 N 
HETATM    3  C   UNK N   1      31.741  17.125   7.728  0.00  0.00     0.241 C 
HETATM    4  O   UNK N   1      31.969  18.171   8.312  0.00  0.00    -0.271 OA
HETATM    5  H   UNK N   1      33.092  16.682   6.303  0.00  0.00     0.163 HD
BRANCH   3   6
HETATM    6  C   UNK N   1      30.339  16.652   7.543  0.00  0.00     0.186 C 
BRANCH   6   7
HETATM    7  N   UNK N   1      30.083  16.244   6.173  0.00  0.00    -0.346 N 
HETATM    8  C   UNK N   1      29.582  17.025   5.180  0.00  0.00     0.236 C 
HETATM    9  O   UNK N   1      29.415  16.528   4.079  0.00  0.00    -0.272 OA
HETATM   10  H   UNK N   1      30.294  15.310   5.941  0.00  0.00     0.163 HD
BRANCH   8  11
HETATM   11  C   UNK N   1      29.217  18.483   5.355  0.00  0.00     0.225 C 
BRANCH  11  12
HETATM   12  N   UNK N   1      28.623  19.122   4.197  0.00  0.00    -0.351 N 
HETATM   13  C   UNK N   1      27.447  19.808   4.188  0.00  0.00     0.241 C 
HETATM   14  O   UNK N   1      27.104  20.378   3.167  0.00  0.00    -0.271 OA
HETATM   15  H   UNK N   1      29.112  19.054   3.345  0.00  0.00     0.163 HD
BRANCH  13  16
HETATM   16  C   UNK N   1      26.621  19.991   5.423  0.00  0.00     0.185 C 
BRANCH  16  17
HETATM   17  N   UNK N   1      25.366  19.377   5.133  0.00  0.00    -0.346 N 
HETATM   18  C   UNK N   1      25.187  18.072   4.906  0.00  0.00     0.236 C 
HETATM   19  O   UNK N   1      26.033  17.254   5.234  0.00  0.00    -0.272 OA
HETATM   20  H   UNK N   1      24.573  19.958   5.097  0.00  0.00     0.163 HD
BRANCH  18  21
HETATM   21  C   UNK N   1      24.126  17.719   3.917  0.00  0.00     0.225 C 
BRANCH  21  22
HETATM   22  N   UNK N   1      23.014  18.672   4.001  0.00  0.00    -0.351 N 
HETATM   23  C   UNK N   1      21.862  18.638   4.760  0.00  0.00     0.235 C 
HETATM   24  O   UNK N   1      21.050  19.532   4.603  0.00  0.00    -0.272 OA
HETATM   25  H   UNK N   1      23.105  19.465   3.425  0.00  0.00     0.163 HD
BRANCH  23  26
HETATM   26  C   UNK N   1      21.487  17.575   5.782  0.00  0.00     0.225 C 
BRANCH  26  27
HETATM   27  N   UNK N   1      20.962  18.072   7.016  0.00  0.00    -0.351 N 
HETATM   28  C   UNK N   1      20.375  17.274   7.930  0.00  0.00     0.235 C 
HETATM   29  O   UNK N   1      19.846  17.792   8.899  0.00  0.00    -0.272 OA
HETATM   30  H   UNK N   1      21.032  19.035   7.206  0.00  0.00     0.163 HD
BRANCH  28  31
HETATM   31  C   UNK N   1      20.260  15.780   7.727  0.00  0.00     0.225 C 
BRANCH  31  32
HETATM   32  N   UNK N   1      20.868  15.181   8.874  0.00  0.00    -0.351 N 
HETATM   33  C   UNK N   1      20.149  14.427   9.718  0.00  0.00     0.235 C 
HETATM   34  O   UNK N   1      18.933  14.540   9.777  0.00  0.00    -0.272 OA
HETATM   35  H   UNK N   1      21.827  15.323   9.046  0.00  0.00     0.163 HD
BRANCH  33  36
HETATM   36  C   UNK N   1      20.772  13.158  10.125  0.00  0.00     0.225 C 
BRANCH  36  37
HETATM   37  N   UNK N   1      21.571  12.779   8.979  0.00  0.00    -0.351 N 
HETATM   38  C   UNK N   1      22.615  11.920   9.048  0.00  0.00     0.241 C 
HETATM   39  O   UNK N   1      22.861  11.323  10.089  0.00  0.00    -0.271 OA
HETATM   40  H   UNK N   1      21.344  13.168   8.103  0.00  0.00     0.163 HD
BRANCH  38  41
HETATM   41  C   UNK N   1      23.490  11.726   7.831  0.00  0.00     0.179 C 
HETATM   42  C   UNK N   1      24.101  10.334   7.780  0.00  0.00     0.037 C 
HETATM   43  C   UNK N   1      23.154   9.503   6.924  0.00  0.00     0.022 C 
HETATM   44  C   UNK N   1      22.400  10.506   6.067  0.00  0.00     0.127 C 
HETATM   45  N   UNK N   1      22.676  11.786   6.663  0.00  0.00    -0.337 N 
HETATM   46  C   UNK N   1      22.234  12.975   6.160  0.00  0.00     0.243 C 
HETATM   47  O   UNK N   1      22.581  14.024   6.685  0.00  0.00    -0.271 OA
BRANCH  46  48
HETATM   48  C   UNK N   1      21.311  13.042   4.986  0.00  0.00     0.176 C 
BRANCH  48  49
HETATM   49  C   UNK N   1      19.869  12.726   5.404  0.00  0.00     0.036 C 
BRANCH  49  50
HETATM   50  C   UNK N   1      19.126  11.892   4.363  0.00  0.00     0.023 C 
BRANCH  50  51
HETATM   51  C   UNK N   1      20.093  11.196   3.413  0.00  0.00     0.138 C 
BRANCH  51  52
HETATM   52  N   UNK N   1      19.544   9.951   2.928  0.00  0.00    -0.227 N 
HETATM   53  C   UNK N   1      20.386   8.875   2.536  0.00  0.00     0.665 C 
HETATM   54  N   UNK N   1      21.661   9.008   2.545  0.00  0.00    -0.235 N 
HETATM   55  N   UNK N   1      19.814   7.654   2.113  0.00  0.00    -0.235 N 
HETATM   56  H   UNK N   1      22.461   9.480   2.873  0.00  0.00     0.174 HD
ATOM     57  HN  UNK N   1      22.012   8.287   1.915  1.00  0.00     0.174 HD
HETATM   58  H   UNK N   1      19.812   7.278   1.203  0.00  0.00     0.174 HD
HETATM   59  H   UNK N   1      19.367   7.119   2.808  0.00  0.00     0.174 HD
HETATM   60  H   UNK N   1      18.567   9.845   2.867  0.00  0.00     0.177 HD
ENDBRANCH  51  52
ENDBRANCH  50  51
ENDBRANCH  49  50
ENDBRANCH  48  49
BRANCH  48  61
HETATM   61  N   UNK N   1      21.414  14.345   4.381  0.00  0.00    -0.346 N 
HETATM   62  C   UNK N   1      22.208  14.581   3.311  0.00  0.00     0.241 C 
HETATM   63  O   UNK N   1      22.148  15.674   2.764  0.00  0.00    -0.271 OA
HETATM   64  H   UNK N   1      20.888  15.088   4.757  0.00  0.00     0.163 HD
BRANCH  62  65
HETATM   65  C   UNK N   1      23.180  13.533   2.791  0.00  0.00     0.179 C 
HETATM   66  C   UNK N   1      22.663  12.976   1.474  0.00  0.00     0.037 C 
HETATM   67  C   UNK N   1      23.409  13.719   0.358  0.00  0.00     0.022 C 
HETATM   68  C   UNK N   1      24.417  14.626   1.042  0.00  0.00     0.127 C 
HETATM   69  N   UNK N   1      24.393  14.198   2.408  0.00  0.00    -0.337 N 
HETATM   70  C   UNK N   1      25.508  14.267   3.179  0.00  0.00     0.243 C 
HETATM   71  O   UNK N   1      26.479  14.891   2.777  0.00  0.00    -0.271 OA
BRANCH  70  72
HETATM   72  C   UNK N   1      25.584  13.567   4.512  0.00  0.00     0.171 C 
BRANCH  72  73
HETATM   73  N   UNK N   1      25.212  14.487   5.564  0.00  0.00    -0.418 N 
HETATM   74  H   UNK N   1      24.911  14.279   6.516  0.00  0.00     0.150 HD
HETATM   75  H   UNK N   1      25.255  15.477   5.320  0.00  0.00     0.150 HD
ENDBRANCH  72  73
BRANCH  72  76
HETATM   76  C   UNK N   1      26.993  12.991   4.770  0.00  0.00     0.072 C 
BRANCH  76  77
HETATM   77  C   UNK N   1      27.033  11.494   4.661  0.00  0.00    -0.056 A 
HETATM   78  C   UNK N   1      25.830  10.776   4.653  0.00  0.00     0.007 A 
HETATM   79  C   UNK N   1      25.838   9.397   4.426  0.00  0.00     0.001 A 
HETATM   80  C   UNK N   1      27.047   8.732   4.210  0.00  0.00     0.000 A 
HETATM   81  C   UNK N   1      28.251   9.442   4.231  0.00  0.00     0.001 A 
HETATM   82  C   UNK N   1      28.244  10.824   4.447  0.00  0.00     0.007 A 
ENDBRANCH  76  77
ENDBRANCH  72  76
ENDBRANCH  70  72
ENDBRANCH  62  65
ENDBRANCH  48  61
ENDBRANCH  46  48
ENDBRANCH  38  41
ENDBRANCH  36  37
ENDBRANCH  33  36
ENDBRANCH  31  32
ENDBRANCH  28  31
ENDBRANCH  26  27
ENDBRANCH  23  26
ENDBRANCH  21  22
ENDBRANCH  18  21
ENDBRANCH  16  17
BRANCH  16  83
HETATM   83  C   UNK N   1      26.538  21.414   5.962  0.00  0.00     0.137 C 
BRANCH  83  84
HETATM   84  C   UNK N   1      26.210  21.391   7.430  0.00  0.00     0.217 C 
HETATM   85  N   UNK N   1      26.680  20.397   8.205  0.00  0.00    -0.370 N 
HETATM   86  H   UNK N   1      27.649  20.274   8.327  0.00  0.00     0.159 HD
HETATM   87  H   UNK N   1      26.050  19.789   8.655  0.00  0.00     0.159 HD
HETATM   88  O   UNK N   1      25.523  22.270   7.928  0.00  0.00    -0.274 OA
ENDBRANCH  83  84
ENDBRANCH  16  83
ENDBRANCH  13  16
ENDBRANCH  11  12
ENDBRANCH   8  11
ENDBRANCH   6   7
BRANCH   6  89
HETATM   89  C   UNK N   1      29.374  17.760   7.995  0.00  0.00     0.144 C 
BRANCH  89  90
HETATM   90  C   UNK N   1      28.038  17.291   8.496  0.00  0.00     0.141 C 
HETATM   91  O   UNK N   1      27.476  16.340   7.980  0.00  0.00    -0.650 OA
BRANCH  90  92
HETATM   92  O   UNK N   1      27.457  17.925   9.529  0.00  0.00    -0.776 OA
HETATM   93  H   UNK N   1      27.194  18.821   9.443  0.00  0.00     0.167 HD
ENDBRANCH  90  92
ENDBRANCH  89  90
ENDBRANCH   6  89
ENDBRANCH   3   6
ENDBRANCH   1   2
BRANCH   1  94
HETATM   94  C   UNK N   1      32.897  15.315   9.364  0.00  0.00     0.073 C 
BRANCH  94  95
HETATM   95  C   UNK N   1      34.033  15.259  10.363  0.00  0.00    -0.056 A 
HETATM   96  C   UNK N   1      34.124  14.203  11.273  0.00  0.00     0.007 A 
HETATM   97  C   UNK N   1      35.190  14.152  12.183  0.00  0.00     0.001 A 
HETATM   98  C   UNK N   1      36.165  15.154  12.188  0.00  0.00     0.000 A 
HETATM   99  C   UNK N   1      36.074  16.219  11.293  0.00  0.00     0.001 A 
HETATM  100  C   UNK N   1      35.012  16.270  10.392  0.00  0.00     0.007 A 
ENDBRANCH  94  95
ENDBRANCH   1  94
BRANCH   1 101
HETATM  101  C   UNK N   1      33.079  14.093   7.080  0.00  0.00     0.241 C 
HETATM  102  O   UNK N   1      32.262  13.297   7.509  0.00  0.00    -0.271 OA
HETATM  103  N   UNK N   1      33.801  13.750   5.978  0.00  0.00    -0.346 N 
HETATM  104  H   UNK N   1      33.816  12.797   5.735  0.00  0.00     0.163 HD
BRANCH 103 105
HETATM  105  C   UNK N   1      34.548  14.656   5.132  0.00  0.00     0.177 C 
BRANCH 105 106
HETATM  106  C   UNK N   1      34.006  14.853   3.702  0.00  0.00     0.045 C 
BRANCH 106 107
HETATM  107  C   UNK N   1      32.565  14.362   3.531  0.00  0.00     0.112 C 
BRANCH 107 108
HETATM  108  C   UNK N   1      32.461  13.230   2.545  0.00  0.00     0.139 C 
HETATM  109  O   UNK N   1      31.878  12.201   2.842  0.00  0.00    -0.650 OA
BRANCH 108 110
HETATM  110  O   UNK N   1      33.029  13.339   1.331  0.00  0.00    -0.776 OA
HETATM  111  H   UNK N   1      32.821  13.700   0.492  0.00  0.00     0.167 HD
ENDBRANCH 108 110
ENDBRANCH 107 108
ENDBRANCH 106 107
ENDBRANCH 105 106
BRANCH 105 112
HETATM  112  C   UNK N   1      35.980  14.244   5.245  0.00  0.00     0.241 C 
HETATM  113  O   UNK N   1      36.791  15.074   5.639  0.00  0.00    -0.271 OA
HETATM  114  N   UNK N   1      36.386  13.007   4.851  0.00  0.00    -0.346 N 
HETATM  115  H   UNK N   1      35.698  12.358   4.577  0.00  0.00     0.163 HD
BRANCH 114 116
HETATM  116  C   UNK N   1      37.769  12.590   4.812  0.00  0.00     0.177 C 
BRANCH 116 117
HETATM  117  C   UNK N   1      38.043  11.873   3.492  0.00  0.00     0.045 C 
BRANCH 117 118
HETATM  118  C   UNK N   1      38.326  12.818   2.319  0.00  0.00     0.112 C 
BRANCH 118 119
HETATM  119  C   UNK N   1      37.285  13.293   1.343  0.00  0.00     0.139 C 
HETATM  120  O   UNK N   1      36.126  13.395   1.706  0.00  0.00    -0.650 OA
BRANCH 119 121
HETATM  121  O   UNK N   1      37.584  13.461   0.043  0.00  0.00    -0.776 OA
HETATM  122  H   UNK N   1      38.440  13.308  -0.306  0.00  0.00     0.167 HD
ENDBRANCH 119 121
ENDBRANCH 118 119
ENDBRANCH 117 118
ENDBRANCH 116 117
BRANCH 116 123
HETATM  123  C   UNK N   1      38.065  11.663   5.967  0.00  0.00     0.241 C 
HETATM  124  O   UNK N   1      39.019  10.904   5.903  0.00  0.00    -0.271 OA
HETATM  125  N   UNK N   1      37.295  11.684   7.082  0.00  0.00    -0.346 N 
HETATM  126  H   UNK N   1      36.521  12.293   7.105  0.00  0.00     0.163 HD
BRANCH 125 127
HETATM  127  C   UNK N   1      37.556  10.848   8.253  0.00  0.00     0.180 C 
BRANCH 127 128
HETATM  128  C   UNK N   1      38.098  11.645   9.469  0.00  0.00     0.013 C 
HETATM  129  C   UNK N   1      37.892  10.971  10.818  0.00  0.00     0.012 C 
BRANCH 128 130
HETATM  130  C   UNK N   1      37.501  13.041   9.543  0.00  0.00     0.002 C 
HETATM  131  C   UNK N   1      38.590  14.093   9.470  0.00  0.00     0.005 C 
ENDBRANCH 128 130
ENDBRANCH 127 128
BRANCH 127 132
HETATM  132  C   UNK N   1      36.486   9.744   8.416  0.00  0.00     0.243 C 
HETATM  133  O   UNK N   1      36.797   8.625   8.057  0.00  0.00    -0.271 OA
HETATM  134  N   UNK N   1      35.241   9.948   8.979  0.00  0.00    -0.337 N 
HETATM  135  C   UNK N   1      34.782  11.195   9.501  0.00  0.00     0.127 C 
HETATM  136  C   UNK N   1      34.289   8.862   9.151  0.00  0.00     0.179 C 
HETATM  137  C   UNK N   1      33.349  10.951   9.940  0.00  0.00     0.022 C 
HETATM  138  C   UNK N   1      33.188   9.439  10.021  0.00  0.00     0.037 C 
BRANCH 136 139
HETATM  139  C   UNK N   1      33.737   8.414   7.832  0.00  0.00     0.241 C 
HETATM  140  O   UNK N   1      33.411   7.243   7.694  0.00  0.00    -0.271 OA
HETATM  141  N   UNK N   1      33.689   9.282   6.780  0.00  0.00    -0.346 N 
HETATM  142  H   UNK N   1      33.833  10.237   6.968  0.00  0.00     0.163 HD
BRANCH 141 143
HETATM  143  C   UNK N   1      33.439   8.893   5.398  0.00  0.00     0.177 C 
BRANCH 143 144
HETATM  144  C   UNK N   1      34.684   9.017   4.510  0.00  0.00     0.045 C 
BRANCH 144 145
HETATM  145  C   UNK N   1      34.789  10.334   3.753  0.00  0.00     0.112 C 
BRANCH 145 146
HETATM  146  C   UNK N   1      34.815  10.074   2.286  0.00  0.00     0.139 C 
HETATM  147  O   UNK N   1      35.113   8.968   1.868  0.00  0.00    -0.650 OA
BRANCH 146 148
HETATM  148  O   UNK N   1      34.520  11.063   1.423  0.00  0.00    -0.776 OA
HETATM  149  H   UNK N   1      35.188  11.623   1.080  0.00  0.00     0.167 HD
ENDBRANCH 146 148
ENDBRANCH 145 146
ENDBRANCH 144 145
ENDBRANCH 143 144
BRANCH 143 150
HETATM  150  C   UNK N   1      32.192   9.591   4.893  0.00  0.00     0.241 C 
HETATM  151  O   UNK N   1      31.759  10.547   5.517  0.00  0.00    -0.271 OA
HETATM  152  N   UNK N   1      31.498   9.194   3.805  0.00  0.00    -0.346 N 
HETATM  153  H   UNK N   1      30.694   9.726   3.607  0.00  0.00     0.163 HD
BRANCH 152 154
HETATM  154  C   UNK N   1      31.753   8.116   2.897  0.00  0.00     0.177 C 
BRANCH 154 155
HETATM  155  C   UNK N   1      31.001   6.852   3.407  0.00  0.00     0.045 C 
BRANCH 155 156
HETATM  156  C   UNK N   1      31.486   6.203   4.735  0.00  0.00     0.112 C 
BRANCH 156 157
HETATM  157  C   UNK N   1      30.575   6.304   5.932  0.00  0.00     0.139 C 
HETATM  158  O   UNK N   1      30.209   7.402   6.322  0.00  0.00    -0.650 OA
BRANCH 157 159
HETATM  159  O   UNK N   1      30.217   5.208   6.626  0.00  0.00    -0.776 OA
HETATM  160  H   UNK N   1      30.277   4.330   6.947  0.00  0.00     0.167 HD
ENDBRANCH 157 159
ENDBRANCH 156 157
ENDBRANCH 155 156
ENDBRANCH 154 155
BRANCH 154 161
HETATM  161  C   UNK N   1      31.182   8.530   1.577  0.00  0.00     0.241 C 
HETATM  162  O   UNK N   1      30.728   7.684   0.825  0.00  0.00    -0.271 OA
HETATM  163  N   UNK N   1      31.036   9.864   1.324  0.00  0.00    -0.346 N 
HETATM  164  H   UNK N   1      31.509  10.479   1.929  0.00  0.00     0.163 HD
BRANCH 163 165
HETATM  165  C   UNK N   1      30.263  10.469   0.266  0.00  0.00     0.180 C 
BRANCH 165 166
HETATM  166  C   UNK N   1      29.112  11.338   0.779  0.00  0.00     0.073 C 
BRANCH 166 167
HETATM  167  C   UNK N   1      27.786  10.675   0.755  0.00  0.00    -0.056 A 
HETATM  168  C   UNK N   1      26.642  11.404   1.086  0.00  0.00     0.010 A 
HETATM  169  C   UNK N   1      25.396  10.783   1.087  0.00  0.00     0.037 A 
HETATM  170  C   UNK N   1      25.287   9.435   0.750  0.00  0.00     0.065 A 
HETATM  171  C   UNK N   1      26.428   8.706   0.397  0.00  0.00     0.037 A 
HETATM  172  C   UNK N   1      27.679   9.328   0.392  0.00  0.00     0.010 A 
BRANCH 170 173
HETATM  173  O   UNK N   1      24.086   8.839   0.764  0.00  0.00    -0.361 OA
HETATM  174  H   UNK N   1      23.179   9.054   0.670  0.00  0.00     0.217 HD
ENDBRANCH 170 173
ENDBRANCH 166 167
ENDBRANCH 165 166
BRANCH 165 175
HETATM  175  C   UNK N   1      31.154  10.977  -0.846  0.00  0.00     0.241 C 
HETATM  176  O   UNK N   1      30.634  11.405  -1.862  0.00  0.00    -0.271 OA
HETATM  177  N   UNK N   1      32.507  10.852  -0.743  0.00  0.00    -0.345 N 
HETATM  178  H   UNK N   1      32.834  10.533   0.128  0.00  0.00     0.163 HD
BRANCH 177 179
HETATM  179  C   UNK N   1      33.543  11.120  -1.735  0.00  0.00     0.182 C 
BRANCH 179 180
HETATM  180  C   UNK N   1      33.824   9.885  -2.596  0.00  0.00     0.040 C 
BRANCH 180 181
HETATM  181  C   UNK N   1      33.736  10.118  -4.098  0.00  0.00    -0.020 C 
HETATM  182  C   UNK N   1      34.140  11.544  -4.416  0.00  0.00     0.009 C 
HETATM  183  C   UNK N   1      32.300   9.939  -4.536  0.00  0.00     0.009 C 
ENDBRANCH 180 181
ENDBRANCH 179 180
BRANCH 179 184
HETATM  184  C   UNK N   1      34.764  11.884  -1.289  0.00  0.00     0.163 C 
HETATM  185  O   UNK N   1      35.867  11.361  -1.280  0.00  0.00    -0.648 OA
BRANCH 184 186
HETATM  186  O   UNK N   1      34.642  13.178  -0.942  0.00  0.00    -0.775 OA
HETATM  187  H   UNK N   1      34.815  13.927  -1.477  0.00  0.00     0.167 HD
ENDBRANCH 184 186
ENDBRANCH 179 184
ENDBRANCH 177 179
ENDBRANCH 165 175
ENDBRANCH 163 165
ENDBRANCH 154 161
ENDBRANCH 152 154
ENDBRANCH 143 150
ENDBRANCH 141 143
ENDBRANCH 136 139
ENDBRANCH 127 132
ENDBRANCH 125 127
ENDBRANCH 116 123
ENDBRANCH 114 116
ENDBRANCH 105 112
ENDBRANCH 103 105
ENDBRANCH   1 101
TORSDOF 74
ENDMDL
MODEL 4
REMARK VINA RESULT:      -6.6      2.850      9.739
REMARK WARNING: 32 MAX_TORS EXCEEDED!!!
REMARK  74 active torsions:
REMARK  status: ('A' for Active; 'I' for Inactive)
REMARK       I    between atoms: C_3  and  N_4 
REMARK       I    between atoms: C_3  and  N_5 
REMARK    1  A    between atoms: N_5  and  C_6 
REMARK    2  A    between atoms: C_6  and  C_7 
REMARK    3  A    between atoms: C_7  and  C_8 
REMARK    4  A    between atoms: C_8  and  C_9 
REMARK    5  A    between atoms: C_9  and  N_10 
REMARK    6  A    between atoms: C_9  and  C_29 
REMARK       I    between atoms: N_10  and  C_11 
REMARK    7  A    between atoms: C_13  and  C_11 
REMARK       I    between atoms: N_17  and  C_18 
REMARK    8  A    between atoms: C_18  and  C_20 
REMARK    9  A    between atoms: C_20  and  N_21 
REMARK   10  A    between atoms: C_20  and  C_22 
REMARK   11  A    between atoms: C_22  and  C_23 
REMARK       I    between atoms: C_29  and  N_31 
REMARK   12  A    between atoms: C_35  and  C_36 
REMARK       I    between atoms: C_36  and  N_38 
REMARK   13  A    between atoms: N_38  and  C_39 
REMARK   14  A    between atoms: C_39  and  C_40 
REMARK       I    between atoms: C_40  and  N_42 
REMARK   15  A    between atoms: N_42  and  C_43 
REMARK   16  A    between atoms: C_43  and  C_44 
REMARK       I    between atoms: C_44  and  N_46 
REMARK   17  A    between atoms: N_46  and  C_47 
REMARK   18  A    between atoms: C_47  and  C_48 
REMARK       I    between atoms: C_48  and  N_50 
REMARK   19  A    between atoms: N_50  and  C_51 
REMARK   20  A    between atoms: C_51  and  C_52 
REMARK       I    between atoms: C_52  and  N_54 
REMARK   21  A    between atoms: C_55  and  N_54 
REMARK   22  A    between atoms: C_55  and  C_56 
REMARK   23  A    between atoms: C_55  and  C_60 
REMARK   24  A    between atoms: C_56  and  C_57 
REMARK       I    between atoms: C_57  and  N_58 
REMARK       I    between atoms: C_60  and  N_62 
REMARK   25  A    between atoms: N_62  and  C_63 
REMARK   26  A    between atoms: C_63  and  C_64 
REMARK       I    between atoms: C_64  and  N_66 
REMARK   27  A    between atoms: C_67  and  N_66 
REMARK   28  A    between atoms: C_67  and  C_68 
REMARK   29  A    between atoms: C_67  and  C_72 
REMARK   30  A    between atoms: C_68  and  C_69 
REMARK   31  A    between atoms: C_69  and  O_70 
REMARK       I    between atoms: C_72  and  N_74 
REMARK   32  A    between atoms: C_75  and  N_74 
REMARK   33  A    between atoms: C_75  and  C_76 
REMARK   34  A    between atoms: C_75  and  C_83 
REMARK   35  A    between atoms: C_76  and  C_77 
REMARK       I    between atoms: C_83  and  N_85 
REMARK   36  A    between atoms: C_86  and  N_85 
REMARK   37  A    between atoms: C_86  and  C_87 
REMARK   38  A    between atoms: C_86  and  C_92 
REMARK   39  A    between atoms: C_87  and  C_88 
REMARK   40  A    between atoms: C_88  and  C_89 
REMARK   41  A    between atoms: C_89  and  O_90 
REMARK       I    between atoms: C_92  and  N_94 
REMARK   42  A    between atoms: C_95  and  N_94 
REMARK   43  A    between atoms: C_95  and  C_96 
REMARK   44  A    between atoms: C_95  and  C_101 
REMARK   45  A    between atoms: C_96  and  C_97 
REMARK   46  A    between atoms: C_97  and  C_98 
REMARK   47  A    between atoms: C_98  and  O_99 
REMARK       I    between atoms: C_101  and  N_103 
REMARK   48  A    between atoms: C_104  and  N_103 
REMARK   49  A    between atoms: C_104  and  C_105 
REMARK   50  A    between atoms: C_104  and  C_109 
REMARK   51  A    between atoms: C_105  and  C_107 
REMARK       I    between atoms: C_109  and  N_111 
REMARK   52  A    between atoms: C_115  and  C_116 
REMARK       I    between atoms: C_116  and  N_118 
REMARK   53  A    between atoms: C_119  and  N_118 
REMARK   54  A    between atoms: C_119  and  C_120 
REMARK   55  A    between atoms: C_119  and  C_125 
REMARK   56  A    between atoms: C_120  and  C_121 
REMARK   57  A    between atoms: C_121  and  C_122 
REMARK   58  A    between atoms: C_122  and  O_123 
REMARK       I    between atoms: C_125  and  N_127 
REMARK   59  A    between atoms: C_128  and  N_127 
REMARK   60  A    between atoms: C_128  and  C_129 
REMARK   61  A    between atoms: C_128  and  C_134 
REMARK   62  A    between atoms: C_129  and  C_130 
REMARK   63  A    between atoms: C_130  and  C_131 
REMARK   64  A    between atoms: C_131  and  O_132 
REMARK       I    between atoms: C_134  and  N_136 
REMARK   65  A    between atoms: C_137  and  N_136 
REMARK   66  A    between atoms: C_137  and  C_138 
REMARK   67  A    between atoms: C_137  and  C_146 
REMARK   68  A    between atoms: C_138  and  C_139 
REMARK   69  A    between atoms: C_142  and  O_143 
REMARK       I    between atoms: C_146  and  N_148 
REMARK   70  A    between atoms: C_149  and  N_148 
REMARK   71  A    between atoms: C_149  and  C_150 
REMARK   72  A    between atoms: C_149  and  C_154 
REMARK   73  A    between atoms: C_150  and  C_151 
REMARK   74  A    between atoms: C_154  and  O_155 
ROOT
HETATM    1  C   UNK N   1      28.352  17.505   7.525  0.00  0.00     0.180 C 
ENDROOT
BRANCH   1   2
HETATM    2  N   UNK N   1      29.089  17.181   8.712  0.00  0.00    -0.346 N 
HETATM    3  C   UNK N   1      30.228  17.813   9.018  0.00  0.00     0.241 C 
HETATM    4  O   UNK N   1      30.203  18.754   9.793  0.00  0.00    -0.271 OA
HETATM    5  H   UNK N   1      28.749  16.480   9.314  0.00  0.00     0.163 HD
BRANCH   3   6
HETATM    6  C   UNK N   1      31.524  17.318   8.470  0.00  0.00     0.186 C 
BRANCH   6   7
HETATM    7  N   UNK N   1      32.180  16.398   9.380  0.00  0.00    -0.346 N 
HETATM    8  C   UNK N   1      32.721  15.193   9.056  0.00  0.00     0.236 C 
HETATM    9  O   UNK N   1      33.232  14.529   9.943  0.00  0.00    -0.272 OA
HETATM   10  H   UNK N   1      32.239  16.672  10.324  0.00  0.00     0.163 HD
BRANCH   8  11
HETATM   11  C   UNK N   1      32.733  14.622   7.656  0.00  0.00     0.225 C 
BRANCH  11  12
HETATM   12  N   UNK N   1      34.019  14.632   6.986  0.00  0.00    -0.351 N 
HETATM   13  C   UNK N   1      34.212  14.754   5.645  0.00  0.00     0.241 C 
HETATM   14  O   UNK N   1      35.350  14.842   5.217  0.00  0.00    -0.271 OA
HETATM   15  H   UNK N   1      34.821  14.544   7.551  0.00  0.00     0.163 HD
BRANCH  13  16
HETATM   16  C   UNK N   1      33.072  14.908   4.685  0.00  0.00     0.185 C 
BRANCH  16  17
HETATM   17  N   UNK N   1      32.913  13.626   4.079  0.00  0.00    -0.346 N 
HETATM   18  C   UNK N   1      31.771  12.935   4.039  0.00  0.00     0.236 C 
HETATM   19  O   UNK N   1      30.697  13.480   4.246  0.00  0.00    -0.272 OA
HETATM   20  H   UNK N   1      33.705  13.220   3.659  0.00  0.00     0.163 HD
BRANCH  18  21
HETATM   21  C   UNK N   1      31.901  11.450   4.117  0.00  0.00     0.225 C 
BRANCH  21  22
HETATM   22  N   UNK N   1      30.599  10.839   4.405  0.00  0.00    -0.351 N 
HETATM   23  C   UNK N   1      30.277   9.741   5.177  0.00  0.00     0.235 C 
HETATM   24  O   UNK N   1      29.112   9.389   5.208  0.00  0.00    -0.272 OA
HETATM   25  H   UNK N   1      29.831  11.284   3.980  0.00  0.00     0.163 HD
BRANCH  23  26
HETATM   26  C   UNK N   1      31.244   8.903   5.999  0.00  0.00     0.225 C 
BRANCH  26  27
HETATM   27  N   UNK N   1      31.163   9.089   7.416  0.00  0.00    -0.351 N 
HETATM   28  C   UNK N   1      30.819   8.096   8.260  0.00  0.00     0.235 C 
HETATM   29  O   UNK N   1      30.655   8.367   9.438  0.00  0.00    -0.272 OA
HETATM   30  H   UNK N   1      31.366   9.977   7.788  0.00  0.00     0.163 HD
BRANCH  28  31
HETATM   31  C   UNK N   1      30.526   6.697   7.769  0.00  0.00     0.225 C 
BRANCH  31  32
HETATM   32  N   UNK N   1      30.666   5.844   8.908  0.00  0.00    -0.351 N 
HETATM   33  C   UNK N   1      31.744   5.060   9.051  0.00  0.00     0.235 C 
HETATM   34  O   UNK N   1      32.422   4.745   8.083  0.00  0.00    -0.272 OA
HETATM   35  H   UNK N   1      29.962   5.834   9.596  0.00  0.00     0.163 HD
BRANCH  33  36
HETATM   36  C   UNK N   1      32.359   5.063  10.387  0.00  0.00     0.225 C 
BRANCH  36  37
HETATM   37  N   UNK N   1      32.820   6.425  10.556  0.00  0.00    -0.351 N 
HETATM   38  C   UNK N   1      34.034   6.745  11.062  0.00  0.00     0.241 C 
HETATM   39  O   UNK N   1      34.859   5.870  11.298  0.00  0.00    -0.271 OA
HETATM   40  H   UNK N   1      32.219   7.157  10.288  0.00  0.00     0.163 HD
BRANCH  38  41
HETATM   41  C   UNK N   1      34.350   8.193  11.358  0.00  0.00     0.179 C 
HETATM   42  C   UNK N   1      34.940   8.379  12.747  0.00  0.00     0.037 C 
HETATM   43  C   UNK N   1      36.451   8.347  12.557  0.00  0.00     0.022 C 
HETATM   44  C   UNK N   1      36.682   8.724  11.102  0.00  0.00     0.127 C 
HETATM   45  N   UNK N   1      35.387   8.627  10.483  0.00  0.00    -0.337 N 
HETATM   46  C   UNK N   1      35.137   8.944   9.179  0.00  0.00     0.243 C 
HETATM   47  O   UNK N   1      33.991   8.908   8.753  0.00  0.00    -0.271 OA
BRANCH  46  48
HETATM   48  C   UNK N   1      36.233   9.318   8.234  0.00  0.00     0.176 C 
BRANCH  48  49
HETATM   49  C   UNK N   1      36.376   8.274   7.118  0.00  0.00     0.036 C 
BRANCH  49  50
HETATM   50  C   UNK N   1      37.750   7.610   7.110  0.00  0.00     0.023 C 
BRANCH  50  51
HETATM   51  C   UNK N   1      37.646   6.115   6.831  0.00  0.00     0.138 C 
BRANCH  51  52
HETATM   52  N   UNK N   1      37.106   5.408   7.970  0.00  0.00    -0.227 N 
HETATM   53  C   UNK N   1      35.874   4.706   7.888  0.00  0.00     0.665 C 
HETATM   54  N   UNK N   1      35.176   4.736   6.811  0.00  0.00    -0.235 N 
HETATM   55  N   UNK N   1      35.399   3.986   9.006  0.00  0.00    -0.235 N 
HETATM   56  H   UNK N   1      35.126   4.887   5.840  0.00  0.00     0.174 HD
ATOM     57  HN  UNK N   1      34.229   4.489   7.096  1.00  0.00     0.174 HD
HETATM   58  H   UNK N   1      34.623   4.201   9.572  0.00  0.00     0.174 HD
HETATM   59  H   UNK N   1      35.904   3.176   9.248  0.00  0.00     0.174 HD
HETATM   60  H   UNK N   1      37.602   5.414   8.821  0.00  0.00     0.177 HD
ENDBRANCH  51  52
ENDBRANCH  50  51
ENDBRANCH  49  50
ENDBRANCH  48  49
BRANCH  48  61
HETATM   61  N   UNK N   1      35.966  10.630   7.700  0.00  0.00    -0.346 N 
HETATM   62  C   UNK N   1      36.523  11.746   8.222  0.00  0.00     0.241 C 
HETATM   63  O   UNK N   1      36.362  12.810   7.642  0.00  0.00    -0.271 OA
HETATM   64  H   UNK N   1      35.359  10.716   6.930  0.00  0.00     0.163 HD
BRANCH  62  65
HETATM   65  C   UNK N   1      37.323  11.709   9.516  0.00  0.00     0.179 C 
HETATM   66  C   UNK N   1      38.801  11.554   9.191  0.00  0.00     0.037 C 
HETATM   67  C   UNK N   1      39.417  12.957   9.257  0.00  0.00     0.022 C 
HETATM   68  C   UNK N   1      38.312  13.893   9.714  0.00  0.00     0.127 C 
HETATM   69  N   UNK N   1      37.259  13.010  10.120  0.00  0.00    -0.337 N 
HETATM   70  C   UNK N   1      36.413  13.351  11.124  0.00  0.00     0.243 C 
HETATM   71  O   UNK N   1      36.410  14.500  11.544  0.00  0.00    -0.271 OA
BRANCH  70  72
HETATM   72  C   UNK N   1      35.492  12.336  11.753  0.00  0.00     0.171 C 
BRANCH  72  73
HETATM   73  N   UNK N   1      34.400  12.049  10.850  0.00  0.00    -0.418 N 
HETATM   74  H   UNK N   1      34.187  11.178  10.364  0.00  0.00     0.150 HD
HETATM   75  H   UNK N   1      33.756  12.821  10.676  0.00  0.00     0.150 HD
ENDBRANCH  72  73
BRANCH  72  76
HETATM   76  C   UNK N   1      34.957  12.824  13.115  0.00  0.00     0.072 C 
BRANCH  76  77
HETATM   77  C   UNK N   1      35.288  11.883  14.237  0.00  0.00    -0.056 A 
HETATM   78  C   UNK N   1      34.248  11.243  14.924  0.00  0.00     0.007 A 
HETATM   79  C   UNK N   1      34.536  10.269  15.884  0.00  0.00     0.001 A 
HETATM   80  C   UNK N   1      35.864   9.936  16.163  0.00  0.00     0.000 A 
HETATM   81  C   UNK N   1      36.905  10.582  15.491  0.00  0.00     0.001 A 
HETATM   82  C   UNK N   1      36.619  11.548  14.521  0.00  0.00     0.007 A 
ENDBRANCH  76  77
ENDBRANCH  72  76
ENDBRANCH  70  72
ENDBRANCH  62  65
ENDBRANCH  48  61
ENDBRANCH  46  48
ENDBRANCH  38  41
ENDBRANCH  36  37
ENDBRANCH  33  36
ENDBRANCH  31  32
ENDBRANCH  28  31
ENDBRANCH  26  27
ENDBRANCH  23  26
ENDBRANCH  21  22
ENDBRANCH  18  21
ENDBRANCH  16  17
BRANCH  16  83
HETATM   83  C   UNK N   1      33.175  16.078   3.714  0.00  0.00     0.137 C 
BRANCH  83  84
HETATM   84  C   UNK N   1      31.876  16.835   3.680  0.00  0.00     0.217 C 
HETATM   85  N   UNK N   1      31.498  17.564   4.746  0.00  0.00    -0.370 N 
HETATM   86  H   UNK N   1      32.041  18.328   5.047  0.00  0.00     0.159 HD
HETATM   87  H   UNK N   1      30.672  17.332   5.229  0.00  0.00     0.159 HD
HETATM   88  O   UNK N   1      31.160  16.799   2.692  0.00  0.00    -0.274 OA
ENDBRANCH  83  84
ENDBRANCH  16  83
ENDBRANCH  13  16
ENDBRANCH  11  12
ENDBRANCH   8  11
ENDBRANCH   6   7
BRANCH   6  89
HETATM   89  C   UNK N   1      32.418  18.523   8.137  0.00  0.00     0.144 C 
BRANCH  89  90
HETATM   90  C   UNK N   1      33.845  18.198   7.796  0.00  0.00     0.141 C 
HETATM   91  O   UNK N   1      34.164  17.913   6.655  0.00  0.00    -0.650 OA
BRANCH  90  92
HETATM   92  O   UNK N   1      34.781  18.226   8.760  0.00  0.00    -0.776 OA
HETATM   93  H   UNK N   1      34.575  17.925   9.624  0.00  0.00     0.167 HD
ENDBRANCH  90  92
ENDBRANCH  89  90
ENDBRANCH   6  89
ENDBRANCH   3   6
ENDBRANCH   1   2
BRANCH   1  94
HETATM   94  C   UNK N   1      28.858  18.829   6.920  0.00  0.00     0.073 C 
BRANCH  94  95
HETATM   95  C   UNK N   1      27.913  19.436   5.905  0.00  0.00    -0.056 A 
HETATM   96  C   UNK N   1      28.009  19.091   4.554  0.00  0.00     0.007 A 
HETATM   97  C   UNK N   1      27.118  19.646   3.624  0.00  0.00     0.001 A 
HETATM   98  C   UNK N   1      26.131  20.546   4.039  0.00  0.00     0.000 A 
HETATM   99  C   UNK N   1      26.037  20.905   5.383  0.00  0.00     0.001 A 
HETATM  100  C   UNK N   1      26.926  20.355   6.305  0.00  0.00     0.007 A 
ENDBRANCH  94  95
ENDBRANCH   1  94
BRANCH   1 101
HETATM  101  C   UNK N   1      28.423  16.286   6.625  0.00  0.00     0.241 C 
HETATM  102  O   UNK N   1      29.516  15.799   6.397  0.00  0.00    -0.271 OA
HETATM  103  N   UNK N   1      27.347  15.807   5.943  0.00  0.00    -0.346 N 
HETATM  104  H   UNK N   1      27.531  15.282   5.132  0.00  0.00     0.163 HD
BRANCH 103 105
HETATM  105  C   UNK N   1      25.957  15.998   6.300  0.00  0.00     0.177 C 
BRANCH 105 106
HETATM  106  C   UNK N   1      25.330  14.912   7.196  0.00  0.00     0.045 C 
BRANCH 106 107
HETATM  107  C   UNK N   1      25.641  13.487   6.725  0.00  0.00     0.112 C 
BRANCH 107 108
HETATM  108  C   UNK N   1      24.602  12.497   7.177  0.00  0.00     0.139 C 
HETATM  109  O   UNK N   1      24.554  12.137   8.341  0.00  0.00    -0.650 OA
BRANCH 108 110
HETATM  110  O   UNK N   1      23.727  11.986   6.292  0.00  0.00    -0.776 OA
HETATM  111  H   UNK N   1      22.949  11.463   6.301  0.00  0.00     0.167 HD
ENDBRANCH 108 110
ENDBRANCH 107 108
ENDBRANCH 106 107
ENDBRANCH 105 106
BRANCH 105 112
HETATM  112  C   UNK N   1      25.238  16.298   5.024  0.00  0.00     0.241 C 
HETATM  113  O   UNK N   1      25.870  16.240   3.976  0.00  0.00    -0.271 OA
HETATM  114  N   UNK N   1      23.938  16.697   5.031  0.00  0.00    -0.346 N 
HETATM  115  H   UNK N   1      23.456  16.693   5.890  0.00  0.00     0.163 HD
BRANCH 114 116
HETATM  116  C   UNK N   1      23.223  17.125   3.850  0.00  0.00     0.177 C 
BRANCH 116 117
HETATM  117  C   UNK N   1      22.123  18.105   4.254  0.00  0.00     0.045 C 
BRANCH 117 118
HETATM  118  C   UNK N   1      21.479  18.835   3.071  0.00  0.00     0.112 C 
BRANCH 118 119
HETATM  119  C   UNK N   1      21.633  20.305   2.795  0.00  0.00     0.139 C 
HETATM  120  O   UNK N   1      20.703  20.923   2.308  0.00  0.00    -0.650 OA
BRANCH 119 121
HETATM  121  O   UNK N   1      22.824  20.912   2.935  0.00  0.00    -0.776 OA
HETATM  122  H   UNK N   1      23.109  21.610   2.378  0.00  0.00     0.167 HD
ENDBRANCH 119 121
ENDBRANCH 118 119
ENDBRANCH 117 118
ENDBRANCH 116 117
BRANCH 116 123
HETATM  123  C   UNK N   1      22.613  15.933   3.152  0.00  0.00     0.241 C 
HETATM  124  O   UNK N   1      23.226  15.384   2.251  0.00  0.00    -0.271 OA
HETATM  125  N   UNK N   1      21.404  15.455   3.533  0.00  0.00    -0.346 N 
HETATM  126  H   UNK N   1      20.921  15.924   4.252  0.00  0.00     0.163 HD
BRANCH 125 127
HETATM  127  C   UNK N   1      20.781  14.277   2.932  0.00  0.00     0.180 C 
BRANCH 127 128
HETATM  128  C   UNK N   1      20.787  14.303   1.380  0.00  0.00     0.013 C 
HETATM  129  C   UNK N   1      19.499  14.804   0.743  0.00  0.00     0.012 C 
BRANCH 128 130
HETATM  130  C   UNK N   1      21.105  12.938   0.792  0.00  0.00     0.002 C 
HETATM  131  C   UNK N   1      22.469  12.944   0.130  0.00  0.00     0.005 C 
ENDBRANCH 128 130
ENDBRANCH 127 128
BRANCH 127 132
HETATM  132  C   UNK N   1      21.107  12.991   3.724  0.00  0.00     0.243 C 
HETATM  133  O   UNK N   1      22.211  12.926   4.228  0.00  0.00    -0.271 OA
HETATM  134  N   UNK N   1      20.213  11.956   3.925  0.00  0.00    -0.337 N 
HETATM  135  C   UNK N   1      18.869  11.942   3.447  0.00  0.00     0.127 C 
HETATM  136  C   UNK N   1      20.559  10.787   4.720  0.00  0.00     0.179 C 
HETATM  137  C   UNK N   1      18.309  10.588   3.843  0.00  0.00     0.022 C 
HETATM  138  C   UNK N   1      19.252  10.040   4.906  0.00  0.00     0.037 C 
BRANCH 136 139
HETATM  139  C   UNK N   1      21.560   9.928   4.009  0.00  0.00     0.241 C 
HETATM  140  O   UNK N   1      21.205   9.301   3.020  0.00  0.00    -0.271 OA
HETATM  141  N   UNK N   1      22.818   9.780   4.516  0.00  0.00    -0.346 N 
HETATM  142  H   UNK N   1      23.100  10.398   5.229  0.00  0.00     0.163 HD
BRANCH 141 143
HETATM  143  C   UNK N   1      23.773   8.771   4.078  0.00  0.00     0.177 C 
BRANCH 143 144
HETATM  144  C   UNK N   1      23.502   7.389   4.687  0.00  0.00     0.045 C 
BRANCH 144 145
HETATM  145  C   UNK N   1      22.776   7.422   6.025  0.00  0.00     0.112 C 
BRANCH 145 146
HETATM  146  C   UNK N   1      23.658   6.872   7.092  0.00  0.00     0.139 C 
HETATM  147  O   UNK N   1      23.223   6.048   7.879  0.00  0.00    -0.650 OA
BRANCH 146 148
HETATM  148  O   UNK N   1      24.932   7.294   7.196  0.00  0.00    -0.776 OA
HETATM  149  H   UNK N   1      25.250   8.007   6.679  0.00  0.00     0.167 HD
ENDBRANCH 146 148
ENDBRANCH 145 146
ENDBRANCH 144 145
ENDBRANCH 143 144
BRANCH 143 150
HETATM  150  C   UNK N   1      25.183   9.302   4.242  0.00  0.00     0.241 C 
HETATM  151  O   UNK N   1      25.764   9.111   5.299  0.00  0.00    -0.271 OA
HETATM  152  N   UNK N   1      25.830  10.017   3.297  0.00  0.00    -0.346 N 
HETATM  153  H   UNK N   1      26.733  10.319   3.549  0.00  0.00     0.163 HD
BRANCH 152 154
HETATM  154  C   UNK N   1      25.404  10.402   1.985  0.00  0.00     0.177 C 
BRANCH 154 155
HETATM  155  C   UNK N   1      25.349  11.955   1.921  0.00  0.00     0.045 C 
BRANCH 155 156
HETATM  156  C   UNK N   1      25.781  12.753   3.184  0.00  0.00     0.112 C 
BRANCH 156 157
HETATM  157  C   UNK N   1      27.257  12.980   3.394  0.00  0.00     0.139 C 
HETATM  158  O   UNK N   1      28.008  12.023   3.495  0.00  0.00    -0.650 OA
BRANCH 157 159
HETATM  159  O   UNK N   1      27.753  14.222   3.545  0.00  0.00    -0.776 OA
HETATM  160  H   UNK N   1      28.406  14.891   3.612  0.00  0.00     0.167 HD
ENDBRANCH 157 159
ENDBRANCH 156 157
ENDBRANCH 155 156
ENDBRANCH 154 155
BRANCH 154 161
HETATM  161  C   UNK N   1      26.452   9.906   1.037  0.00  0.00     0.241 C 
HETATM  162  O   UNK N   1      26.118   9.273   0.049  0.00  0.00    -0.271 OA
HETATM  163  N   UNK N   1      27.740  10.320   1.221  0.00  0.00    -0.346 N 
HETATM  164  H   UNK N   1      27.945  10.744   2.084  0.00  0.00     0.163 HD
BRANCH 163 165
HETATM  165  C   UNK N   1      28.832  10.202   0.285  0.00  0.00     0.180 C 
BRANCH 165 166
HETATM  166  C   UNK N   1      29.408  11.554  -0.144  0.00  0.00     0.073 C 
BRANCH 166 167
HETATM  167  C   UNK N   1      30.361  11.481  -1.277  0.00  0.00    -0.056 A 
HETATM  168  C   UNK N   1      29.957  10.909  -2.486  0.00  0.00     0.010 A 
HETATM  169  C   UNK N   1      30.852  10.818  -3.547  0.00  0.00     0.037 A 
HETATM  170  C   UNK N   1      32.152  11.302  -3.409  0.00  0.00     0.065 A 
HETATM  171  C   UNK N   1      32.556  11.894  -2.208  0.00  0.00     0.037 A 
HETATM  172  C   UNK N   1      31.658  11.991  -1.142  0.00  0.00     0.010 A 
BRANCH 170 173
HETATM  173  O   UNK N   1      33.014  11.201  -4.431  0.00  0.00    -0.361 OA
HETATM  174  H   UNK N   1      33.014  11.169  -5.368  0.00  0.00     0.217 HD
ENDBRANCH 170 173
ENDBRANCH 166 167
ENDBRANCH 165 166
BRANCH 165 175
HETATM  175  C   UNK N   1      29.764   9.073   0.664  0.00  0.00     0.241 C 
HETATM  176  O   UNK N   1      30.388   9.154   1.709  0.00  0.00    -0.271 OA
HETATM  177  N   UNK N   1      29.973   8.044  -0.205  0.00  0.00    -0.345 N 
HETATM  178  H   UNK N   1      29.397   8.046  -1.003  0.00  0.00     0.163 HD
BRANCH 177 179
HETATM  179  C   UNK N   1      30.927   6.943  -0.130  0.00  0.00     0.182 C 
BRANCH 179 180
HETATM  180  C   UNK N   1      32.019   7.077  -1.197  0.00  0.00     0.040 C 
BRANCH 180 181
HETATM  181  C   UNK N   1      32.942   8.275  -1.022  0.00  0.00    -0.020 C 
HETATM  182  C   UNK N   1      33.873   8.377  -2.213  0.00  0.00     0.009 C 
HETATM  183  C   UNK N   1      33.794   8.058   0.209  0.00  0.00     0.009 C 
ENDBRANCH 180 181
ENDBRANCH 179 180
BRANCH 179 184
HETATM  184  C   UNK N   1      30.382   5.550   0.060  0.00  0.00     0.163 C 
HETATM  185  O   UNK N   1      29.914   4.923  -0.877  0.00  0.00    -0.648 OA
BRANCH 184 186
HETATM  186  O   UNK N   1      30.458   4.973   1.272  0.00  0.00    -0.775 OA
HETATM  187  H   UNK N   1      30.444   4.056   1.465  0.00  0.00     0.167 HD
ENDBRANCH 184 186
ENDBRANCH 179 184
ENDBRANCH 177 179
ENDBRANCH 165 175
ENDBRANCH 163 165
ENDBRANCH 154 161
ENDBRANCH 152 154
ENDBRANCH 143 150
ENDBRANCH 141 143
ENDBRANCH 136 139
ENDBRANCH 127 132
ENDBRANCH 125 127
ENDBRANCH 116 123
ENDBRANCH 114 116
ENDBRANCH 105 112
ENDBRANCH 103 105
ENDBRANCH   1 101
TORSDOF 74
ENDMDL
MODEL 5
REMARK VINA RESULT:      -6.5      5.328     13.512
REMARK WARNING: 32 MAX_TORS EXCEEDED!!!
REMARK  74 active torsions:
REMARK  status: ('A' for Active; 'I' for Inactive)
REMARK       I    between atoms: C_3  and  N_4 
REMARK       I    between atoms: C_3  and  N_5 
REMARK    1  A    between atoms: N_5  and  C_6 
REMARK    2  A    between atoms: C_6  and  C_7 
REMARK    3  A    between atoms: C_7  and  C_8 
REMARK    4  A    between atoms: C_8  and  C_9 
REMARK    5  A    between atoms: C_9  and  N_10 
REMARK    6  A    between atoms: C_9  and  C_29 
REMARK       I    between atoms: N_10  and  C_11 
REMARK    7  A    between atoms: C_13  and  C_11 
REMARK       I    between atoms: N_17  and  C_18 
REMARK    8  A    between atoms: C_18  and  C_20 
REMARK    9  A    between atoms: C_20  and  N_21 
REMARK   10  A    between atoms: C_20  and  C_22 
REMARK   11  A    between atoms: C_22  and  C_23 
REMARK       I    between atoms: C_29  and  N_31 
REMARK   12  A    between atoms: C_35  and  C_36 
REMARK       I    between atoms: C_36  and  N_38 
REMARK   13  A    between atoms: N_38  and  C_39 
REMARK   14  A    between atoms: C_39  and  C_40 
REMARK       I    between atoms: C_40  and  N_42 
REMARK   15  A    between atoms: N_42  and  C_43 
REMARK   16  A    between atoms: C_43  and  C_44 
REMARK       I    between atoms: C_44  and  N_46 
REMARK   17  A    between atoms: N_46  and  C_47 
REMARK   18  A    between atoms: C_47  and  C_48 
REMARK       I    between atoms: C_48  and  N_50 
REMARK   19  A    between atoms: N_50  and  C_51 
REMARK   20  A    between atoms: C_51  and  C_52 
REMARK       I    between atoms: C_52  and  N_54 
REMARK   21  A    between atoms: C_55  and  N_54 
REMARK   22  A    between atoms: C_55  and  C_56 
REMARK   23  A    between atoms: C_55  and  C_60 
REMARK   24  A    between atoms: C_56  and  C_57 
REMARK       I    between atoms: C_57  and  N_58 
REMARK       I    between atoms: C_60  and  N_62 
REMARK   25  A    between atoms: N_62  and  C_63 
REMARK   26  A    between atoms: C_63  and  C_64 
REMARK       I    between atoms: C_64  and  N_66 
REMARK   27  A    between atoms: C_67  and  N_66 
REMARK   28  A    between atoms: C_67  and  C_68 
REMARK   29  A    between atoms: C_67  and  C_72 
REMARK   30  A    between atoms: C_68  and  C_69 
REMARK   31  A    between atoms: C_69  and  O_70 
REMARK       I    between atoms: C_72  and  N_74 
REMARK   32  A    between atoms: C_75  and  N_74 
REMARK   33  A    between atoms: C_75  and  C_76 
REMARK   34  A    between atoms: C_75  and  C_83 
REMARK   35  A    between atoms: C_76  and  C_77 
REMARK       I    between atoms: C_83  and  N_85 
REMARK   36  A    between atoms: C_86  and  N_85 
REMARK   37  A    between atoms: C_86  and  C_87 
REMARK   38  A    between atoms: C_86  and  C_92 
REMARK   39  A    between atoms: C_87  and  C_88 
REMARK   40  A    between atoms: C_88  and  C_89 
REMARK   41  A    between atoms: C_89  and  O_90 
REMARK       I    between atoms: C_92  and  N_94 
REMARK   42  A    between atoms: C_95  and  N_94 
REMARK   43  A    between atoms: C_95  and  C_96 
REMARK   44  A    between atoms: C_95  and  C_101 
REMARK   45  A    between atoms: C_96  and  C_97 
REMARK   46  A    between atoms: C_97  and  C_98 
REMARK   47  A    between atoms: C_98  and  O_99 
REMARK       I    between atoms: C_101  and  N_103 
REMARK   48  A    between atoms: C_104  and  N_103 
REMARK   49  A    between atoms: C_104  and  C_105 
REMARK   50  A    between atoms: C_104  and  C_109 
REMARK   51  A    between atoms: C_105  and  C_107 
REMARK       I    between atoms: C_109  and  N_111 
REMARK   52  A    between atoms: C_115  and  C_116 
REMARK       I    between atoms: C_116  and  N_118 
REMARK   53  A    between atoms: C_119  and  N_118 
REMARK   54  A    between atoms: C_119  and  C_120 
REMARK   55  A    between atoms: C_119  and  C_125 
REMARK   56  A    between atoms: C_120  and  C_121 
REMARK   57  A    between atoms: C_121  and  C_122 
REMARK   58  A    between atoms: C_122  and  O_123 
REMARK       I    between atoms: C_125  and  N_127 
REMARK   59  A    between atoms: C_128  and  N_127 
REMARK   60  A    between atoms: C_128  and  C_129 
REMARK   61  A    between atoms: C_128  and  C_134 
REMARK   62  A    between atoms: C_129  and  C_130 
REMARK   63  A    between atoms: C_130  and  C_131 
REMARK   64  A    between atoms: C_131  and  O_132 
REMARK       I    between atoms: C_134  and  N_136 
REMARK   65  A    between atoms: C_137  and  N_136 
REMARK   66  A    between atoms: C_137  and  C_138 
REMARK   67  A    between atoms: C_137  and  C_146 
REMARK   68  A    between atoms: C_138  and  C_139 
REMARK   69  A    between atoms: C_142  and  O_143 
REMARK       I    between atoms: C_146  and  N_148 
REMARK   70  A    between atoms: C_149  and  N_148 
REMARK   71  A    between atoms: C_149  and  C_150 
REMARK   72  A    between atoms: C_149  and  C_154 
REMARK   73  A    between atoms: C_150  and  C_151 
REMARK   74  A    between atoms: C_154  and  O_155 
ROOT
HETATM    1  C   UNK N   1      36.077  12.567   7.075  0.00  0.00     0.180 C 
ENDROOT
BRANCH   1   2
HETATM    2  N   UNK N   1      35.315  13.374   7.984  0.00  0.00    -0.346 N 
HETATM    3  C   UNK N   1      35.841  14.465   8.554  0.00  0.00     0.241 C 
HETATM    4  O   UNK N   1      35.629  15.559   8.061  0.00  0.00    -0.271 OA
HETATM    5  H   UNK N   1      34.387  13.119   8.192  0.00  0.00     0.163 HD
BRANCH   3   6
HETATM    6  C   UNK N   1      36.615  14.342   9.822  0.00  0.00     0.186 C 
BRANCH   6   7
HETATM    7  N   UNK N   1      36.336  15.436  10.734  0.00  0.00    -0.346 N 
HETATM    8  C   UNK N   1      35.908  15.324  12.020  0.00  0.00     0.236 C 
HETATM    9  O   UNK N   1      35.709  16.345  12.657  0.00  0.00    -0.272 OA
HETATM   10  H   UNK N   1      36.470  16.348  10.388  0.00  0.00     0.163 HD
BRANCH   8  11
HETATM   11  C   UNK N   1      35.664  14.003  12.717  0.00  0.00     0.225 C 
BRANCH  11  12
HETATM   12  N   UNK N   1      36.851  13.315  13.186  0.00  0.00    -0.351 N 
HETATM   13  C   UNK N   1      36.939  12.576  14.325  0.00  0.00     0.241 C 
HETATM   14  O   UNK N   1      37.970  11.971  14.559  0.00  0.00    -0.271 OA
HETATM   15  H   UNK N   1      37.662  13.388  12.632  0.00  0.00     0.163 HD
BRANCH  13  16
HETATM   16  C   UNK N   1      35.770  12.380  15.241  0.00  0.00     0.185 C 
BRANCH  16  17
HETATM   17  N   UNK N   1      34.751  11.795  14.432  0.00  0.00    -0.346 N 
HETATM   18  C   UNK N   1      34.363  10.518  14.493  0.00  0.00     0.236 C 
HETATM   19  O   UNK N   1      34.635   9.823  15.462  0.00  0.00    -0.272 OA
HETATM   20  H   UNK N   1      34.299  12.376  13.779  0.00  0.00     0.163 HD
BRANCH  18  21
HETATM   21  C   UNK N   1      33.943   9.898  13.202  0.00  0.00     0.225 C 
BRANCH  21  22
HETATM   22  N   UNK N   1      33.850  10.919  12.153  0.00  0.00    -0.351 N 
HETATM   23  C   UNK N   1      34.404  10.957  10.890  0.00  0.00     0.235 C 
HETATM   24  O   UNK N   1      34.230  11.959  10.221  0.00  0.00    -0.272 OA
HETATM   25  H   UNK N   1      33.304  11.704  12.388  0.00  0.00     0.163 HD
BRANCH  23  26
HETATM   26  C   UNK N   1      35.234   9.862  10.237  0.00  0.00     0.225 C 
BRANCH  26  27
HETATM   27  N   UNK N   1      36.649  10.072  10.258  0.00  0.00    -0.351 N 
HETATM   28  C   UNK N   1      37.486   9.311  10.991  0.00  0.00     0.235 C 
HETATM   29  O   UNK N   1      38.661   9.631  11.049  0.00  0.00    -0.272 OA
HETATM   30  H   UNK N   1      37.027  10.801   9.715  0.00  0.00     0.163 HD
BRANCH  28  31
HETATM   31  C   UNK N   1      36.987   8.151  11.823  0.00  0.00     0.225 C 
BRANCH  31  32
HETATM   32  N   UNK N   1      37.219   8.517  13.185  0.00  0.00    -0.351 N 
HETATM   33  C   UNK N   1      36.849   7.706  14.187  0.00  0.00     0.235 C 
HETATM   34  O   UNK N   1      35.984   6.859  14.019  0.00  0.00    -0.272 OA
HETATM   35  H   UNK N   1      37.656   9.375  13.390  0.00  0.00     0.163 HD
BRANCH  33  36
HETATM   36  C   UNK N   1      37.848   7.510  15.248  0.00  0.00     0.225 C 
BRANCH  36  37
HETATM   37  N   UNK N   1      37.262   8.161  16.402  0.00  0.00    -0.351 N 
HETATM   38  C   UNK N   1      36.866   7.496  17.512  0.00  0.00     0.241 C 
HETATM   39  O   UNK N   1      37.098   6.300  17.637  0.00  0.00    -0.271 OA
HETATM   40  H   UNK N   1      37.145   9.139  16.376  0.00  0.00     0.163 HD
BRANCH  38  41
HETATM   41  C   UNK N   1      36.109   8.244  18.586  0.00  0.00     0.179 C 
HETATM   42  C   UNK N   1      34.606   8.039  18.476  0.00  0.00     0.037 C 
HETATM   43  C   UNK N   1      34.282   6.877  19.406  0.00  0.00     0.022 C 
HETATM   44  C   UNK N   1      35.421   6.836  20.412  0.00  0.00     0.127 C 
HETATM   45  N   UNK N   1      36.439   7.686  19.855  0.00  0.00    -0.337 N 
HETATM   46  C   UNK N   1      37.617   7.977  20.479  0.00  0.00     0.243 C 
HETATM   47  O   UNK N   1      38.395   8.773  19.971  0.00  0.00    -0.271 OA
BRANCH  46  48
HETATM   48  C   UNK N   1      38.008   7.331  21.769  0.00  0.00     0.176 C 
BRANCH  48  49
HETATM   49  C   UNK N   1      39.180   6.362  21.565  0.00  0.00     0.036 C 
BRANCH  49  50
HETATM   50  C   UNK N   1      38.888   5.303  20.506  0.00  0.00     0.023 C 
BRANCH  50  51
HETATM   51  C   UNK N   1      40.042   5.167  19.520  0.00  0.00     0.138 C 
BRANCH  51  52
HETATM   52  N   UNK N   1      40.005   6.214  18.525  0.00  0.00    -0.227 N 
HETATM   53  C   UNK N   1      41.175   6.603  17.819  0.00  0.00     0.665 C 
HETATM   54  N   UNK N   1      42.310   6.073  18.095  0.00  0.00    -0.235 N 
HETATM   55  N   UNK N   1      41.094   7.597  16.819  0.00  0.00    -0.235 N 
HETATM   56  H   UNK N   1      42.825   5.330  18.485  0.00  0.00     0.174 HD
ATOM     57  HN  UNK N   1      43.007   6.731  17.745  1.00  0.00     0.174 HD
HETATM   58  H   UNK N   1      41.459   8.511  16.851  0.00  0.00     0.174 HD
HETATM   59  H   UNK N   1      40.617   7.347  15.994  0.00  0.00     0.174 HD
HETATM   60  H   UNK N   1      39.153   6.669  18.333  0.00  0.00     0.177 HD
ENDBRANCH  51  52
ENDBRANCH  50  51
ENDBRANCH  49  50
ENDBRANCH  48  49
BRANCH  48  61
HETATM   61  N   UNK N   1      38.330   8.356  22.730  0.00  0.00    -0.346 N 
HETATM   62  C   UNK N   1      37.552   8.601  23.809  0.00  0.00     0.241 C 
HETATM   63  O   UNK N   1      37.949   9.390  24.654  0.00  0.00    -0.271 OA
HETATM   64  H   UNK N   1      39.142   8.896  22.596  0.00  0.00     0.163 HD
BRANCH  62  65
HETATM   65  C   UNK N   1      36.195   7.934  23.983  0.00  0.00     0.179 C 
HETATM   66  C   UNK N   1      36.314   6.809  25.000  0.00  0.00     0.037 C 
HETATM   67  C   UNK N   1      35.821   7.371  26.339  0.00  0.00     0.022 C 
HETATM   68  C   UNK N   1      35.333   8.783  26.062  0.00  0.00     0.127 C 
HETATM   69  N   UNK N   1      35.318   8.866  24.632  0.00  0.00    -0.337 N 
HETATM   70  C   UNK N   1      34.406   9.639  23.990  0.00  0.00     0.243 C 
HETATM   71  O   UNK N   1      33.731  10.432  24.631  0.00  0.00    -0.271 OA
BRANCH  70  72
HETATM   72  C   UNK N   1      34.188   9.522  22.503  0.00  0.00     0.171 C 
BRANCH  72  73
HETATM   73  N   UNK N   1      35.123  10.378  21.808  0.00  0.00    -0.418 N 
HETATM   74  H   UNK N   1      35.920  10.891  22.186  0.00  0.00     0.150 HD
HETATM   75  H   UNK N   1      34.966  10.483  20.805  0.00  0.00     0.150 HD
ENDBRANCH  72  73
BRANCH  72  76
HETATM   76  C   UNK N   1      32.737   9.876  22.113  0.00  0.00     0.072 C 
BRANCH  76  77
HETATM   77  C   UNK N   1      31.965   8.687  21.620  0.00  0.00    -0.056 A 
HETATM   78  C   UNK N   1      31.290   8.768  20.395  0.00  0.00     0.007 A 
HETATM   79  C   UNK N   1      30.673   7.636  19.857  0.00  0.00     0.001 A 
HETATM   80  C   UNK N   1      30.723   6.420  20.545  0.00  0.00     0.000 A 
HETATM   81  C   UNK N   1      31.383   6.338  21.775  0.00  0.00     0.001 A 
HETATM   82  C   UNK N   1      32.012   7.467  22.309  0.00  0.00     0.007 A 
ENDBRANCH  76  77
ENDBRANCH  72  76
ENDBRANCH  70  72
ENDBRANCH  62  65
ENDBRANCH  48  61
ENDBRANCH  46  48
ENDBRANCH  38  41
ENDBRANCH  36  37
ENDBRANCH  33  36
ENDBRANCH  31  32
ENDBRANCH  28  31
ENDBRANCH  26  27
ENDBRANCH  23  26
ENDBRANCH  21  22
ENDBRANCH  18  21
ENDBRANCH  16  17
BRANCH  16  83
HETATM   83  C   UNK N   1      35.342  13.603  16.042  0.00  0.00     0.137 C 
BRANCH  83  84
HETATM   84  C   UNK N   1      35.224  13.249  17.500  0.00  0.00     0.217 C 
HETATM   85  N   UNK N   1      35.347  14.210  18.433  0.00  0.00    -0.370 N 
HETATM   86  H   UNK N   1      34.707  14.957  18.469  0.00  0.00     0.159 HD
HETATM   87  H   UNK N   1      36.082  14.166  19.087  0.00  0.00     0.159 HD
HETATM   88  O   UNK N   1      35.014  12.097  17.846  0.00  0.00    -0.274 OA
ENDBRANCH  83  84
ENDBRANCH  16  83
ENDBRANCH  13  16
ENDBRANCH  11  12
ENDBRANCH   8  11
ENDBRANCH   6   7
BRANCH   6  89
HETATM   89  C   UNK N   1      38.112  14.250   9.486  0.00  0.00     0.144 C 
BRANCH  89  90
HETATM   90  C   UNK N   1      38.799  12.987   9.925  0.00  0.00     0.141 C 
HETATM   91  O   UNK N   1      39.478  12.342   9.144  0.00  0.00    -0.650 OA
BRANCH  90  92
HETATM   92  O   UNK N   1      38.668  12.567  11.194  0.00  0.00    -0.776 OA
HETATM   93  H   UNK N   1      39.405  12.583  11.773  0.00  0.00     0.167 HD
ENDBRANCH  90  92
ENDBRANCH  89  90
ENDBRANCH   6  89
ENDBRANCH   3   6
ENDBRANCH   1   2
BRANCH   1  94
HETATM   94  C   UNK N   1      35.328  11.258   6.758  0.00  0.00     0.073 C 
BRANCH  94  95
HETATM   95  C   UNK N   1      36.171  10.234   6.029  0.00  0.00    -0.056 A 
HETATM   96  C   UNK N   1      37.377   9.789   6.578  0.00  0.00     0.007 A 
HETATM   97  C   UNK N   1      38.143   8.829   5.902  0.00  0.00     0.001 A 
HETATM   98  C   UNK N   1      37.710   8.311   4.677  0.00  0.00     0.000 A 
HETATM   99  C   UNK N   1      36.515   8.760   4.115  0.00  0.00     0.001 A 
HETATM  100  C   UNK N   1      35.757   9.717   4.787  0.00  0.00     0.007 A 
ENDBRANCH  94  95
ENDBRANCH   1  94
BRANCH   1 101
HETATM  101  C   UNK N   1      36.413  13.451   5.889  0.00  0.00     0.241 C 
HETATM  102  O   UNK N   1      37.587  13.683   5.657  0.00  0.00    -0.271 OA
HETATM  103  N   UNK N   1      35.468  14.114   5.169  0.00  0.00    -0.346 N 
HETATM  104  H   UNK N   1      35.760  14.919   4.685  0.00  0.00     0.163 HD
BRANCH 103 105
HETATM  105  C   UNK N   1      34.073  13.745   5.048  0.00  0.00     0.177 C 
BRANCH 105 106
HETATM  106  C   UNK N   1      33.718  12.805   3.879  0.00  0.00     0.045 C 
BRANCH 106 107
HETATM  107  C   UNK N   1      34.789  12.772   2.784  0.00  0.00     0.112 C 
BRANCH 107 108
HETATM  108  C   UNK N   1      34.359  13.506   1.543  0.00  0.00     0.139 C 
HETATM  109  O   UNK N   1      34.889  14.559   1.230  0.00  0.00    -0.650 OA
BRANCH 108 110
HETATM  110  O   UNK N   1      33.369  13.014   0.777  0.00  0.00    -0.776 OA
HETATM  111  H   UNK N   1      33.258  12.362   0.113  0.00  0.00     0.167 HD
ENDBRANCH 108 110
ENDBRANCH 107 108
ENDBRANCH 106 107
ENDBRANCH 105 106
BRANCH 105 112
HETATM  112  C   UNK N   1      33.297  15.020   5.131  0.00  0.00     0.241 C 
HETATM  113  O   UNK N   1      33.890  16.072   4.927  0.00  0.00    -0.271 OA
HETATM  114  N   UNK N   1      31.986  15.019   5.494  0.00  0.00    -0.346 N 
HETATM  115  H   UNK N   1      31.538  14.150   5.611  0.00  0.00     0.163 HD
BRANCH 114 116
HETATM  116  C   UNK N   1      31.214  16.220   5.717  0.00  0.00     0.177 C 
BRANCH 116 117
HETATM  117  C   UNK N   1      30.573  16.157   7.102  0.00  0.00     0.045 C 
BRANCH 117 118
HETATM  118  C   UNK N   1      31.566  16.342   8.254  0.00  0.00     0.112 C 
BRANCH 118 119
HETATM  119  C   UNK N   1      32.338  15.223   8.896  0.00  0.00     0.139 C 
HETATM  120  O   UNK N   1      32.216  14.089   8.468  0.00  0.00    -0.650 OA
BRANCH 119 121
HETATM  121  O   UNK N   1      33.041  15.428  10.024  0.00  0.00    -0.776 OA
HETATM  122  H   UNK N   1      33.836  15.922  10.045  0.00  0.00     0.167 HD
ENDBRANCH 119 121
ENDBRANCH 118 119
ENDBRANCH 117 118
ENDBRANCH 116 117
BRANCH 116 123
HETATM  123  C   UNK N   1      30.140  16.350   4.663  0.00  0.00     0.241 C 
HETATM  124  O   UNK N   1      30.428  16.787   3.560  0.00  0.00    -0.271 OA
HETATM  125  N   UNK N   1      28.868  15.965   4.923  0.00  0.00    -0.346 N 
HETATM  126  H   UNK N   1      28.656  15.630   5.826  0.00  0.00     0.163 HD
BRANCH 125 127
HETATM  127  C   UNK N   1      27.794  16.020   3.933  0.00  0.00     0.180 C 
BRANCH 127 128
HETATM  128  C   UNK N   1      27.576  14.676   3.187  0.00  0.00     0.013 C 
HETATM  129  C   UNK N   1      27.923  13.433   3.994  0.00  0.00     0.012 C 
BRANCH 128 130
HETATM  130  C   UNK N   1      28.348  14.621   1.880  0.00  0.00     0.002 C 
HETATM  131  C   UNK N   1      29.295  13.438   1.865  0.00  0.00     0.005 C 
ENDBRANCH 128 130
ENDBRANCH 127 128
BRANCH 127 132
HETATM  132  C   UNK N   1      26.607  16.878   4.426  0.00  0.00     0.243 C 
HETATM  133  O   UNK N   1      25.611  16.278   4.782  0.00  0.00    -0.271 OA
HETATM  134  N   UNK N   1      26.634  18.256   4.524  0.00  0.00    -0.337 N 
HETATM  135  C   UNK N   1      27.762  19.069   4.203  0.00  0.00     0.127 C 
HETATM  136  C   UNK N   1      25.502  19.011   5.039  0.00  0.00     0.179 C 
HETATM  137  C   UNK N   1      27.299  20.502   4.395  0.00  0.00     0.022 C 
HETATM  138  C   UNK N   1      26.024  20.423   5.223  0.00  0.00     0.037 C 
BRANCH 136 139
HETATM  139  C   UNK N   1      24.357  18.995   4.071  0.00  0.00     0.241 C 
HETATM  140  O   UNK N   1      24.359  19.789   3.141  0.00  0.00    -0.271 OA
HETATM  141  N   UNK N   1      23.291  18.170   4.285  0.00  0.00    -0.346 N 
HETATM  142  H   UNK N   1      23.389  17.462   4.962  0.00  0.00     0.163 HD
BRANCH 141 143
HETATM  143  C   UNK N   1      22.019  18.265   3.582  0.00  0.00     0.177 C 
BRANCH 143 144
HETATM  144  C   UNK N   1      21.107  19.364   4.145  0.00  0.00     0.045 C 
BRANCH 144 145
HETATM  145  C   UNK N   1      20.259  20.075   3.100  0.00  0.00     0.112 C 
BRANCH 145 146
HETATM  146  C   UNK N   1      21.126  20.939   2.249  0.00  0.00     0.139 C 
HETATM  147  O   UNK N   1      20.962  20.966   1.041  0.00  0.00    -0.650 OA
BRANCH 146 148
HETATM  148  O   UNK N   1      22.097  21.680   2.813  0.00  0.00    -0.776 OA
HETATM  149  H   UNK N   1      22.524  22.365   2.337  0.00  0.00     0.167 HD
ENDBRANCH 146 148
ENDBRANCH 145 146
ENDBRANCH 144 145
ENDBRANCH 143 144
BRANCH 143 150
HETATM  150  C   UNK N   1      21.400  16.886   3.467  0.00  0.00     0.241 C 
HETATM  151  O   UNK N   1      21.021  16.501   2.372  0.00  0.00    -0.271 OA
HETATM  152  N   UNK N   1      21.203  16.061   4.518  0.00  0.00    -0.346 N 
HETATM  153  H   UNK N   1      20.769  15.205   4.300  0.00  0.00     0.163 HD
BRANCH 152 154
HETATM  154  C   UNK N   1      21.530  16.243   5.900  0.00  0.00     0.177 C 
BRANCH 154 155
HETATM  155  C   UNK N   1      20.218  16.157   6.732  0.00  0.00     0.045 C 
BRANCH 155 156
HETATM  156  C   UNK N   1      20.294  16.488   8.251  0.00  0.00     0.112 C 
BRANCH 156 157
HETATM  157  C   UNK N   1      19.740  17.815   8.703  0.00  0.00     0.139 C 
HETATM  158  O   UNK N   1      18.713  17.848   9.363  0.00  0.00    -0.650 OA
BRANCH 157 159
HETATM  159  O   UNK N   1      20.318  18.972   8.331  0.00  0.00    -0.776 OA
HETATM  160  H   UNK N   1      20.799  19.769   8.430  0.00  0.00     0.167 HD
ENDBRANCH 157 159
ENDBRANCH 156 157
ENDBRANCH 155 156
ENDBRANCH 154 155
BRANCH 154 161
HETATM  161  C   UNK N   1      22.427  15.105   6.276  0.00  0.00     0.241 C 
HETATM  162  O   UNK N   1      23.334  15.291   7.070  0.00  0.00    -0.271 OA
HETATM  163  N   UNK N   1      22.099  13.852   5.845  0.00  0.00    -0.346 N 
HETATM  164  H   UNK N   1      21.418  13.796   5.137  0.00  0.00     0.163 HD
BRANCH 163 165
HETATM  165  C   UNK N   1      22.645  12.601   6.313  0.00  0.00     0.180 C 
BRANCH 165 166
HETATM  166  C   UNK N   1      21.843  11.985   7.463  0.00  0.00     0.073 C 
BRANCH 166 167
HETATM  167  C   UNK N   1      22.497  12.086   8.789  0.00  0.00    -0.056 A 
HETATM  168  C   UNK N   1      23.889  12.006   8.882  0.00  0.00     0.010 A 
HETATM  169  C   UNK N   1      24.509  12.079  10.125  0.00  0.00     0.037 A 
HETATM  170  C   UNK N   1      23.744  12.237  11.280  0.00  0.00     0.065 A 
HETATM  171  C   UNK N   1      22.352  12.338  11.190  0.00  0.00     0.037 A 
HETATM  172  C   UNK N   1      21.727  12.269   9.943  0.00  0.00     0.010 A 
BRANCH 170 173
HETATM  173  O   UNK N   1      24.347  12.295  12.476  0.00  0.00    -0.361 OA
HETATM  174  H   UNK N   1      25.055  12.738  12.901  0.00  0.00     0.217 HD
ENDBRANCH 170 173
ENDBRANCH 166 167
ENDBRANCH 165 166
BRANCH 165 175
HETATM  175  C   UNK N   1      23.101  11.732   5.162  0.00  0.00     0.241 C 
HETATM  176  O   UNK N   1      24.069  11.009   5.323  0.00  0.00    -0.271 OA
HETATM  177  N   UNK N   1      22.499  11.847   3.945  0.00  0.00    -0.345 N 
HETATM  178  H   UNK N   1      21.704  12.425   3.923  0.00  0.00     0.163 HD
BRANCH 177 179
HETATM  179  C   UNK N   1      22.862  11.240   2.668  0.00  0.00     0.182 C 
BRANCH 179 180
HETATM  180  C   UNK N   1      22.567  12.184   1.499  0.00  0.00     0.040 C 
BRANCH 180 181
HETATM  181  C   UNK N   1      23.744  12.437   0.566  0.00  0.00    -0.020 C 
HETATM  182  C   UNK N   1      23.722  11.427  -0.564  0.00  0.00     0.009 C 
HETATM  183  C   UNK N   1      25.029  12.234   1.337  0.00  0.00     0.009 C 
ENDBRANCH 180 181
ENDBRANCH 179 180
BRANCH 179 184
HETATM  184  C   UNK N   1      22.484   9.798   2.440  0.00  0.00     0.163 C 
HETATM  185  O   UNK N   1      23.221   8.890   2.791  0.00  0.00    -0.648 OA
BRANCH 184 186
HETATM  186  O   UNK N   1      21.294   9.508   1.884  0.00  0.00    -0.775 OA
HETATM  187  H   UNK N   1      21.115   8.853   1.239  0.00  0.00     0.167 HD
ENDBRANCH 184 186
ENDBRANCH 179 184
ENDBRANCH 177 179
ENDBRANCH 165 175
ENDBRANCH 163 165
ENDBRANCH 154 161
ENDBRANCH 152 154
ENDBRANCH 143 150
ENDBRANCH 141 143
ENDBRANCH 136 139
ENDBRANCH 127 132
ENDBRANCH 125 127
ENDBRANCH 116 123
ENDBRANCH 114 116
ENDBRANCH 105 112
ENDBRANCH 103 105
ENDBRANCH   1 101
TORSDOF 74
ENDMDL
MODEL 6
REMARK VINA RESULT:      -6.5      3.513     12.630
REMARK WARNING: 32 MAX_TORS EXCEEDED!!!
REMARK  74 active torsions:
REMARK  status: ('A' for Active; 'I' for Inactive)
REMARK       I    between atoms: C_3  and  N_4 
REMARK       I    between atoms: C_3  and  N_5 
REMARK    1  A    between atoms: N_5  and  C_6 
REMARK    2  A    between atoms: C_6  and  C_7 
REMARK    3  A    between atoms: C_7  and  C_8 
REMARK    4  A    between atoms: C_8  and  C_9 
REMARK    5  A    between atoms: C_9  and  N_10 
REMARK    6  A    between atoms: C_9  and  C_29 
REMARK       I    between atoms: N_10  and  C_11 
REMARK    7  A    between atoms: C_13  and  C_11 
REMARK       I    between atoms: N_17  and  C_18 
REMARK    8  A    between atoms: C_18  and  C_20 
REMARK    9  A    between atoms: C_20  and  N_21 
REMARK   10  A    between atoms: C_20  and  C_22 
REMARK   11  A    between atoms: C_22  and  C_23 
REMARK       I    between atoms: C_29  and  N_31 
REMARK   12  A    between atoms: C_35  and  C_36 
REMARK       I    between atoms: C_36  and  N_38 
REMARK   13  A    between atoms: N_38  and  C_39 
REMARK   14  A    between atoms: C_39  and  C_40 
REMARK       I    between atoms: C_40  and  N_42 
REMARK   15  A    between atoms: N_42  and  C_43 
REMARK   16  A    between atoms: C_43  and  C_44 
REMARK       I    between atoms: C_44  and  N_46 
REMARK   17  A    between atoms: N_46  and  C_47 
REMARK   18  A    between atoms: C_47  and  C_48 
REMARK       I    between atoms: C_48  and  N_50 
REMARK   19  A    between atoms: N_50  and  C_51 
REMARK   20  A    between atoms: C_51  and  C_52 
REMARK       I    between atoms: C_52  and  N_54 
REMARK   21  A    between atoms: C_55  and  N_54 
REMARK   22  A    between atoms: C_55  and  C_56 
REMARK   23  A    between atoms: C_55  and  C_60 
REMARK   24  A    between atoms: C_56  and  C_57 
REMARK       I    between atoms: C_57  and  N_58 
REMARK       I    between atoms: C_60  and  N_62 
REMARK   25  A    between atoms: N_62  and  C_63 
REMARK   26  A    between atoms: C_63  and  C_64 
REMARK       I    between atoms: C_64  and  N_66 
REMARK   27  A    between atoms: C_67  and  N_66 
REMARK   28  A    between atoms: C_67  and  C_68 
REMARK   29  A    between atoms: C_67  and  C_72 
REMARK   30  A    between atoms: C_68  and  C_69 
REMARK   31  A    between atoms: C_69  and  O_70 
REMARK       I    between atoms: C_72  and  N_74 
REMARK   32  A    between atoms: C_75  and  N_74 
REMARK   33  A    between atoms: C_75  and  C_76 
REMARK   34  A    between atoms: C_75  and  C_83 
REMARK   35  A    between atoms: C_76  and  C_77 
REMARK       I    between atoms: C_83  and  N_85 
REMARK   36  A    between atoms: C_86  and  N_85 
REMARK   37  A    between atoms: C_86  and  C_87 
REMARK   38  A    between atoms: C_86  and  C_92 
REMARK   39  A    between atoms: C_87  and  C_88 
REMARK   40  A    between atoms: C_88  and  C_89 
REMARK   41  A    between atoms: C_89  and  O_90 
REMARK       I    between atoms: C_92  and  N_94 
REMARK   42  A    between atoms: C_95  and  N_94 
REMARK   43  A    between atoms: C_95  and  C_96 
REMARK   44  A    between atoms: C_95  and  C_101 
REMARK   45  A    between atoms: C_96  and  C_97 
REMARK   46  A    between atoms: C_97  and  C_98 
REMARK   47  A    between atoms: C_98  and  O_99 
REMARK       I    between atoms: C_101  and  N_103 
REMARK   48  A    between atoms: C_104  and  N_103 
REMARK   49  A    between atoms: C_104  and  C_105 
REMARK   50  A    between atoms: C_104  and  C_109 
REMARK   51  A    between atoms: C_105  and  C_107 
REMARK       I    between atoms: C_109  and  N_111 
REMARK   52  A    between atoms: C_115  and  C_116 
REMARK       I    between atoms: C_116  and  N_118 
REMARK   53  A    between atoms: C_119  and  N_118 
REMARK   54  A    between atoms: C_119  and  C_120 
REMARK   55  A    between atoms: C_119  and  C_125 
REMARK   56  A    between atoms: C_120  and  C_121 
REMARK   57  A    between atoms: C_121  and  C_122 
REMARK   58  A    between atoms: C_122  and  O_123 
REMARK       I    between atoms: C_125  and  N_127 
REMARK   59  A    between atoms: C_128  and  N_127 
REMARK   60  A    between atoms: C_128  and  C_129 
REMARK   61  A    between atoms: C_128  and  C_134 
REMARK   62  A    between atoms: C_129  and  C_130 
REMARK   63  A    between atoms: C_130  and  C_131 
REMARK   64  A    between atoms: C_131  and  O_132 
REMARK       I    between atoms: C_134  and  N_136 
REMARK   65  A    between atoms: C_137  and  N_136 
REMARK   66  A    between atoms: C_137  and  C_138 
REMARK   67  A    between atoms: C_137  and  C_146 
REMARK   68  A    between atoms: C_138  and  C_139 
REMARK   69  A    between atoms: C_142  and  O_143 
REMARK       I    between atoms: C_146  and  N_148 
REMARK   70  A    between atoms: C_149  and  N_148 
REMARK   71  A    between atoms: C_149  and  C_150 
REMARK   72  A    between atoms: C_149  and  C_154 
REMARK   73  A    between atoms: C_150  and  C_151 
REMARK   74  A    between atoms: C_154  and  O_155 
ROOT
HETATM    1  C   UNK N   1      27.014  15.783   5.803  0.00  0.00     0.180 C 
ENDROOT
BRANCH   1   2
HETATM    2  N   UNK N   1      27.685  17.049   5.752  0.00  0.00    -0.346 N 
HETATM    3  C   UNK N   1      29.005  17.129   5.548  0.00  0.00     0.241 C 
HETATM    4  O   UNK N   1      29.426  17.332   4.422  0.00  0.00    -0.271 OA
HETATM    5  H   UNK N   1      27.163  17.875   5.869  0.00  0.00     0.163 HD
BRANCH   3   6
HETATM    6  C   UNK N   1      29.944  17.045   6.703  0.00  0.00     0.186 C 
BRANCH   6   7
HETATM    7  N   UNK N   1      30.421  15.691   6.915  0.00  0.00    -0.346 N 
HETATM    8  C   UNK N   1      31.683  15.237   6.690  0.00  0.00     0.236 C 
HETATM    9  O   UNK N   1      31.925  14.062   6.910  0.00  0.00    -0.272 OA
HETATM   10  H   UNK N   1      29.768  15.037   7.254  0.00  0.00     0.163 HD
BRANCH   8  11
HETATM   11  C   UNK N   1      32.815  16.105   6.185  0.00  0.00     0.225 C 
BRANCH  11  12
HETATM   12  N   UNK N   1      32.660  16.610   4.835  0.00  0.00    -0.351 N 
HETATM   13  C   UNK N   1      32.962  15.930   3.695  0.00  0.00     0.241 C 
HETATM   14  O   UNK N   1      32.699  16.434   2.618  0.00  0.00    -0.271 OA
HETATM   15  H   UNK N   1      32.306  17.524   4.734  0.00  0.00     0.163 HD
BRANCH  13  16
HETATM   16  C   UNK N   1      33.494  14.530   3.719  0.00  0.00     0.185 C 
BRANCH  16  17
HETATM   17  N   UNK N   1      34.811  14.636   4.257  0.00  0.00    -0.346 N 
HETATM   18  C   UNK N   1      35.296  13.885   5.250  0.00  0.00     0.236 C 
HETATM   19  O   UNK N   1      34.753  12.838   5.571  0.00  0.00    -0.272 OA
HETATM   20  H   UNK N   1      35.409  15.314   3.866  0.00  0.00     0.163 HD
BRANCH  18  21
HETATM   21  C   UNK N   1      36.260  14.559   6.170  0.00  0.00     0.225 C 
BRANCH  21  22
HETATM   22  N   UNK N   1      37.638  14.308   5.736  0.00  0.00    -0.351 N 
HETATM   23  C   UNK N   1      38.552  13.367   6.163  0.00  0.00     0.235 C 
HETATM   24  O   UNK N   1      39.672  13.402   5.684  0.00  0.00    -0.272 OA
HETATM   25  H   UNK N   1      37.962  14.907   5.025  0.00  0.00     0.163 HD
BRANCH  23  26
HETATM   26  C   UNK N   1      38.309  12.276   7.194  0.00  0.00     0.225 C 
BRANCH  26  27
HETATM   27  N   UNK N   1      39.081  12.384   8.394  0.00  0.00    -0.351 N 
HETATM   28  C   UNK N   1      38.584  12.905   9.534  0.00  0.00     0.235 C 
HETATM   29  O   UNK N   1      39.342  13.074  10.474  0.00  0.00    -0.272 OA
HETATM   30  H   UNK N   1      40.012  12.067   8.386  0.00  0.00     0.163 HD
BRANCH  28  31
HETATM   31  C   UNK N   1      37.153  13.382   9.635  0.00  0.00     0.225 C 
BRANCH  31  32
HETATM   32  N   UNK N   1      37.120  14.290  10.738  0.00  0.00    -0.351 N 
HETATM   33  C   UNK N   1      36.340  15.381  10.707  0.00  0.00     0.235 C 
HETATM   34  O   UNK N   1      35.955  15.845   9.644  0.00  0.00    -0.272 OA
HETATM   35  H   UNK N   1      37.675  14.112  11.531  0.00  0.00     0.163 HD
BRANCH  33  36
HETATM   36  C   UNK N   1      35.559  15.638  11.927  0.00  0.00     0.225 C 
BRANCH  36  37
HETATM   37  N   UNK N   1      36.365  15.065  12.984  0.00  0.00    -0.351 N 
HETATM   38  C   UNK N   1      35.943  14.057  13.782  0.00  0.00     0.241 C 
HETATM   39  O   UNK N   1      34.876  13.496  13.563  0.00  0.00    -0.271 OA
HETATM   40  H   UNK N   1      37.269  15.428  13.130  0.00  0.00     0.163 HD
BRANCH  38  41
HETATM   41  C   UNK N   1      36.791  13.649  14.965  0.00  0.00     0.179 C 
HETATM   42  C   UNK N   1      36.407  14.398  16.232  0.00  0.00     0.037 C 
HETATM   43  C   UNK N   1      35.412  13.496  16.952  0.00  0.00     0.022 C 
HETATM   44  C   UNK N   1      35.686  12.095  16.431  0.00  0.00     0.127 C 
HETATM   45  N   UNK N   1      36.523  12.285  15.277  0.00  0.00    -0.337 N 
HETATM   46  C   UNK N   1      37.053  11.266  14.540  0.00  0.00     0.243 C 
HETATM   47  O   UNK N   1      37.819  11.515  13.620  0.00  0.00    -0.271 OA
BRANCH  46  48
HETATM   48  C   UNK N   1      36.709   9.837  14.808  0.00  0.00     0.176 C 
BRANCH  48  49
HETATM   49  C   UNK N   1      36.347   9.106  13.508  0.00  0.00     0.036 C 
BRANCH  49  50
HETATM   50  C   UNK N   1      35.039   9.605  12.899  0.00  0.00     0.023 C 
BRANCH  50  51
HETATM   51  C   UNK N   1      35.268  10.244  11.535  0.00  0.00     0.138 C 
BRANCH  51  52
HETATM   52  N   UNK N   1      34.082  10.928  11.073  0.00  0.00    -0.227 N 
HETATM   53  C   UNK N   1      33.576  10.726   9.760  0.00  0.00     0.665 C 
HETATM   54  N   UNK N   1      34.202   9.975   8.929  0.00  0.00    -0.235 N 
HETATM   55  N   UNK N   1      32.387  11.374   9.358  0.00  0.00    -0.235 N 
HETATM   56  H   UNK N   1      34.849   9.252   8.763  0.00  0.00     0.174 HD
ATOM     57  HN  UNK N   1      33.874  10.262   8.007  1.00  0.00     0.174 HD
HETATM   58  H   UNK N   1      32.295  12.103   8.703  0.00  0.00     0.174 HD
HETATM   59  H   UNK N   1      31.556  11.060   9.781  0.00  0.00     0.174 HD
HETATM   60  H   UNK N   1      33.614  11.547  11.679  0.00  0.00     0.177 HD
ENDBRANCH  51  52
ENDBRANCH  50  51
ENDBRANCH  49  50
ENDBRANCH  48  49
BRANCH  48  61
HETATM   61  N   UNK N   1      37.815   9.204  15.480  0.00  0.00    -0.346 N 
HETATM   62  C   UNK N   1      37.645   8.438  16.582  0.00  0.00     0.241 C 
HETATM   63  O   UNK N   1      38.605   7.823  17.025  0.00  0.00    -0.271 OA
HETATM   64  H   UNK N   1      38.725   9.334  15.126  0.00  0.00     0.163 HD
BRANCH  62  65
HETATM   65  C   UNK N   1      36.301   8.340  17.287  0.00  0.00     0.179 C 
HETATM   66  C   UNK N   1      35.482   7.222  16.660  0.00  0.00     0.037 C 
HETATM   67  C   UNK N   1      35.652   5.993  17.561  0.00  0.00     0.022 C 
HETATM   68  C   UNK N   1      36.486   6.439  18.749  0.00  0.00     0.127 C 
HETATM   69  N   UNK N   1      36.529   7.865  18.623  0.00  0.00    -0.337 N 
HETATM   70  C   UNK N   1      36.594   8.660  19.721  0.00  0.00     0.243 C 
HETATM   71  O   UNK N   1      36.831   8.160  20.811  0.00  0.00    -0.271 OA
BRANCH  70  72
HETATM   72  C   UNK N   1      36.353  10.145  19.629  0.00  0.00     0.171 C 
BRANCH  72  73
HETATM   73  N   UNK N   1      36.699  10.770  20.887  0.00  0.00    -0.418 N 
HETATM   74  H   UNK N   1      36.400  10.515  21.828  0.00  0.00     0.150 HD
HETATM   75  H   UNK N   1      37.326  11.573  20.824  0.00  0.00     0.150 HD
ENDBRANCH  72  73
BRANCH  72  76
HETATM   76  C   UNK N   1      34.891  10.460  19.251  0.00  0.00     0.072 C 
BRANCH  76  77
HETATM   77  C   UNK N   1      33.904   9.632  20.020  0.00  0.00    -0.056 A 
HETATM   78  C   UNK N   1      33.581   9.995  21.334  0.00  0.00     0.007 A 
HETATM   79  C   UNK N   1      32.573   9.315  22.023  0.00  0.00     0.001 A 
HETATM   80  C   UNK N   1      31.889   8.267  21.402  0.00  0.00     0.000 A 
HETATM   81  C   UNK N   1      32.217   7.891  20.096  0.00  0.00     0.001 A 
HETATM   82  C   UNK N   1      33.217   8.578  19.401  0.00  0.00     0.007 A 
ENDBRANCH  76  77
ENDBRANCH  72  76
ENDBRANCH  70  72
ENDBRANCH  62  65
ENDBRANCH  48  61
ENDBRANCH  46  48
ENDBRANCH  38  41
ENDBRANCH  36  37
ENDBRANCH  33  36
ENDBRANCH  31  32
ENDBRANCH  28  31
ENDBRANCH  26  27
ENDBRANCH  23  26
ENDBRANCH  21  22
ENDBRANCH  18  21
ENDBRANCH  16  17
BRANCH  16  83
HETATM   83  C   UNK N   1      33.386  13.756   2.412  0.00  0.00     0.137 C 
BRANCH  83  84
HETATM   84  C   UNK N   1      34.737  13.657   1.757  0.00  0.00     0.217 C 
HETATM   85  N   UNK N   1      35.569  12.652   2.088  0.00  0.00    -0.370 N 
HETATM   86  H   UNK N   1      35.316  11.717   1.915  0.00  0.00     0.159 HD
HETATM   87  H   UNK N   1      36.438  12.854   2.505  0.00  0.00     0.159 HD
HETATM   88  O   UNK N   1      35.087  14.479   0.925  0.00  0.00    -0.274 OA
ENDBRANCH  83  84
ENDBRANCH  16  83
ENDBRANCH  13  16
ENDBRANCH  11  12
ENDBRANCH   8  11
ENDBRANCH   6   7
BRANCH   6  89
HETATM   89  C   UNK N   1      29.246  17.604   7.954  0.00  0.00     0.144 C 
BRANCH  89  90
HETATM   90  C   UNK N   1      30.160  18.106   9.036  0.00  0.00     0.141 C 
HETATM   91  O   UNK N   1      31.366  18.149   8.865  0.00  0.00    -0.650 OA
BRANCH  90  92
HETATM   92  O   UNK N   1      29.640  18.517  10.206  0.00  0.00    -0.776 OA
HETATM   93  H   UNK N   1      29.440  17.893  10.876  0.00  0.00     0.167 HD
ENDBRANCH  90  92
ENDBRANCH  89  90
ENDBRANCH   6  89
ENDBRANCH   3   6
ENDBRANCH   1   2
BRANCH   1  94
HETATM   94  C   UNK N   1      25.703  15.899   6.605  0.00  0.00     0.073 C 
BRANCH  94  95
HETATM   95  C   UNK N   1      25.255  14.596   7.233  0.00  0.00    -0.056 A 
HETATM   96  C   UNK N   1      25.500  14.341   8.585  0.00  0.00     0.007 A 
HETATM   97  C   UNK N   1      25.066  13.138   9.161  0.00  0.00     0.001 A 
HETATM   98  C   UNK N   1      24.390  12.187   8.390  0.00  0.00     0.000 A 
HETATM   99  C   UNK N   1      24.154  12.428   7.037  0.00  0.00     0.001 A 
HETATM  100  C   UNK N   1      24.589  13.623   6.466  0.00  0.00     0.007 A 
ENDBRANCH  94  95
ENDBRANCH   1  94
BRANCH   1 101
HETATM  101  C   UNK N   1      26.884  15.303   4.370  0.00  0.00     0.241 C 
HETATM  102  O   UNK N   1      26.167  15.933   3.613  0.00  0.00    -0.271 OA
HETATM  103  N   UNK N   1      27.405  14.123   3.935  0.00  0.00    -0.346 N 
HETATM  104  H   UNK N   1      26.984  13.715   3.145  0.00  0.00     0.163 HD
BRANCH 103 105
HETATM  105  C   UNK N   1      28.518  13.413   4.527  0.00  0.00     0.177 C 
BRANCH 105 106
HETATM  106  C   UNK N   1      29.908  13.707   3.927  0.00  0.00     0.045 C 
BRANCH 106 107
HETATM  107  C   UNK N   1      29.865  14.007   2.425  0.00  0.00     0.112 C 
BRANCH 107 108
HETATM  108  C   UNK N   1      29.869  12.753   1.592  0.00  0.00     0.139 C 
HETATM  109  O   UNK N   1      29.217  12.690   0.564  0.00  0.00    -0.650 OA
BRANCH 108 110
HETATM  110  O   UNK N   1      30.579  11.682   1.989  0.00  0.00    -0.776 OA
HETATM  111  H   UNK N   1      30.940  11.339   2.783  0.00  0.00     0.167 HD
ENDBRANCH 108 110
ENDBRANCH 107 108
ENDBRANCH 106 107
ENDBRANCH 105 106
BRANCH 105 112
HETATM  112  C   UNK N   1      28.113  11.975   4.582  0.00  0.00     0.241 C 
HETATM  113  O   UNK N   1      26.930  11.714   4.767  0.00  0.00    -0.271 OA
HETATM  114  N   UNK N   1      29.041  10.983   4.503  0.00  0.00    -0.346 N 
HETATM  115  H   UNK N   1      29.974  11.234   4.316  0.00  0.00     0.163 HD
BRANCH 114 116
HETATM  116  C   UNK N   1      28.734   9.581   4.677  0.00  0.00     0.177 C 
BRANCH 116 117
HETATM  117  C   UNK N   1      29.960   8.862   5.235  0.00  0.00     0.045 C 
BRANCH 117 118
HETATM  118  C   UNK N   1      31.293   9.449   4.757  0.00  0.00     0.112 C 
BRANCH 118 119
HETATM  119  C   UNK N   1      32.260  10.186   5.641  0.00  0.00     0.139 C 
HETATM  120  O   UNK N   1      33.214   9.592   6.111  0.00  0.00    -0.650 OA
BRANCH 119 121
HETATM  121  O   UNK N   1      32.008  11.444   6.042  0.00  0.00    -0.776 OA
HETATM  122  H   UNK N   1      31.411  11.648   6.734  0.00  0.00     0.167 HD
ENDBRANCH 119 121
ENDBRANCH 118 119
ENDBRANCH 117 118
ENDBRANCH 116 117
BRANCH 116 123
HETATM  123  C   UNK N   1      28.340   8.968   3.354  0.00  0.00     0.241 C 
HETATM  124  O   UNK N   1      28.791   9.428   2.318  0.00  0.00    -0.271 OA
HETATM  125  N   UNK N   1      27.511   7.897   3.311  0.00  0.00    -0.346 N 
HETATM  126  H   UNK N   1      27.146   7.553   4.159  0.00  0.00     0.163 HD
BRANCH 125 127
HETATM  127  C   UNK N   1      27.129   7.227   2.069  0.00  0.00     0.180 C 
BRANCH 127 128
HETATM  128  C   UNK N   1      27.613   5.754   1.991  0.00  0.00     0.013 C 
HETATM  129  C   UNK N   1      28.709   5.388   2.980  0.00  0.00     0.012 C 
BRANCH 128 130
HETATM  130  C   UNK N   1      28.093   5.388   0.596  0.00  0.00     0.002 C 
HETATM  131  C   UNK N   1      28.943   6.500   0.014  0.00  0.00     0.005 C 
ENDBRANCH 128 130
ENDBRANCH 127 128
BRANCH 127 132
HETATM  132  C   UNK N   1      25.714   7.644   1.607  0.00  0.00     0.243 C 
HETATM  133  O   UNK N   1      25.645   8.591   0.849  0.00  0.00    -0.271 OA
HETATM  134  N   UNK N   1      24.556   6.981   1.964  0.00  0.00    -0.337 N 
HETATM  135  C   UNK N   1      24.509   5.818   2.790  0.00  0.00     0.127 C 
HETATM  136  C   UNK N   1      23.252   7.389   1.462  0.00  0.00     0.179 C 
HETATM  137  C   UNK N   1      23.035   5.498   2.961  0.00  0.00     0.022 C 
HETATM  138  C   UNK N   1      22.308   6.274   1.871  0.00  0.00     0.037 C 
BRANCH 136 139
HETATM  139  C   UNK N   1      22.823   8.691   2.068  0.00  0.00     0.241 C 
HETATM  140  O   UNK N   1      22.960   9.719   1.420  0.00  0.00    -0.271 OA
HETATM  141  N   UNK N   1      22.374   8.731   3.356  0.00  0.00    -0.346 N 
HETATM  142  H   UNK N   1      22.155   7.875   3.791  0.00  0.00     0.163 HD
BRANCH 141 143
HETATM  143  C   UNK N   1      22.196   9.951   4.132  0.00  0.00     0.177 C 
BRANCH 143 144
HETATM  144  C   UNK N   1      22.256   9.708   5.646  0.00  0.00     0.045 C 
BRANCH 144 145
HETATM  145  C   UNK N   1      23.188   8.580   6.067  0.00  0.00     0.112 C 
BRANCH 145 146
HETATM  146  C   UNK N   1      22.393   7.363   6.394  0.00  0.00     0.139 C 
HETATM  147  O   UNK N   1      22.785   6.590   7.251  0.00  0.00    -0.650 OA
BRANCH 146 148
HETATM  148  O   UNK N   1      21.247   7.111   5.734  0.00  0.00    -0.776 OA
HETATM  149  H   UNK N   1      20.438   6.996   6.193  0.00  0.00     0.167 HD
ENDBRANCH 146 148
ENDBRANCH 145 146
ENDBRANCH 144 145
ENDBRANCH 143 144
BRANCH 143 150
HETATM  150  C   UNK N   1      20.977  10.698   3.629  0.00  0.00     0.241 C 
HETATM  151  O   UNK N   1      19.878  10.182   3.753  0.00  0.00    -0.271 OA
HETATM  152  N   UNK N   1      21.034  11.896   3.008  0.00  0.00    -0.346 N 
HETATM  153  H   UNK N   1      20.166  12.254   2.712  0.00  0.00     0.163 HD
BRANCH 152 154
HETATM  154  C   UNK N   1      22.166  12.724   2.715  0.00  0.00     0.177 C 
BRANCH 154 155
HETATM  155  C   UNK N   1      22.124  13.099   1.205  0.00  0.00     0.045 C 
BRANCH 155 156
HETATM  156  C   UNK N   1      23.419  12.896   0.368  0.00  0.00     0.112 C 
BRANCH 156 157
HETATM  157  C   UNK N   1      24.706  12.665   1.119  0.00  0.00     0.139 C 
HETATM  158  O   UNK N   1      25.330  13.618   1.555  0.00  0.00    -0.650 OA
BRANCH 157 159
HETATM  159  O   UNK N   1      25.216  11.427   1.255  0.00  0.00    -0.776 OA
HETATM  160  H   UNK N   1      25.715  10.667   1.027  0.00  0.00     0.167 HD
ENDBRANCH 157 159
ENDBRANCH 156 157
ENDBRANCH 155 156
ENDBRANCH 154 155
BRANCH 154 161
HETATM  161  C   UNK N   1      22.005  13.965   3.536  0.00  0.00     0.241 C 
HETATM  162  O   UNK N   1      22.983  14.647   3.793  0.00  0.00    -0.271 OA
HETATM  163  N   UNK N   1      20.741  14.387   3.832  0.00  0.00    -0.346 N 
HETATM  164  H   UNK N   1      20.016  13.742   3.676  0.00  0.00     0.163 HD
BRANCH 163 165
HETATM  165  C   UNK N   1      20.355  15.677   4.351  0.00  0.00     0.180 C 
BRANCH 165 166
HETATM  166  C   UNK N   1      19.727  16.590   3.295  0.00  0.00     0.073 C 
BRANCH 166 167
HETATM  167  C   UNK N   1      20.388  17.909   3.154  0.00  0.00    -0.056 A 
HETATM  168  C   UNK N   1      21.681  18.091   3.651  0.00  0.00     0.010 A 
HETATM  169  C   UNK N   1      22.300  19.333   3.542  0.00  0.00     0.037 A 
HETATM  170  C   UNK N   1      21.635  20.395   2.932  0.00  0.00     0.065 A 
HETATM  171  C   UNK N   1      20.348  20.212   2.415  0.00  0.00     0.037 A 
HETATM  172  C   UNK N   1      19.726  18.965   2.519  0.00  0.00     0.010 A 
BRANCH 170 173
HETATM  173  O   UNK N   1      22.233  21.592   2.841  0.00  0.00    -0.361 OA
HETATM  174  H   UNK N   1      22.951  22.002   2.402  0.00  0.00     0.217 HD
ENDBRANCH 170 173
ENDBRANCH 166 167
ENDBRANCH 165 166
BRANCH 165 175
HETATM  175  C   UNK N   1      19.715  15.554   5.716  0.00  0.00     0.241 C 
HETATM  176  O   UNK N   1      18.498  15.561   5.795  0.00  0.00    -0.271 OA
HETATM  177  N   UNK N   1      20.495  15.546   6.834  0.00  0.00    -0.345 N 
HETATM  178  H   UNK N   1      21.465  15.504   6.668  0.00  0.00     0.163 HD
BRANCH 177 179
HETATM  179  C   UNK N   1      20.107  15.593   8.240  0.00  0.00     0.182 C 
BRANCH 179 180
HETATM  180  C   UNK N   1      20.274  17.002   8.818  0.00  0.00     0.040 C 
BRANCH 180 181
HETATM  181  C   UNK N   1      18.991  17.817   8.899  0.00  0.00    -0.020 C 
HETATM  182  C   UNK N   1      19.128  18.872   9.979  0.00  0.00     0.009 C 
HETATM  183  C   UNK N   1      17.855  16.901   9.295  0.00  0.00     0.009 C 
ENDBRANCH 180 181
ENDBRANCH 179 180
BRANCH 179 184
HETATM  184  C   UNK N   1      20.568  14.472   9.136  0.00  0.00     0.163 C 
HETATM  185  O   UNK N   1      21.755  14.234   9.290  0.00  0.00    -0.648 OA
BRANCH 184 186
HETATM  186  O   UNK N   1      19.655  13.753   9.814  0.00  0.00    -0.775 OA
HETATM  187  H   UNK N   1      18.830  13.441   9.497  0.00  0.00     0.167 HD
ENDBRANCH 184 186
ENDBRANCH 179 184
ENDBRANCH 177 179
ENDBRANCH 165 175
ENDBRANCH 163 165
ENDBRANCH 154 161
ENDBRANCH 152 154
ENDBRANCH 143 150
ENDBRANCH 141 143
ENDBRANCH 136 139
ENDBRANCH 127 132
ENDBRANCH 125 127
ENDBRANCH 116 123
ENDBRANCH 114 116
ENDBRANCH 105 112
ENDBRANCH 103 105
ENDBRANCH   1 101
TORSDOF 74
ENDMDL
MODEL 7
REMARK VINA RESULT:      -6.5      2.766     12.063
REMARK WARNING: 32 MAX_TORS EXCEEDED!!!
REMARK  74 active torsions:
REMARK  status: ('A' for Active; 'I' for Inactive)
REMARK       I    between atoms: C_3  and  N_4 
REMARK       I    between atoms: C_3  and  N_5 
REMARK    1  A    between atoms: N_5  and  C_6 
REMARK    2  A    between atoms: C_6  and  C_7 
REMARK    3  A    between atoms: C_7  and  C_8 
REMARK    4  A    between atoms: C_8  and  C_9 
REMARK    5  A    between atoms: C_9  and  N_10 
REMARK    6  A    between atoms: C_9  and  C_29 
REMARK       I    between atoms: N_10  and  C_11 
REMARK    7  A    between atoms: C_13  and  C_11 
REMARK       I    between atoms: N_17  and  C_18 
REMARK    8  A    between atoms: C_18  and  C_20 
REMARK    9  A    between atoms: C_20  and  N_21 
REMARK   10  A    between atoms: C_20  and  C_22 
REMARK   11  A    between atoms: C_22  and  C_23 
REMARK       I    between atoms: C_29  and  N_31 
REMARK   12  A    between atoms: C_35  and  C_36 
REMARK       I    between atoms: C_36  and  N_38 
REMARK   13  A    between atoms: N_38  and  C_39 
REMARK   14  A    between atoms: C_39  and  C_40 
REMARK       I    between atoms: C_40  and  N_42 
REMARK   15  A    between atoms: N_42  and  C_43 
REMARK   16  A    between atoms: C_43  and  C_44 
REMARK       I    between atoms: C_44  and  N_46 
REMARK   17  A    between atoms: N_46  and  C_47 
REMARK   18  A    between atoms: C_47  and  C_48 
REMARK       I    between atoms: C_48  and  N_50 
REMARK   19  A    between atoms: N_50  and  C_51 
REMARK   20  A    between atoms: C_51  and  C_52 
REMARK       I    between atoms: C_52  and  N_54 
REMARK   21  A    between atoms: C_55  and  N_54 
REMARK   22  A    between atoms: C_55  and  C_56 
REMARK   23  A    between atoms: C_55  and  C_60 
REMARK   24  A    between atoms: C_56  and  C_57 
REMARK       I    between atoms: C_57  and  N_58 
REMARK       I    between atoms: C_60  and  N_62 
REMARK   25  A    between atoms: N_62  and  C_63 
REMARK   26  A    between atoms: C_63  and  C_64 
REMARK       I    between atoms: C_64  and  N_66 
REMARK   27  A    between atoms: C_67  and  N_66 
REMARK   28  A    between atoms: C_67  and  C_68 
REMARK   29  A    between atoms: C_67  and  C_72 
REMARK   30  A    between atoms: C_68  and  C_69 
REMARK   31  A    between atoms: C_69  and  O_70 
REMARK       I    between atoms: C_72  and  N_74 
REMARK   32  A    between atoms: C_75  and  N_74 
REMARK   33  A    between atoms: C_75  and  C_76 
REMARK   34  A    between atoms: C_75  and  C_83 
REMARK   35  A    between atoms: C_76  and  C_77 
REMARK       I    between atoms: C_83  and  N_85 
REMARK   36  A    between atoms: C_86  and  N_85 
REMARK   37  A    between atoms: C_86  and  C_87 
REMARK   38  A    between atoms: C_86  and  C_92 
REMARK   39  A    between atoms: C_87  and  C_88 
REMARK   40  A    between atoms: C_88  and  C_89 
REMARK   41  A    between atoms: C_89  and  O_90 
REMARK       I    between atoms: C_92  and  N_94 
REMARK   42  A    between atoms: C_95  and  N_94 
REMARK   43  A    between atoms: C_95  and  C_96 
REMARK   44  A    between atoms: C_95  and  C_101 
REMARK   45  A    between atoms: C_96  and  C_97 
REMARK   46  A    between atoms: C_97  and  C_98 
REMARK   47  A    between atoms: C_98  and  O_99 
REMARK       I    between atoms: C_101  and  N_103 
REMARK   48  A    between atoms: C_104  and  N_103 
REMARK   49  A    between atoms: C_104  and  C_105 
REMARK   50  A    between atoms: C_104  and  C_109 
REMARK   51  A    between atoms: C_105  and  C_107 
REMARK       I    between atoms: C_109  and  N_111 
REMARK   52  A    between atoms: C_115  and  C_116 
REMARK       I    between atoms: C_116  and  N_118 
REMARK   53  A    between atoms: C_119  and  N_118 
REMARK   54  A    between atoms: C_119  and  C_120 
REMARK   55  A    between atoms: C_119  and  C_125 
REMARK   56  A    between atoms: C_120  and  C_121 
REMARK   57  A    between atoms: C_121  and  C_122 
REMARK   58  A    between atoms: C_122  and  O_123 
REMARK       I    between atoms: C_125  and  N_127 
REMARK   59  A    between atoms: C_128  and  N_127 
REMARK   60  A    between atoms: C_128  and  C_129 
REMARK   61  A    between atoms: C_128  and  C_134 
REMARK   62  A    between atoms: C_129  and  C_130 
REMARK   63  A    between atoms: C_130  and  C_131 
REMARK   64  A    between atoms: C_131  and  O_132 
REMARK       I    between atoms: C_134  and  N_136 
REMARK   65  A    between atoms: C_137  and  N_136 
REMARK   66  A    between atoms: C_137  and  C_138 
REMARK   67  A    between atoms: C_137  and  C_146 
REMARK   68  A    between atoms: C_138  and  C_139 
REMARK   69  A    between atoms: C_142  and  O_143 
REMARK       I    between atoms: C_146  and  N_148 
REMARK   70  A    between atoms: C_149  and  N_148 
REMARK   71  A    between atoms: C_149  and  C_150 
REMARK   72  A    between atoms: C_149  and  C_154 
REMARK   73  A    between atoms: C_150  and  C_151 
REMARK   74  A    between atoms: C_154  and  O_155 
ROOT
HETATM    1  C   UNK N   1      20.507  16.302   7.204  0.00  0.00     0.180 C 
ENDROOT
BRANCH   1   2
HETATM    2  N   UNK N   1      21.827  15.758   7.337  0.00  0.00    -0.346 N 
HETATM    3  C   UNK N   1      22.121  14.529   6.894  0.00  0.00     0.241 C 
HETATM    4  O   UNK N   1      22.627  14.394   5.794  0.00  0.00    -0.271 OA
HETATM    5  H   UNK N   1      22.531  16.300   7.761  0.00  0.00     0.163 HD
BRANCH   3   6
HETATM    6  C   UNK N   1      21.897  13.348   7.775  0.00  0.00     0.186 C 
BRANCH   6   7
HETATM    7  N   UNK N   1      21.036  12.361   7.148  0.00  0.00    -0.346 N 
HETATM    8  C   UNK N   1      21.441  11.266   6.452  0.00  0.00     0.236 C 
HETATM    9  O   UNK N   1      20.589  10.534   5.976  0.00  0.00    -0.272 OA
HETATM   10  H   UNK N   1      20.065  12.499   7.236  0.00  0.00     0.163 HD
BRANCH   8  11
HETATM   11  C   UNK N   1      22.891  10.893   6.232  0.00  0.00     0.225 C 
BRANCH  11  12
HETATM   12  N   UNK N   1      23.371  11.027   4.871  0.00  0.00    -0.351 N 
HETATM   13  C   UNK N   1      23.696   9.998   4.041  0.00  0.00     0.241 C 
HETATM   14  O   UNK N   1      24.000  10.243   2.888  0.00  0.00    -0.271 OA
HETATM   15  H   UNK N   1      23.470  11.940   4.516  0.00  0.00     0.163 HD
BRANCH  13  16
HETATM   16  C   UNK N   1      23.575   8.565   4.462  0.00  0.00     0.185 C 
BRANCH  16  17
HETATM   17  N   UNK N   1      24.705   7.907   3.891  0.00  0.00    -0.346 N 
HETATM   18  C   UNK N   1      25.910   7.822   4.462  0.00  0.00     0.236 C 
HETATM   19  O   UNK N   1      26.058   8.033   5.657  0.00  0.00    -0.272 OA
HETATM   20  H   UNK N   1      24.588   7.483   3.011  0.00  0.00     0.163 HD
BRANCH  18  21
HETATM   21  C   UNK N   1      27.077   7.844   3.532  0.00  0.00     0.225 C 
BRANCH  21  22
HETATM   22  N   UNK N   1      26.752   8.609   2.324  0.00  0.00    -0.351 N 
HETATM   23  C   UNK N   1      27.579   9.187   1.382  0.00  0.00     0.235 C 
HETATM   24  O   UNK N   1      27.061   9.835   0.490  0.00  0.00    -0.272 OA
HETATM   25  H   UNK N   1      25.790   8.729   2.158  0.00  0.00     0.163 HD
BRANCH  23  26
HETATM   26  C   UNK N   1      29.097   9.109   1.345  0.00  0.00     0.225 C 
BRANCH  26  27
HETATM   27  N   UNK N   1      29.654   8.572   0.141  0.00  0.00    -0.351 N 
HETATM   28  C   UNK N   1      30.222   9.347  -0.804  0.00  0.00     0.235 C 
HETATM   29  O   UNK N   1      30.562   8.826  -1.853  0.00  0.00    -0.272 OA
HETATM   30  H   UNK N   1      29.619   7.599  -0.002  0.00  0.00     0.163 HD
BRANCH  28  31
HETATM   31  C   UNK N   1      30.344  10.845  -0.641  0.00  0.00     0.225 C 
BRANCH  31  32
HETATM   32  N   UNK N   1      31.745  11.129  -0.670  0.00  0.00    -0.351 N 
HETATM   33  C   UNK N   1      32.354  11.688   0.386  0.00  0.00     0.235 C 
HETATM   34  O   UNK N   1      31.715  12.318   1.216  0.00  0.00    -0.272 OA
HETATM   35  H   UNK N   1      32.268  10.912  -1.475  0.00  0.00     0.163 HD
BRANCH  33  36
HETATM   36  C   UNK N   1      33.633  11.076   0.778  0.00  0.00     0.225 C 
BRANCH  36  37
HETATM   37  N   UNK N   1      33.312  10.338   1.981  0.00  0.00    -0.351 N 
HETATM   38  C   UNK N   1      32.855   9.064   1.976  0.00  0.00     0.241 C 
HETATM   39  O   UNK N   1      32.804   8.426   0.931  0.00  0.00    -0.271 OA
HETATM   40  H   UNK N   1      33.431  10.787   2.850  0.00  0.00     0.163 HD
BRANCH  38  41
HETATM   41  C   UNK N   1      32.385   8.445   3.272  0.00  0.00     0.179 C 
HETATM   42  C   UNK N   1      32.064   6.966   3.118  0.00  0.00     0.037 C 
HETATM   43  C   UNK N   1      33.336   6.228   3.515  0.00  0.00     0.022 C 
HETATM   44  C   UNK N   1      34.104   7.195   4.401  0.00  0.00     0.127 C 
HETATM   45  N   UNK N   1      33.458   8.466   4.209  0.00  0.00    -0.337 N 
HETATM   46  C   UNK N   1      33.803   9.607   4.875  0.00  0.00     0.243 C 
HETATM   47  O   UNK N   1      33.151  10.629   4.710  0.00  0.00    -0.271 OA
BRANCH  46  48
HETATM   48  C   UNK N   1      34.979   9.659   5.795  0.00  0.00     0.176 C 
BRANCH  48  49
HETATM   49  C   UNK N   1      36.267   9.979   5.023  0.00  0.00     0.036 C 
BRANCH  49  50
HETATM   50  C   UNK N   1      36.149  11.252   4.189  0.00  0.00     0.023 C 
BRANCH  50  51
HETATM   51  C   UNK N   1      37.239  11.326   3.127  0.00  0.00     0.138 C 
BRANCH  51  52
HETATM   52  N   UNK N   1      37.081  12.498   2.297  0.00  0.00    -0.227 N 
HETATM   53  C   UNK N   1      37.172  12.418   0.881  0.00  0.00     0.665 C 
HETATM   54  N   UNK N   1      37.462  11.308   0.308  0.00  0.00    -0.235 N 
HETATM   55  N   UNK N   1      36.965  13.575   0.097  0.00  0.00    -0.235 N 
HETATM   56  H   UNK N   1      37.505  10.324   0.340  0.00  0.00     0.174 HD
ATOM     57  HN  UNK N   1      37.813  11.564  -0.615  1.00  0.00     0.174 HD
HETATM   58  H   UNK N   1      37.635  14.073  -0.424  0.00  0.00     0.174 HD
HETATM   59  H   UNK N   1      36.044  13.922   0.070  0.00  0.00     0.174 HD
HETATM   60  H   UNK N   1      36.907  13.370   2.720  0.00  0.00     0.177 HD
ENDBRANCH  51  52
ENDBRANCH  50  51
ENDBRANCH  49  50
ENDBRANCH  48  49
BRANCH  48  61
HETATM   61  N   UNK N   1      34.726  10.632   6.828  0.00  0.00    -0.346 N 
HETATM   62  C   UNK N   1      34.392  10.272   8.088  0.00  0.00     0.241 C 
HETATM   63  O   UNK N   1      34.321  11.139   8.948  0.00  0.00    -0.271 OA
HETATM   64  H   UNK N   1      34.799  11.589   6.609  0.00  0.00     0.163 HD
BRANCH  62  65
HETATM   65  C   UNK N   1      34.086   8.827   8.452  0.00  0.00     0.179 C 
HETATM   66  C   UNK N   1      35.158   8.307   9.397  0.00  0.00     0.037 C 
HETATM   67  C   UNK N   1      34.587   8.421  10.817  0.00  0.00     0.022 C 
HETATM   68  C   UNK N   1      33.158   8.913  10.670  0.00  0.00     0.127 C 
HETATM   69  N   UNK N   1      32.902   8.811   9.264  0.00  0.00    -0.337 N 
HETATM   70  C   UNK N   1      31.656   8.536   8.801  0.00  0.00     0.243 C 
HETATM   71  O   UNK N   1      30.705   8.586   9.569  0.00  0.00    -0.271 OA
BRANCH  70  72
HETATM   72  C   UNK N   1      31.422   8.145   7.364  0.00  0.00     0.171 C 
BRANCH  72  73
HETATM   73  N   UNK N   1      30.817   9.250   6.655  0.00  0.00    -0.418 N 
HETATM   74  H   UNK N   1      31.161   9.743   5.831  0.00  0.00     0.150 HD
HETATM   75  H   UNK N   1      29.926   9.580   7.027  0.00  0.00     0.150 HD
ENDBRANCH  72  73
BRANCH  72  76
HETATM   76  C   UNK N   1      30.540   6.883   7.257  0.00  0.00     0.072 C 
BRANCH  76  77
HETATM   77  C   UNK N   1      31.326   5.659   6.888  0.00  0.00    -0.056 A 
HETATM   78  C   UNK N   1      30.760   4.719   6.017  0.00  0.00     0.007 A 
HETATM   79  C   UNK N   1      31.520   3.638   5.561  0.00  0.00     0.001 A 
HETATM   80  C   UNK N   1      32.845   3.492   5.978  0.00  0.00     0.000 A 
HETATM   81  C   UNK N   1      33.409   4.419   6.860  0.00  0.00     0.001 A 
HETATM   82  C   UNK N   1      32.654   5.507   7.308  0.00  0.00     0.007 A 
ENDBRANCH  76  77
ENDBRANCH  72  76
ENDBRANCH  70  72
ENDBRANCH  62  65
ENDBRANCH  48  61
ENDBRANCH  46  48
ENDBRANCH  38  41
ENDBRANCH  36  37
ENDBRANCH  33  36
ENDBRANCH  31  32
ENDBRANCH  28  31
ENDBRANCH  26  27
ENDBRANCH  23  26
ENDBRANCH  21  22
ENDBRANCH  18  21
ENDBRANCH  16  17
BRANCH  16  83
HETATM   83  C   UNK N   1      22.230   7.904   4.186  0.00  0.00     0.137 C 
BRANCH  83  84
HETATM   84  C   UNK N   1      21.774   7.137   5.397  0.00  0.00     0.217 C 
HETATM   85  N   UNK N   1      20.605   7.449   5.986  0.00  0.00    -0.370 N 
HETATM   86  H   UNK N   1      19.757   7.354   5.494  0.00  0.00     0.159 HD
HETATM   87  H   UNK N   1      20.597   7.773   6.915  0.00  0.00     0.159 HD
HETATM   88  O   UNK N   1      22.454   6.230   5.851  0.00  0.00    -0.274 OA
ENDBRANCH  83  84
ENDBRANCH  16  83
ENDBRANCH  13  16
ENDBRANCH  11  12
ENDBRANCH   8  11
ENDBRANCH   6   7
BRANCH   6  89
HETATM   89  C   UNK N   1      21.326  13.828   9.119  0.00  0.00     0.144 C 
BRANCH  89  90
HETATM   90  C   UNK N   1      21.096  12.757  10.147  0.00  0.00     0.141 C 
HETATM   91  O   UNK N   1      21.943  11.908  10.364  0.00  0.00    -0.650 OA
BRANCH  90  92
HETATM   92  O   UNK N   1      19.943  12.737  10.838  0.00  0.00    -0.776 OA
HETATM   93  H   UNK N   1      19.439  11.948  10.888  0.00  0.00     0.167 HD
ENDBRANCH  90  92
ENDBRANCH  89  90
ENDBRANCH   6  89
ENDBRANCH   3   6
ENDBRANCH   1   2
BRANCH   1  94
HETATM   94  C   UNK N   1      20.452  17.730   7.783  0.00  0.00     0.073 C 
BRANCH  94  95
HETATM   95  C   UNK N   1      19.339  17.937   8.788  0.00  0.00    -0.056 A 
HETATM   96  C   UNK N   1      18.160  17.191   8.703  0.00  0.00     0.007 A 
HETATM   97  C   UNK N   1      17.142  17.379   9.649  0.00  0.00     0.001 A 
HETATM   98  C   UNK N   1      17.297  18.311  10.680  0.00  0.00     0.000 A 
HETATM   99  C   UNK N   1      18.464  19.069  10.765  0.00  0.00     0.001 A 
HETATM  100  C   UNK N   1      19.473  18.883   9.821  0.00  0.00     0.007 A 
ENDBRANCH  94  95
ENDBRANCH   1  94
BRANCH   1 101
HETATM  101  C   UNK N   1      20.122  16.155   5.745  0.00  0.00     0.241 C 
HETATM  102  O   UNK N   1      19.198  15.411   5.464  0.00  0.00    -0.271 OA
HETATM  103  N   UNK N   1      20.851  16.692   4.729  0.00  0.00    -0.346 N 
HETATM  104  H   UNK N   1      20.768  16.266   3.847  0.00  0.00     0.163 HD
BRANCH 103 105
HETATM  105  C   UNK N   1      21.739  17.831   4.827  0.00  0.00     0.177 C 
BRANCH 105 106
HETATM  106  C   UNK N   1      21.110  19.209   4.535  0.00  0.00     0.045 C 
BRANCH 106 107
HETATM  107  C   UNK N   1      20.703  19.388   3.069  0.00  0.00     0.112 C 
BRANCH 107 108
HETATM  108  C   UNK N   1      21.364  20.583   2.435  0.00  0.00     0.139 C 
HETATM  109  O   UNK N   1      20.818  21.183   1.525  0.00  0.00    -0.650 OA
BRANCH 108 110
HETATM  110  O   UNK N   1      22.575  20.986   2.858  0.00  0.00    -0.776 OA
HETATM  111  H   UNK N   1      23.287  20.646   3.364  0.00  0.00     0.167 HD
ENDBRANCH 108 110
ENDBRANCH 107 108
ENDBRANCH 106 107
ENDBRANCH 105 106
BRANCH 105 112
HETATM  112  C   UNK N   1      22.956  17.480   4.034  0.00  0.00     0.241 C 
HETATM  113  O   UNK N   1      23.759  18.370   3.782  0.00  0.00    -0.271 OA
HETATM  114  N   UNK N   1      23.133  16.223   3.543  0.00  0.00    -0.346 N 
HETATM  115  H   UNK N   1      22.485  15.529   3.802  0.00  0.00     0.163 HD
BRANCH 114 116
HETATM  116  C   UNK N   1      24.219  15.850   2.665  0.00  0.00     0.177 C 
BRANCH 116 117
HETATM  117  C   UNK N   1      23.733  14.779   1.691  0.00  0.00     0.045 C 
BRANCH 117 118
HETATM  118  C   UNK N   1      23.143  13.541   2.374  0.00  0.00     0.112 C 
BRANCH 118 119
HETATM  119  C   UNK N   1      21.705  13.410   2.794  0.00  0.00     0.139 C 
HETATM  120  O   UNK N   1      21.252  12.305   3.038  0.00  0.00    -0.650 OA
BRANCH 119 121
HETATM  121  O   UNK N   1      20.876  14.467   2.759  0.00  0.00    -0.776 OA
HETATM  122  H   UNK N   1      20.056  14.457   2.305  0.00  0.00     0.167 HD
ENDBRANCH 119 121
ENDBRANCH 118 119
ENDBRANCH 117 118
ENDBRANCH 116 117
BRANCH 116 123
HETATM  123  C   UNK N   1      25.380  15.317   3.472  0.00  0.00     0.241 C 
HETATM  124  O   UNK N   1      25.223  15.059   4.655  0.00  0.00    -0.271 OA
HETATM  125  N   UNK N   1      26.583  15.103   2.889  0.00  0.00    -0.346 N 
HETATM  126  H   UNK N   1      26.690  15.334   1.937  0.00  0.00     0.163 HD
BRANCH 125 127
HETATM  127  C   UNK N   1      27.731  14.545   3.600  0.00  0.00     0.180 C 
BRANCH 127 128
HETATM  128  C   UNK N   1      28.123  13.122   3.116  0.00  0.00     0.013 C 
HETATM  129  C   UNK N   1      28.400  13.009   1.625  0.00  0.00     0.012 C 
BRANCH 128 130
HETATM  130  C   UNK N   1      27.070  12.090   3.481  0.00  0.00     0.002 C 
HETATM  131  C   UNK N   1      26.945  11.960   4.986  0.00  0.00     0.005 C 
ENDBRANCH 128 130
ENDBRANCH 127 128
BRANCH 127 132
HETATM  132  C   UNK N   1      28.798  15.623   3.900  0.00  0.00     0.243 C 
HETATM  133  O   UNK N   1      29.545  15.919   2.988  0.00  0.00    -0.271 OA
HETATM  134  N   UNK N   1      28.911  16.287   5.106  0.00  0.00    -0.337 N 
HETATM  135  C   UNK N   1      28.055  16.082   6.228  0.00  0.00     0.127 C 
HETATM  136  C   UNK N   1      29.905  17.329   5.318  0.00  0.00     0.179 C 
HETATM  137  C   UNK N   1      28.606  16.968   7.330  0.00  0.00     0.022 C 
HETATM  138  C   UNK N   1      29.531  17.964   6.644  0.00  0.00     0.037 C 
BRANCH 136 139
HETATM  139  C   UNK N   1      31.287  16.751   5.382  0.00  0.00     0.241 C 
HETATM  140  O   UNK N   1      32.196  17.326   4.799  0.00  0.00    -0.271 OA
HETATM  141  N   UNK N   1      31.501  15.556   6.005  0.00  0.00    -0.346 N 
HETATM  142  H   UNK N   1      30.778  15.198   6.569  0.00  0.00     0.163 HD
BRANCH 141 143
HETATM  143  C   UNK N   1      32.725  14.773   5.892  0.00  0.00     0.177 C 
BRANCH 143 144
HETATM  144  C   UNK N   1      32.913  14.159   4.499  0.00  0.00     0.045 C 
BRANCH 144 145
HETATM  145  C   UNK N   1      34.267  14.443   3.864  0.00  0.00     0.112 C 
BRANCH 145 146
HETATM  146  C   UNK N   1      34.076  15.036   2.510  0.00  0.00     0.139 C 
HETATM  147  O   UNK N   1      34.592  14.514   1.536  0.00  0.00    -0.650 OA
BRANCH 146 148
HETATM  148  O   UNK N   1      33.344  16.156   2.363  0.00  0.00    -0.776 OA
HETATM  149  H   UNK N   1      32.442  16.182   2.615  0.00  0.00     0.167 HD
ENDBRANCH 146 148
ENDBRANCH 145 146
ENDBRANCH 144 145
ENDBRANCH 143 144
BRANCH 143 150
HETATM  150  C   UNK N   1      32.818  13.810   7.059  0.00  0.00     0.241 C 
HETATM  151  O   UNK N   1      32.293  12.712   6.959  0.00  0.00    -0.271 OA
HETATM  152  N   UNK N   1      33.419  14.107   8.231  0.00  0.00    -0.346 N 
HETATM  153  H   UNK N   1      33.384  13.394   8.909  0.00  0.00     0.163 HD
BRANCH 152 154
HETATM  154  C   UNK N   1      34.100  15.300   8.637  0.00  0.00     0.177 C 
BRANCH 154 155
HETATM  155  C   UNK N   1      33.042  16.327   9.132  0.00  0.00     0.045 C 
BRANCH 155 156
HETATM  156  C   UNK N   1      32.984  17.712   8.425  0.00  0.00     0.112 C 
BRANCH 156 157
HETATM  157  C   UNK N   1      34.243  18.209   7.761  0.00  0.00     0.139 C 
HETATM  158  O   UNK N   1      34.976  18.982   8.358  0.00  0.00    -0.650 OA
BRANCH 157 159
HETATM  159  O   UNK N   1      34.537  17.871   6.492  0.00  0.00    -0.776 OA
HETATM  160  H   UNK N   1      34.379  17.580   5.616  0.00  0.00     0.167 HD
ENDBRANCH 157 159
ENDBRANCH 156 157
ENDBRANCH 155 156
ENDBRANCH 154 155
BRANCH 154 161
HETATM  161  C   UNK N   1      34.985  14.914   9.780  0.00  0.00     0.241 C 
HETATM  162  O   UNK N   1      35.545  15.783  10.428  0.00  0.00    -0.271 OA
HETATM  163  N   UNK N   1      35.008  13.605  10.169  0.00  0.00    -0.346 N 
HETATM  164  H   UNK N   1      34.612  12.956   9.545  0.00  0.00     0.163 HD
BRANCH 163 165
HETATM  165  C   UNK N   1      35.552  13.072  11.394  0.00  0.00     0.180 C 
BRANCH 165 166
HETATM  166  C   UNK N   1      34.505  12.377  12.268  0.00  0.00     0.073 C 
BRANCH 166 167
HETATM  167  C   UNK N   1      34.971  12.044  13.635  0.00  0.00    -0.056 A 
HETATM  168  C   UNK N   1      34.750  10.764  14.149  0.00  0.00     0.010 A 
HETATM  169  C   UNK N   1      35.166  10.450  15.440  0.00  0.00     0.037 A 
HETATM  170  C   UNK N   1      35.809  11.410  16.220  0.00  0.00     0.065 A 
HETATM  171  C   UNK N   1      36.052  12.687  15.702  0.00  0.00     0.037 A 
HETATM  172  C   UNK N   1      35.638  13.003  14.405  0.00  0.00     0.010 A 
BRANCH 170 173
HETATM  173  O   UNK N   1      36.198  11.105  17.466  0.00  0.00    -0.361 OA
HETATM  174  H   UNK N   1      36.775  10.519  17.914  0.00  0.00     0.217 HD
ENDBRANCH 170 173
ENDBRANCH 166 167
ENDBRANCH 165 166
BRANCH 165 175
HETATM  175  C   UNK N   1      36.895  12.415  11.163  0.00  0.00     0.241 C 
HETATM  176  O   UNK N   1      37.890  12.933  11.641  0.00  0.00    -0.271 OA
HETATM  177  N   UNK N   1      36.988  11.329  10.344  0.00  0.00    -0.345 N 
HETATM  178  H   UNK N   1      36.129  10.960  10.037  0.00  0.00     0.163 HD
BRANCH 177 179
HETATM  179  C   UNK N   1      38.173  10.634   9.853  0.00  0.00     0.182 C 
BRANCH 179 180
HETATM  180  C   UNK N   1      38.187  10.567   8.323  0.00  0.00     0.040 C 
BRANCH 180 181
HETATM  181  C   UNK N   1      38.752  11.800   7.633  0.00  0.00    -0.020 C 
HETATM  182  C   UNK N   1      37.621  12.742   7.270  0.00  0.00     0.009 C 
HETATM  183  C   UNK N   1      39.424  11.374   6.346  0.00  0.00     0.009 C 
ENDBRANCH 180 181
ENDBRANCH 179 180
BRANCH 179 184
HETATM  184  C   UNK N   1      38.588   9.366  10.555  0.00  0.00     0.163 C 
HETATM  185  O   UNK N   1      38.026   8.996  11.575  0.00  0.00    -0.648 OA
BRANCH 184 186
HETATM  186  O   UNK N   1      39.561   8.605  10.022  0.00  0.00    -0.775 OA
HETATM  187  H   UNK N   1      39.511   7.697   9.798  0.00  0.00     0.167 HD
ENDBRANCH 184 186
ENDBRANCH 179 184
ENDBRANCH 177 179
ENDBRANCH 165 175
ENDBRANCH 163 165
ENDBRANCH 154 161
ENDBRANCH 152 154
ENDBRANCH 143 150
ENDBRANCH 141 143
ENDBRANCH 136 139
ENDBRANCH 127 132
ENDBRANCH 125 127
ENDBRANCH 116 123
ENDBRANCH 114 116
ENDBRANCH 105 112
ENDBRANCH 103 105
ENDBRANCH   1 101
TORSDOF 74
ENDMDL
MODEL 8
REMARK VINA RESULT:      -6.4      3.013      8.621
REMARK WARNING: 32 MAX_TORS EXCEEDED!!!
REMARK  74 active torsions:
REMARK  status: ('A' for Active; 'I' for Inactive)
REMARK       I    between atoms: C_3  and  N_4 
REMARK       I    between atoms: C_3  and  N_5 
REMARK    1  A    between atoms: N_5  and  C_6 
REMARK    2  A    between atoms: C_6  and  C_7 
REMARK    3  A    between atoms: C_7  and  C_8 
REMARK    4  A    between atoms: C_8  and  C_9 
REMARK    5  A    between atoms: C_9  and  N_10 
REMARK    6  A    between atoms: C_9  and  C_29 
REMARK       I    between atoms: N_10  and  C_11 
REMARK    7  A    between atoms: C_13  and  C_11 
REMARK       I    between atoms: N_17  and  C_18 
REMARK    8  A    between atoms: C_18  and  C_20 
REMARK    9  A    between atoms: C_20  and  N_21 
REMARK   10  A    between atoms: C_20  and  C_22 
REMARK   11  A    between atoms: C_22  and  C_23 
REMARK       I    between atoms: C_29  and  N_31 
REMARK   12  A    between atoms: C_35  and  C_36 
REMARK       I    between atoms: C_36  and  N_38 
REMARK   13  A    between atoms: N_38  and  C_39 
REMARK   14  A    between atoms: C_39  and  C_40 
REMARK       I    between atoms: C_40  and  N_42 
REMARK   15  A    between atoms: N_42  and  C_43 
REMARK   16  A    between atoms: C_43  and  C_44 
REMARK       I    between atoms: C_44  and  N_46 
REMARK   17  A    between atoms: N_46  and  C_47 
REMARK   18  A    between atoms: C_47  and  C_48 
REMARK       I    between atoms: C_48  and  N_50 
REMARK   19  A    between atoms: N_50  and  C_51 
REMARK   20  A    between atoms: C_51  and  C_52 
REMARK       I    between atoms: C_52  and  N_54 
REMARK   21  A    between atoms: C_55  and  N_54 
REMARK   22  A    between atoms: C_55  and  C_56 
REMARK   23  A    between atoms: C_55  and  C_60 
REMARK   24  A    between atoms: C_56  and  C_57 
REMARK       I    between atoms: C_57  and  N_58 
REMARK       I    between atoms: C_60  and  N_62 
REMARK   25  A    between atoms: N_62  and  C_63 
REMARK   26  A    between atoms: C_63  and  C_64 
REMARK       I    between atoms: C_64  and  N_66 
REMARK   27  A    between atoms: C_67  and  N_66 
REMARK   28  A    between atoms: C_67  and  C_68 
REMARK   29  A    between atoms: C_67  and  C_72 
REMARK   30  A    between atoms: C_68  and  C_69 
REMARK   31  A    between atoms: C_69  and  O_70 
REMARK       I    between atoms: C_72  and  N_74 
REMARK   32  A    between atoms: C_75  and  N_74 
REMARK   33  A    between atoms: C_75  and  C_76 
REMARK   34  A    between atoms: C_75  and  C_83 
REMARK   35  A    between atoms: C_76  and  C_77 
REMARK       I    between atoms: C_83  and  N_85 
REMARK   36  A    between atoms: C_86  and  N_85 
REMARK   37  A    between atoms: C_86  and  C_87 
REMARK   38  A    between atoms: C_86  and  C_92 
REMARK   39  A    between atoms: C_87  and  C_88 
REMARK   40  A    between atoms: C_88  and  C_89 
REMARK   41  A    between atoms: C_89  and  O_90 
REMARK       I    between atoms: C_92  and  N_94 
REMARK   42  A    between atoms: C_95  and  N_94 
REMARK   43  A    between atoms: C_95  and  C_96 
REMARK   44  A    between atoms: C_95  and  C_101 
REMARK   45  A    between atoms: C_96  and  C_97 
REMARK   46  A    between atoms: C_97  and  C_98 
REMARK   47  A    between atoms: C_98  and  O_99 
REMARK       I    between atoms: C_101  and  N_103 
REMARK   48  A    between atoms: C_104  and  N_103 
REMARK   49  A    between atoms: C_104  and  C_105 
REMARK   50  A    between atoms: C_104  and  C_109 
REMARK   51  A    between atoms: C_105  and  C_107 
REMARK       I    between atoms: C_109  and  N_111 
REMARK   52  A    between atoms: C_115  and  C_116 
REMARK       I    between atoms: C_116  and  N_118 
REMARK   53  A    between atoms: C_119  and  N_118 
REMARK   54  A    between atoms: C_119  and  C_120 
REMARK   55  A    between atoms: C_119  and  C_125 
REMARK   56  A    between atoms: C_120  and  C_121 
REMARK   57  A    between atoms: C_121  and  C_122 
REMARK   58  A    between atoms: C_122  and  O_123 
REMARK       I    between atoms: C_125  and  N_127 
REMARK   59  A    between atoms: C_128  and  N_127 
REMARK   60  A    between atoms: C_128  and  C_129 
REMARK   61  A    between atoms: C_128  and  C_134 
REMARK   62  A    between atoms: C_129  and  C_130 
REMARK   63  A    between atoms: C_130  and  C_131 
REMARK   64  A    between atoms: C_131  and  O_132 
REMARK       I    between atoms: C_134  and  N_136 
REMARK   65  A    between atoms: C_137  and  N_136 
REMARK   66  A    between atoms: C_137  and  C_138 
REMARK   67  A    between atoms: C_137  and  C_146 
REMARK   68  A    between atoms: C_138  and  C_139 
REMARK   69  A    between atoms: C_142  and  O_143 
REMARK       I    between atoms: C_146  and  N_148 
REMARK   70  A    between atoms: C_149  and  N_148 
REMARK   71  A    between atoms: C_149  and  C_150 
REMARK   72  A    between atoms: C_149  and  C_154 
REMARK   73  A    between atoms: C_150  and  C_151 
REMARK   74  A    between atoms: C_154  and  O_155 
ROOT
HETATM    1  C   UNK N   1      31.297  16.042   4.597  0.00  0.00     0.180 C 
ENDROOT
BRANCH   1   2
HETATM    2  N   UNK N   1      31.701  14.688   4.351  0.00  0.00    -0.346 N 
HETATM    3  C   UNK N   1      31.787  13.796   5.345  0.00  0.00     0.241 C 
HETATM    4  O   UNK N   1      30.855  13.039   5.553  0.00  0.00    -0.271 OA
HETATM    5  H   UNK N   1      31.921  14.410   3.432  0.00  0.00     0.163 HD
BRANCH   3   6
HETATM    6  C   UNK N   1      33.044  13.685   6.139  0.00  0.00     0.186 C 
BRANCH   6   7
HETATM    7  N   UNK N   1      33.006  14.515   7.330  0.00  0.00    -0.346 N 
HETATM    8  C   UNK N   1      32.916  14.078   8.614  0.00  0.00     0.236 C 
HETATM    9  O   UNK N   1      32.886  14.906   9.509  0.00  0.00    -0.272 OA
HETATM   10  H   UNK N   1      33.050  15.489   7.194  0.00  0.00     0.163 HD
BRANCH   8  11
HETATM   11  C   UNK N   1      32.854  12.618   9.007  0.00  0.00     0.225 C 
BRANCH  11  12
HETATM   12  N   UNK N   1      34.075  11.863   8.804  0.00  0.00    -0.351 N 
HETATM   13  C   UNK N   1      34.808  11.266   9.784  0.00  0.00     0.241 C 
HETATM   14  O   UNK N   1      35.766  10.582   9.470  0.00  0.00    -0.271 OA
HETATM   15  H   UNK N   1      34.401  11.774   7.879  0.00  0.00     0.163 HD
BRANCH  13  16
HETATM   16  C   UNK N   1      34.407  11.320  11.225  0.00  0.00     0.185 C 
BRANCH  16  17
HETATM   17  N   UNK N   1      35.458  12.026  11.884  0.00  0.00    -0.346 N 
HETATM   18  C   UNK N   1      35.440  13.330  12.173  0.00  0.00     0.236 C 
HETATM   19  O   UNK N   1      34.393  13.961  12.176  0.00  0.00    -0.272 OA
HETATM   20  H   UNK N   1      36.257  11.514  12.144  0.00  0.00     0.163 HD
BRANCH  18  21
HETATM   21  C   UNK N   1      36.755  14.034  12.108  0.00  0.00     0.225 C 
BRANCH  21  22
HETATM   22  N   UNK N   1      37.084  14.371  10.719  0.00  0.00    -0.351 N 
HETATM   23  C   UNK N   1      37.913  13.737   9.817  0.00  0.00     0.235 C 
HETATM   24  O   UNK N   1      38.072  14.256   8.727  0.00  0.00    -0.272 OA
HETATM   25  H   UNK N   1      36.641  15.180  10.375  0.00  0.00     0.163 HD
BRANCH  23  26
HETATM   26  C   UNK N   1      38.670  12.438  10.048  0.00  0.00     0.225 C 
BRANCH  26  27
HETATM   27  N   UNK N   1      39.859  12.276   9.268  0.00  0.00    -0.351 N 
HETATM   28  C   UNK N   1      40.224  11.093   8.736  0.00  0.00     0.235 C 
HETATM   29  O   UNK N   1      41.310  11.012   8.189  0.00  0.00    -0.272 OA
HETATM   30  H   UNK N   1      40.433  13.060   9.114  0.00  0.00     0.163 HD
BRANCH  28  31
HETATM   31  C   UNK N   1      39.377   9.850   8.899  0.00  0.00     0.225 C 
BRANCH  31  32
HETATM   32  N   UNK N   1      39.589   9.074   7.717  0.00  0.00    -0.351 N 
HETATM   33  C   UNK N   1      38.557   8.510   7.072  0.00  0.00     0.235 C 
HETATM   34  O   UNK N   1      37.500   8.298   7.648  0.00  0.00    -0.272 OA
HETATM   35  H   UNK N   1      40.503   8.954   7.372  0.00  0.00     0.163 HD
BRANCH  33  36
HETATM   36  C   UNK N   1      38.559   8.668   5.610  0.00  0.00     0.225 C 
BRANCH  36  37
HETATM   37  N   UNK N   1      37.557   9.686   5.368  0.00  0.00    -0.351 N 
HETATM   38  C   UNK N   1      36.824   9.757   4.233  0.00  0.00     0.241 C 
HETATM   39  O   UNK N   1      36.898   8.872   3.389  0.00  0.00    -0.271 OA
HETATM   40  H   UNK N   1      37.402  10.362   6.067  0.00  0.00     0.163 HD
BRANCH  38  41
HETATM   41  C   UNK N   1      35.932  10.956   4.008  0.00  0.00     0.179 C 
HETATM   42  C   UNK N   1      36.086  11.531   2.608  0.00  0.00     0.037 C 
HETATM   43  C   UNK N   1      34.994  10.873   1.773  0.00  0.00     0.022 C 
HETATM   44  C   UNK N   1      33.936  10.430   2.771  0.00  0.00     0.127 C 
HETATM   45  N   UNK N   1      34.571  10.534   4.057  0.00  0.00    -0.337 N 
HETATM   46  C   UNK N   1      33.943  10.285   5.242  0.00  0.00     0.243 C 
HETATM   47  O   UNK N   1      34.535  10.473   6.296  0.00  0.00    -0.271 OA
BRANCH  46  48
HETATM   48  C   UNK N   1      32.545   9.761   5.300  0.00  0.00     0.176 C 
BRANCH  48  49
HETATM   49  C   UNK N   1      32.516   8.245   5.062  0.00  0.00     0.036 C 
BRANCH  49  50
HETATM   50  C   UNK N   1      31.459   7.831   4.041  0.00  0.00     0.023 C 
BRANCH  50  51
HETATM   51  C   UNK N   1      30.693   9.037   3.512  0.00  0.00     0.138 C 
BRANCH  51  52
HETATM   52  N   UNK N   1      29.273   8.896   3.744  0.00  0.00    -0.227 N 
HETATM   53  C   UNK N   1      28.529   9.907   4.410  0.00  0.00     0.665 C 
HETATM   54  N   UNK N   1      29.116  10.947   4.879  0.00  0.00    -0.235 N 
HETATM   55  N   UNK N   1      27.134   9.758   4.577  0.00  0.00    -0.235 N 
HETATM   56  H   UNK N   1      29.891  11.554   4.876  0.00  0.00     0.174 HD
ATOM     57  HN  UNK N   1      28.482  11.318   5.586  1.00  0.00     0.174 HD
HETATM   58  H   UNK N   1      26.645   9.597   5.416  0.00  0.00     0.174 HD
HETATM   59  H   UNK N   1      26.589   9.823   3.760  0.00  0.00     0.174 HD
HETATM   60  H   UNK N   1      28.812   8.082   3.435  0.00  0.00     0.177 HD
ENDBRANCH  51  52
ENDBRANCH  50  51
ENDBRANCH  49  50
ENDBRANCH  48  49
BRANCH  48  61
HETATM   61  N   UNK N   1      31.964  10.108   6.572  0.00  0.00    -0.346 N 
HETATM   62  C   UNK N   1      31.998   9.268   7.632  0.00  0.00     0.241 C 
HETATM   63  O   UNK N   1      31.606   9.675   8.717  0.00  0.00    -0.271 OA
HETATM   64  H   UNK N   1      31.528  10.986   6.673  0.00  0.00     0.163 HD
BRANCH  62  65
HETATM   65  C   UNK N   1      32.491   7.835   7.499  0.00  0.00     0.179 C 
HETATM   66  C   UNK N   1      33.930   7.750   7.985  0.00  0.00     0.037 C 
HETATM   67  C   UNK N   1      33.878   7.232   9.428  0.00  0.00     0.022 C 
HETATM   68  C   UNK N   1      32.419   6.931   9.727  0.00  0.00     0.127 C 
HETATM   69  N   UNK N   1      31.779   7.027   8.450  0.00  0.00    -0.337 N 
HETATM   70  C   UNK N   1      30.702   6.259   8.151  0.00  0.00     0.243 C 
HETATM   71  O   UNK N   1      30.142   5.636   9.042  0.00  0.00    -0.271 OA
BRANCH  70  72
HETATM   72  C   UNK N   1      30.194   6.135   6.737  0.00  0.00     0.171 C 
BRANCH  72  73
HETATM   73  N   UNK N   1      28.837   6.630   6.664  0.00  0.00    -0.418 N 
HETATM   74  H   UNK N   1      28.446   7.478   7.074  0.00  0.00     0.150 HD
HETATM   75  H   UNK N   1      28.184   6.054   6.132  0.00  0.00     0.150 HD
ENDBRANCH  72  73
BRANCH  72  76
HETATM   76  C   UNK N   1      30.267   4.678   6.234  0.00  0.00     0.072 C 
BRANCH  76  77
HETATM   77  C   UNK N   1      31.657   4.114   6.299  0.00  0.00    -0.056 A 
HETATM   78  C   UNK N   1      32.663   4.679   5.505  0.00  0.00     0.007 A 
HETATM   79  C   UNK N   1      33.987   4.254   5.643  0.00  0.00     0.001 A 
HETATM   80  C   UNK N   1      34.308   3.260   6.570  0.00  0.00     0.000 A 
HETATM   81  C   UNK N   1      33.305   2.682   7.354  0.00  0.00     0.001 A 
HETATM   82  C   UNK N   1      31.981   3.114   7.226  0.00  0.00     0.007 A 
ENDBRANCH  76  77
ENDBRANCH  72  76
ENDBRANCH  70  72
ENDBRANCH  62  65
ENDBRANCH  48  61
ENDBRANCH  46  48
ENDBRANCH  38  41
ENDBRANCH  36  37
ENDBRANCH  33  36
ENDBRANCH  31  32
ENDBRANCH  28  31
ENDBRANCH  26  27
ENDBRANCH  23  26
ENDBRANCH  21  22
ENDBRANCH  18  21
ENDBRANCH  16  17
BRANCH  16  83
HETATM   83  C   UNK N   1      34.023   9.988  11.858  0.00  0.00     0.137 C 
BRANCH  83  84
HETATM   84  C   UNK N   1      35.063   9.577  12.865  0.00  0.00     0.217 C 
HETATM   85  N   UNK N   1      34.787   9.652  14.180  0.00  0.00    -0.370 N 
HETATM   86  H   UNK N   1      34.063   9.111  14.570  0.00  0.00     0.159 HD
HETATM   87  H   UNK N   1      35.314  10.251  14.756  0.00  0.00     0.159 HD
HETATM   88  O   UNK N   1      36.155   9.171  12.501  0.00  0.00    -0.274 OA
ENDBRANCH  83  84
ENDBRANCH  16  83
ENDBRANCH  13  16
ENDBRANCH  11  12
ENDBRANCH   8  11
ENDBRANCH   6   7
BRANCH   6  89
HETATM   89  C   UNK N   1      34.237  14.039   5.238  0.00  0.00     0.144 C 
BRANCH  89  90
HETATM   90  C   UNK N   1      35.570  14.121   5.927  0.00  0.00     0.141 C 
HETATM   91  O   UNK N   1      36.350  15.023   5.673  0.00  0.00    -0.650 OA
BRANCH  90  92
HETATM   92  O   UNK N   1      35.904  13.192   6.839  0.00  0.00    -0.776 OA
HETATM   93  H   UNK N   1      36.326  12.400   6.569  0.00  0.00     0.167 HD
ENDBRANCH  90  92
ENDBRANCH  89  90
ENDBRANCH   6  89
ENDBRANCH   3   6
ENDBRANCH   1   2
BRANCH   1  94
HETATM   94  C   UNK N   1      32.529  16.959   4.724  0.00  0.00     0.073 C 
BRANCH  94  95
HETATM   95  C   UNK N   1      32.824  17.388   6.146  0.00  0.00    -0.056 A 
HETATM   96  C   UNK N   1      34.142  17.586   6.567  0.00  0.00     0.007 A 
HETATM   97  C   UNK N   1      34.403  18.000   7.881  0.00  0.00     0.001 A 
HETATM   98  C   UNK N   1      33.351  18.216   8.778  0.00  0.00     0.000 A 
HETATM   99  C   UNK N   1      32.035  18.008   8.370  0.00  0.00     0.001 A 
HETATM  100  C   UNK N   1      31.778  17.593   7.064  0.00  0.00     0.007 A 
ENDBRANCH  94  95
ENDBRANCH   1  94
BRANCH   1 101
HETATM  101  C   UNK N   1      30.303  16.401   3.508  0.00  0.00     0.241 C 
HETATM  102  O   UNK N   1      30.722  16.565   2.376  0.00  0.00    -0.271 OA
HETATM  103  N   UNK N   1      29.000  16.697   3.765  0.00  0.00    -0.346 N 
HETATM  104  H   UNK N   1      28.532  17.259   3.107  0.00  0.00     0.163 HD
BRANCH 103 105
HETATM  105  C   UNK N   1      28.238  16.263   4.917  0.00  0.00     0.177 C 
BRANCH 105 106
HETATM  106  C   UNK N   1      28.850  16.580   6.295  0.00  0.00     0.045 C 
BRANCH 106 107
HETATM  107  C   UNK N   1      27.808  16.656   7.416  0.00  0.00     0.112 C 
BRANCH 107 108
HETATM  108  C   UNK N   1      28.321  17.392   8.624  0.00  0.00     0.139 C 
HETATM  109  O   UNK N   1      29.208  16.915   9.310  0.00  0.00    -0.650 OA
BRANCH 108 110
HETATM  110  O   UNK N   1      27.788  18.579   8.966  0.00  0.00    -0.776 OA
HETATM  111  H   UNK N   1      28.045  19.480   8.987  0.00  0.00     0.167 HD
ENDBRANCH 108 110
ENDBRANCH 107 108
ENDBRANCH 106 107
ENDBRANCH 105 106
BRANCH 105 112
HETATM  112  C   UNK N   1      27.881  14.833   4.665  0.00  0.00     0.241 C 
HETATM  113  O   UNK N   1      28.320  13.984   5.432  0.00  0.00    -0.271 OA
HETATM  114  N   UNK N   1      27.152  14.475   3.574  0.00  0.00    -0.346 N 
HETATM  115  H   UNK N   1      26.787  15.190   3.005  0.00  0.00     0.163 HD
BRANCH 114 116
HETATM  116  C   UNK N   1      26.882  13.104   3.203  0.00  0.00     0.177 C 
BRANCH 116 117
HETATM  117  C   UNK N   1      27.385  12.858   1.782  0.00  0.00     0.045 C 
BRANCH 117 118
HETATM  118  C   UNK N   1      28.859  13.222   1.574  0.00  0.00     0.112 C 
BRANCH 118 119
HETATM  119  C   UNK N   1      29.992  12.236   1.629  0.00  0.00     0.139 C 
HETATM  120  O   UNK N   1      29.977  11.266   0.892  0.00  0.00    -0.650 OA
BRANCH 119 121
HETATM  121  O   UNK N   1      30.940  12.325   2.578  0.00  0.00    -0.776 OA
HETATM  122  H   UNK N   1      31.820  12.590   2.396  0.00  0.00     0.167 HD
ENDBRANCH 119 121
ENDBRANCH 118 119
ENDBRANCH 117 118
ENDBRANCH 116 117
BRANCH 116 123
HETATM  123  C   UNK N   1      25.399  12.830   3.274  0.00  0.00     0.241 C 
HETATM  124  O   UNK N   1      24.673  13.593   3.892  0.00  0.00    -0.271 OA
HETATM  125  N   UNK N   1      24.865  11.759   2.639  0.00  0.00    -0.346 N 
HETATM  126  H   UNK N   1      25.472  11.148   2.161  0.00  0.00     0.163 HD
BRANCH 125 127
HETATM  127  C   UNK N   1      23.433  11.463   2.629  0.00  0.00     0.180 C 
BRANCH 127 128
HETATM  128  C   UNK N   1      22.948  10.818   1.302  0.00  0.00     0.013 C 
HETATM  129  C   UNK N   1      24.048  10.197   0.454  0.00  0.00     0.012 C 
BRANCH 128 130
HETATM  130  C   UNK N   1      22.186  11.808   0.437  0.00  0.00     0.002 C 
HETATM  131  C   UNK N   1      21.755  13.011   1.252  0.00  0.00     0.005 C 
ENDBRANCH 128 130
ENDBRANCH 127 128
BRANCH 127 132
HETATM  132  C   UNK N   1      22.944  10.957   4.005  0.00  0.00     0.243 C 
HETATM  133  O   UNK N   1      22.289  11.735   4.671  0.00  0.00    -0.271 OA
HETATM  134  N   UNK N   1      23.167   9.681   4.486  0.00  0.00    -0.337 N 
HETATM  135  C   UNK N   1      23.859   8.656   3.774  0.00  0.00     0.127 C 
HETATM  136  C   UNK N   1      22.642   9.243   5.770  0.00  0.00     0.179 C 
HETATM  137  C   UNK N   1      23.917   7.471   4.720  0.00  0.00     0.022 C 
HETATM  138  C   UNK N   1      22.879   7.745   5.799  0.00  0.00     0.037 C 
BRANCH 136 139
HETATM  139  C   UNK N   1      23.361   9.911   6.903  0.00  0.00     0.241 C 
HETATM  140  O   UNK N   1      24.186   9.271   7.540  0.00  0.00    -0.271 OA
HETATM  141  N   UNK N   1      23.027  11.182   7.271  0.00  0.00    -0.346 N 
HETATM  142  H   UNK N   1      22.460  11.702   6.657  0.00  0.00     0.163 HD
BRANCH 141 143
HETATM  143  C   UNK N   1      23.451  11.823   8.509  0.00  0.00     0.177 C 
BRANCH 143 144
HETATM  144  C   UNK N   1      22.417  11.688   9.634  0.00  0.00     0.045 C 
BRANCH 144 145
HETATM  145  C   UNK N   1      22.570  12.706  10.756  0.00  0.00     0.112 C 
BRANCH 145 146
HETATM  146  C   UNK N   1      23.535  12.197  11.771  0.00  0.00     0.139 C 
HETATM  147  O   UNK N   1      23.127  11.649  12.781  0.00  0.00    -0.650 OA
BRANCH 146 148
HETATM  148  O   UNK N   1      24.858  12.354  11.579  0.00  0.00    -0.776 OA
HETATM  149  H   UNK N   1      25.359  12.943  12.107  0.00  0.00     0.167 HD
ENDBRANCH 146 148
ENDBRANCH 145 146
ENDBRANCH 144 145
ENDBRANCH 143 144
BRANCH 143 150
HETATM  150  C   UNK N   1      23.928  13.231   8.213  0.00  0.00     0.241 C 
HETATM  151  O   UNK N   1      25.027  13.577   8.616  0.00  0.00    -0.271 OA
HETATM  152  N   UNK N   1      23.188  14.152   7.558  0.00  0.00    -0.346 N 
HETATM  153  H   UNK N   1      23.614  15.034   7.457  0.00  0.00     0.163 HD
BRANCH 152 154
HETATM  154  C   UNK N   1      21.879  14.040   6.987  0.00  0.00     0.177 C 
BRANCH 154 155
HETATM  155  C   UNK N   1      20.856  14.676   7.972  0.00  0.00     0.045 C 
BRANCH 155 156
HETATM  156  C   UNK N   1      20.986  16.196   8.279  0.00  0.00     0.112 C 
BRANCH 156 157
HETATM  157  C   UNK N   1      19.727  16.946   8.630  0.00  0.00     0.139 C 
HETATM  158  O   UNK N   1      19.799  18.105   9.007  0.00  0.00    -0.650 OA
BRANCH 157 159
HETATM  159  O   UNK N   1      18.527  16.337   8.606  0.00  0.00    -0.776 OA
HETATM  160  H   UNK N   1      17.615  16.231   8.423  0.00  0.00     0.167 HD
ENDBRANCH 157 159
ENDBRANCH 156 157
ENDBRANCH 155 156
ENDBRANCH 154 155
BRANCH 154 161
HETATM  161  C   UNK N   1      21.901  14.835   5.719  0.00  0.00     0.241 C 
HETATM  162  O   UNK N   1      20.978  14.733   4.929  0.00  0.00    -0.271 OA
HETATM  163  N   UNK N   1      22.877  15.777   5.562  0.00  0.00    -0.346 N 
HETATM  164  H   UNK N   1      23.633  15.734   6.189  0.00  0.00     0.163 HD
BRANCH 163 165
HETATM  165  C   UNK N   1      22.919  16.828   4.574  0.00  0.00     0.180 C 
BRANCH 165 166
HETATM  166  C   UNK N   1      21.789  17.850   4.730  0.00  0.00     0.073 C 
BRANCH 166 167
HETATM  167  C   UNK N   1      21.448  18.581   3.486  0.00  0.00    -0.056 A 
HETATM  168  C   UNK N   1      21.858  19.907   3.329  0.00  0.00     0.010 A 
HETATM  169  C   UNK N   1      21.524  20.607   2.173  0.00  0.00     0.037 A 
HETATM  170  C   UNK N   1      20.785  19.984   1.169  0.00  0.00     0.065 A 
HETATM  171  C   UNK N   1      20.390  18.650   1.313  0.00  0.00     0.037 A 
HETATM  172  C   UNK N   1      20.727  17.944   2.470  0.00  0.00     0.010 A 
BRANCH 170 173
HETATM  173  O   UNK N   1      20.456  20.668   0.063  0.00  0.00    -0.361 OA
HETATM  174  H   UNK N   1      20.472  21.543  -0.270  0.00  0.00     0.217 HD
ENDBRANCH 170 173
ENDBRANCH 166 167
ENDBRANCH 165 166
BRANCH 165 175
HETATM  175  C   UNK N   1      24.335  17.303   4.332  0.00  0.00     0.241 C 
HETATM  176  O   UNK N   1      25.083  16.599   3.675  0.00  0.00    -0.271 OA
HETATM  177  N   UNK N   1      24.782  18.441   4.933  0.00  0.00    -0.345 N 
HETATM  178  H   UNK N   1      24.095  18.961   5.410  0.00  0.00     0.163 HD
BRANCH 177 179
HETATM  179  C   UNK N   1      26.128  19.003   4.976  0.00  0.00     0.182 C 
BRANCH 179 180
HETATM  180  C   UNK N   1      26.407  19.679   6.322  0.00  0.00     0.040 C 
BRANCH 180 181
HETATM  181  C   UNK N   1      26.432  21.200   6.282  0.00  0.00    -0.020 C 
HETATM  182  C   UNK N   1      27.869  21.685   6.280  0.00  0.00     0.009 C 
HETATM  183  C   UNK N   1      25.772  21.732   7.535  0.00  0.00     0.009 C 
ENDBRANCH 180 181
ENDBRANCH 179 180
BRANCH 179 184
HETATM  184  C   UNK N   1      26.615  19.757   3.765  0.00  0.00     0.163 C 
HETATM  185  O   UNK N   1      25.850  20.423   3.085  0.00  0.00    -0.648 OA
BRANCH 184 186
HETATM  186  O   UNK N   1      27.925  19.733   3.457  0.00  0.00    -0.775 OA
HETATM  187  H   UNK N   1      28.635  20.051   3.977  0.00  0.00     0.167 HD
ENDBRANCH 184 186
ENDBRANCH 179 184
ENDBRANCH 177 179
ENDBRANCH 165 175
ENDBRANCH 163 165
ENDBRANCH 154 161
ENDBRANCH 152 154
ENDBRANCH 143 150
ENDBRANCH 141 143
ENDBRANCH 136 139
ENDBRANCH 127 132
ENDBRANCH 125 127
ENDBRANCH 116 123
ENDBRANCH 114 116
ENDBRANCH 105 112
ENDBRANCH 103 105
ENDBRANCH   1 101
TORSDOF 74
ENDMDL
MODEL 9
REMARK VINA RESULT:      -6.4      7.016     13.133
REMARK WARNING: 32 MAX_TORS EXCEEDED!!!
REMARK  74 active torsions:
REMARK  status: ('A' for Active; 'I' for Inactive)
REMARK       I    between atoms: C_3  and  N_4 
REMARK       I    between atoms: C_3  and  N_5 
REMARK    1  A    between atoms: N_5  and  C_6 
REMARK    2  A    between atoms: C_6  and  C_7 
REMARK    3  A    between atoms: C_7  and  C_8 
REMARK    4  A    between atoms: C_8  and  C_9 
REMARK    5  A    between atoms: C_9  and  N_10 
REMARK    6  A    between atoms: C_9  and  C_29 
REMARK       I    between atoms: N_10  and  C_11 
REMARK    7  A    between atoms: C_13  and  C_11 
REMARK       I    between atoms: N_17  and  C_18 
REMARK    8  A    between atoms: C_18  and  C_20 
REMARK    9  A    between atoms: C_20  and  N_21 
REMARK   10  A    between atoms: C_20  and  C_22 
REMARK   11  A    between atoms: C_22  and  C_23 
REMARK       I    between atoms: C_29  and  N_31 
REMARK   12  A    between atoms: C_35  and  C_36 
REMARK       I    between atoms: C_36  and  N_38 
REMARK   13  A    between atoms: N_38  and  C_39 
REMARK   14  A    between atoms: C_39  and  C_40 
REMARK       I    between atoms: C_40  and  N_42 
REMARK   15  A    between atoms: N_42  and  C_43 
REMARK   16  A    between atoms: C_43  and  C_44 
REMARK       I    between atoms: C_44  and  N_46 
REMARK   17  A    between atoms: N_46  and  C_47 
REMARK   18  A    between atoms: C_47  and  C_48 
REMARK       I    between atoms: C_48  and  N_50 
REMARK   19  A    between atoms: N_50  and  C_51 
REMARK   20  A    between atoms: C_51  and  C_52 
REMARK       I    between atoms: C_52  and  N_54 
REMARK   21  A    between atoms: C_55  and  N_54 
REMARK   22  A    between atoms: C_55  and  C_56 
REMARK   23  A    between atoms: C_55  and  C_60 
REMARK   24  A    between atoms: C_56  and  C_57 
REMARK       I    between atoms: C_57  and  N_58 
REMARK       I    between atoms: C_60  and  N_62 
REMARK   25  A    between atoms: N_62  and  C_63 
REMARK   26  A    between atoms: C_63  and  C_64 
REMARK       I    between atoms: C_64  and  N_66 
REMARK   27  A    between atoms: C_67  and  N_66 
REMARK   28  A    between atoms: C_67  and  C_68 
REMARK   29  A    between atoms: C_67  and  C_72 
REMARK   30  A    between atoms: C_68  and  C_69 
REMARK   31  A    between atoms: C_69  and  O_70 
REMARK       I    between atoms: C_72  and  N_74 
REMARK   32  A    between atoms: C_75  and  N_74 
REMARK   33  A    between atoms: C_75  and  C_76 
REMARK   34  A    between atoms: C_75  and  C_83 
REMARK   35  A    between atoms: C_76  and  C_77 
REMARK       I    between atoms: C_83  and  N_85 
REMARK   36  A    between atoms: C_86  and  N_85 
REMARK   37  A    between atoms: C_86  and  C_87 
REMARK   38  A    between atoms: C_86  and  C_92 
REMARK   39  A    between atoms: C_87  and  C_88 
REMARK   40  A    between atoms: C_88  and  C_89 
REMARK   41  A    between atoms: C_89  and  O_90 
REMARK       I    between atoms: C_92  and  N_94 
REMARK   42  A    between atoms: C_95  and  N_94 
REMARK   43  A    between atoms: C_95  and  C_96 
REMARK   44  A    between atoms: C_95  and  C_101 
REMARK   45  A    between atoms: C_96  and  C_97 
REMARK   46  A    between atoms: C_97  and  C_98 
REMARK   47  A    between atoms: C_98  and  O_99 
REMARK       I    between atoms: C_101  and  N_103 
REMARK   48  A    between atoms: C_104  and  N_103 
REMARK   49  A    between atoms: C_104  and  C_105 
REMARK   50  A    between atoms: C_104  and  C_109 
REMARK   51  A    between atoms: C_105  and  C_107 
REMARK       I    between atoms: C_109  and  N_111 
REMARK   52  A    between atoms: C_115  and  C_116 
REMARK       I    between atoms: C_116  and  N_118 
REMARK   53  A    between atoms: C_119  and  N_118 
REMARK   54  A    between atoms: C_119  and  C_120 
REMARK   55  A    between atoms: C_119  and  C_125 
REMARK   56  A    between atoms: C_120  and  C_121 
REMARK   57  A    between atoms: C_121  and  C_122 
REMARK   58  A    between atoms: C_122  and  O_123 
REMARK       I    between atoms: C_125  and  N_127 
REMARK   59  A    between atoms: C_128  and  N_127 
REMARK   60  A    between atoms: C_128  and  C_129 
REMARK   61  A    between atoms: C_128  and  C_134 
REMARK   62  A    between atoms: C_129  and  C_130 
REMARK   63  A    between atoms: C_130  and  C_131 
REMARK   64  A    between atoms: C_131  and  O_132 
REMARK       I    between atoms: C_134  and  N_136 
REMARK   65  A    between atoms: C_137  and  N_136 
REMARK   66  A    between atoms: C_137  and  C_138 
REMARK   67  A    between atoms: C_137  and  C_146 
REMARK   68  A    between atoms: C_138  and  C_139 
REMARK   69  A    between atoms: C_142  and  O_143 
REMARK       I    between atoms: C_146  and  N_148 
REMARK   70  A    between atoms: C_149  and  N_148 
REMARK   71  A    between atoms: C_149  and  C_150 
REMARK   72  A    between atoms: C_149  and  C_154 
REMARK   73  A    between atoms: C_150  and  C_151 
REMARK   74  A    between atoms: C_154  and  O_155 
ROOT
HETATM    1  C   UNK N   1      30.737  16.644   4.917  0.00  0.00     0.180 C 
ENDROOT
BRANCH   1   2
HETATM    2  N   UNK N   1      32.050  17.221   4.949  0.00  0.00    -0.346 N 
HETATM    3  C   UNK N   1      33.109  16.518   5.368  0.00  0.00     0.241 C 
HETATM    4  O   UNK N   1      33.825  15.968   4.549  0.00  0.00    -0.271 OA
HETATM    5  H   UNK N   1      32.173  18.153   4.656  0.00  0.00     0.163 HD
BRANCH   3   6
HETATM    6  C   UNK N   1      33.446  16.475   6.819  0.00  0.00     0.186 C 
BRANCH   6   7
HETATM    7  N   UNK N   1      32.528  15.631   7.563  0.00  0.00    -0.346 N 
HETATM    8  C   UNK N   1      32.858  14.544   8.309  0.00  0.00     0.236 C 
HETATM    9  O   UNK N   1      31.964  13.931   8.869  0.00  0.00    -0.272 OA
HETATM   10  H   UNK N   1      31.573  15.870   7.523  0.00  0.00     0.163 HD
BRANCH   8  11
HETATM   11  C   UNK N   1      34.274  14.044   8.493  0.00  0.00     0.225 C 
BRANCH  11  12
HETATM   12  N   UNK N   1      34.399  12.710   9.047  0.00  0.00    -0.351 N 
HETATM   13  C   UNK N   1      34.956  12.400  10.249  0.00  0.00     0.241 C 
HETATM   14  O   UNK N   1      34.916  11.247  10.640  0.00  0.00    -0.271 OA
HETATM   15  H   UNK N   1      34.050  11.964   8.506  0.00  0.00     0.163 HD
BRANCH  13  16
HETATM   16  C   UNK N   1      35.508  13.449  11.166  0.00  0.00     0.185 C 
BRANCH  16  17
HETATM   17  N   UNK N   1      36.906  13.499  10.883  0.00  0.00    -0.346 N 
HETATM   18  C   UNK N   1      37.529  14.514  10.279  0.00  0.00     0.236 C 
HETATM   19  O   UNK N   1      37.006  15.616  10.198  0.00  0.00    -0.272 OA
HETATM   20  H   UNK N   1      37.452  12.726  11.155  0.00  0.00     0.163 HD
BRANCH  18  21
HETATM   21  C   UNK N   1      38.678  14.147   9.400  0.00  0.00     0.225 C 
BRANCH  21  22
HETATM   22  N   UNK N   1      38.249  13.191   8.373  0.00  0.00    -0.351 N 
HETATM   23  C   UNK N   1      38.467  13.184   7.011  0.00  0.00     0.235 C 
HETATM   24  O   UNK N   1      37.945  12.300   6.355  0.00  0.00    -0.272 OA
HETATM   25  H   UNK N   1      37.721  12.432   8.711  0.00  0.00     0.163 HD
BRANCH  23  26
HETATM   26  C   UNK N   1      39.298  14.187   6.226  0.00  0.00     0.225 C 
BRANCH  26  27
HETATM   27  N   UNK N   1      40.707  14.139   6.469  0.00  0.00    -0.351 N 
HETATM   28  C   UNK N   1      41.615  14.085   5.475  0.00  0.00     0.235 C 
HETATM   29  O   UNK N   1      42.787  13.923   5.767  0.00  0.00    -0.272 OA
HETATM   30  H   UNK N   1      41.025  14.145   7.400  0.00  0.00     0.163 HD
BRANCH  28  31
HETATM   31  C   UNK N   1      41.205  14.107   4.019  0.00  0.00     0.225 C 
BRANCH  31  32
HETATM   32  N   UNK N   1      42.065  15.056   3.384  0.00  0.00    -0.351 N 
HETATM   33  C   UNK N   1      42.183  15.091   2.049  0.00  0.00     0.235 C 
HETATM   34  O   UNK N   1      41.900  14.114   1.370  0.00  0.00    -0.272 OA
HETATM   35  H   UNK N   1      42.576  15.693   3.934  0.00  0.00     0.163 HD
BRANCH  33  36
HETATM   36  C   UNK N   1      42.124  16.429   1.441  0.00  0.00     0.225 C 
BRANCH  36  37
HETATM   37  N   UNK N   1      43.376  17.043   1.830  0.00  0.00    -0.351 N 
HETATM   38  C   UNK N   1      43.454  18.167   2.580  0.00  0.00     0.241 C 
HETATM   39  O   UNK N   1      42.444  18.659   3.070  0.00  0.00    -0.271 OA
HETATM   40  H   UNK N   1      44.215  16.621   1.534  0.00  0.00     0.163 HD
BRANCH  38  41
HETATM   41  C   UNK N   1      44.800  18.823   2.785  0.00  0.00     0.179 C 
HETATM   42  C   UNK N   1      45.900  18.136   1.991  0.00  0.00     0.037 C 
HETATM   43  C   UNK N   1      46.002  18.908   0.681  0.00  0.00     0.022 C 
HETATM   44  C   UNK N   1      45.426  20.283   0.978  0.00  0.00     0.127 C 
HETATM   45  N   UNK N   1      44.759  20.141   2.245  0.00  0.00    -0.337 N 
HETATM   46  C   UNK N   1      44.153  21.168   2.909  0.00  0.00     0.243 C 
HETATM   47  O   UNK N   1      43.676  20.976   4.019  0.00  0.00    -0.271 OA
BRANCH  46  48
HETATM   48  C   UNK N   1      44.031  22.532   2.312  0.00  0.00     0.176 C 
BRANCH  48  49
HETATM   49  C   UNK N   1      42.669  23.157   2.644  0.00  0.00     0.036 C 
BRANCH  49  50
HETATM   50  C   UNK N   1      41.656  22.990   1.515  0.00  0.00     0.023 C 
BRANCH  50  51
HETATM   51  C   UNK N   1      40.695  21.841   1.794  0.00  0.00     0.138 C 
BRANCH  51  52
HETATM   52  N   UNK N   1      40.039  21.403   0.583  0.00  0.00    -0.227 N 
HETATM   53  C   UNK N   1      40.548  20.318  -0.181  0.00  0.00     0.665 C 
HETATM   54  N   UNK N   1      41.643  19.741   0.154  0.00  0.00    -0.235 N 
HETATM   55  N   UNK N   1      39.856  19.886  -1.334  0.00  0.00    -0.235 N 
HETATM   56  H   UNK N   1      42.314  19.535   0.845  0.00  0.00     0.174 HD
ATOM     57  HN  UNK N   1      41.974  19.277  -0.691  1.00  0.00     0.174 HD
HETATM   58  H   UNK N   1      40.137  19.979  -2.272  0.00  0.00     0.174 HD
HETATM   59  H   UNK N   1      38.992  19.439  -1.180  0.00  0.00     0.174 HD
HETATM   60  H   UNK N   1      39.224  21.865   0.281  0.00  0.00     0.177 HD
ENDBRANCH  51  52
ENDBRANCH  50  51
ENDBRANCH  49  50
ENDBRANCH  48  49
BRANCH  48  61
HETATM   61  N   UNK N   1      45.119  23.351   2.783  0.00  0.00    -0.346 N 
HETATM   62  C   UNK N   1      45.679  24.314   2.015  0.00  0.00     0.241 C 
HETATM   63  O   UNK N   1      46.506  25.060   2.519  0.00  0.00    -0.271 OA
HETATM   64  H   UNK N   1      45.465  23.206   3.693  0.00  0.00     0.163 HD
BRANCH  62  65
HETATM   65  C   UNK N   1      45.320  24.473   0.545  0.00  0.00     0.179 C 
HETATM   66  C   UNK N   1      44.316  25.604   0.392  0.00  0.00     0.037 C 
HETATM   67  C   UNK N   1      45.112  26.847  -0.026  0.00  0.00     0.022 C 
HETATM   68  C   UNK N   1      46.552  26.398  -0.204  0.00  0.00     0.127 C 
HETATM   69  N   UNK N   1      46.476  24.969  -0.147  0.00  0.00    -0.337 N 
HETATM   70  C   UNK N   1      47.338  24.197  -0.856  0.00  0.00     0.243 C 
HETATM   71  O   UNK N   1      48.316  24.712  -1.378  0.00  0.00    -0.271 OA
BRANCH  70  72
HETATM   72  C   UNK N   1      47.101  22.719  -1.036  0.00  0.00     0.171 C 
BRANCH  72  73
HETATM   73  N   UNK N   1      48.354  22.009  -0.906  0.00  0.00    -0.418 N 
HETATM   74  H   UNK N   1      49.233  22.173  -1.396  0.00  0.00     0.150 HD
HETATM   75  H   UNK N   1      48.359  21.240  -0.235  0.00  0.00     0.150 HD
ENDBRANCH  72  73
BRANCH  72  76
HETATM   76  C   UNK N   1      46.442  22.412  -2.397  0.00  0.00     0.072 C 
BRANCH  76  77
HETATM   77  C   UNK N   1      45.024  22.900  -2.475  0.00  0.00    -0.056 A 
HETATM   78  C   UNK N   1      44.732  24.037  -3.239  0.00  0.00     0.007 A 
HETATM   79  C   UNK N   1      43.405  24.434  -3.429  0.00  0.00     0.001 A 
HETATM   80  C   UNK N   1      42.368  23.698  -2.851  0.00  0.00     0.000 A 
HETATM   81  C   UNK N   1      42.655  22.571  -2.075  0.00  0.00     0.001 A 
HETATM   82  C   UNK N   1      43.981  22.166  -1.894  0.00  0.00     0.007 A 
ENDBRANCH  76  77
ENDBRANCH  72  76
ENDBRANCH  70  72
ENDBRANCH  62  65
ENDBRANCH  48  61
ENDBRANCH  46  48
ENDBRANCH  38  41
ENDBRANCH  36  37
ENDBRANCH  33  36
ENDBRANCH  31  32
ENDBRANCH  28  31
ENDBRANCH  26  27
ENDBRANCH  23  26
ENDBRANCH  21  22
ENDBRANCH  18  21
ENDBRANCH  16  17
BRANCH  16  83
HETATM   83  C   UNK N   1      35.147  13.300  12.638  0.00  0.00     0.137 C 
BRANCH  83  84
HETATM   84  C   UNK N   1      36.393  13.337  13.481  0.00  0.00     0.217 C 
HETATM   85  N   UNK N   1      36.769  14.487  14.069  0.00  0.00    -0.370 N 
HETATM   86  H   UNK N   1      36.192  14.917  14.741  0.00  0.00     0.159 HD
HETATM   87  H   UNK N   1      37.629  14.902  13.826  0.00  0.00     0.159 HD
HETATM   88  O   UNK N   1      37.066  12.330  13.641  0.00  0.00    -0.274 OA
ENDBRANCH  83  84
ENDBRANCH  16  83
ENDBRANCH  13  16
ENDBRANCH  11  12
ENDBRANCH   8  11
ENDBRANCH   6   7
BRANCH   6  89
HETATM   89  C   UNK N   1      33.471  17.910   7.369  0.00  0.00     0.144 C 
BRANCH  89  90
HETATM   90  C   UNK N   1      34.444  18.160   8.486  0.00  0.00     0.141 C 
HETATM   91  O   UNK N   1      34.462  17.442   9.471  0.00  0.00    -0.650 OA
BRANCH  90  92
HETATM   92  O   UNK N   1      35.309  19.185   8.396  0.00  0.00    -0.776 OA
HETATM   93  H   UNK N   1      36.107  19.085   7.916  0.00  0.00     0.167 HD
ENDBRANCH  90  92
ENDBRANCH  89  90
ENDBRANCH   6  89
ENDBRANCH   3   6
ENDBRANCH   1   2
BRANCH   1  94
HETATM   94  C   UNK N   1      29.677  17.694   5.303  0.00  0.00     0.073 C 
BRANCH  94  95
HETATM   95  C   UNK N   1      29.162  17.548   6.719  0.00  0.00    -0.056 A 
HETATM   96  C   UNK N   1      29.912  18.027   7.798  0.00  0.00     0.007 A 
HETATM   97  C   UNK N   1      29.419  17.902   9.104  0.00  0.00     0.001 A 
HETATM   98  C   UNK N   1      28.179  17.298   9.338  0.00  0.00     0.000 A 
HETATM   99  C   UNK N   1      27.431  16.806   8.270  0.00  0.00     0.001 A 
HETATM  100  C   UNK N   1      27.925  16.928   6.972  0.00  0.00     0.007 A 
ENDBRANCH  94  95
ENDBRANCH   1  94
BRANCH   1 101
HETATM  101  C   UNK N   1      30.579  16.002   3.552  0.00  0.00     0.241 C 
HETATM  102  O   UNK N   1      30.610  16.720   2.569  0.00  0.00    -0.271 OA
HETATM  103  N   UNK N   1      30.254  14.691   3.385  0.00  0.00    -0.346 N 
HETATM  104  H   UNK N   1      29.818  14.444   2.538  0.00  0.00     0.163 HD
BRANCH 103 105
HETATM  105  C   UNK N   1      30.489  13.626   4.337  0.00  0.00     0.177 C 
BRANCH 105 106
HETATM  106  C   UNK N   1      31.952  13.168   4.496  0.00  0.00     0.045 C 
BRANCH 106 107
HETATM  107  C   UNK N   1      32.134  11.656   4.325  0.00  0.00     0.112 C 
BRANCH 107 108
HETATM  108  C   UNK N   1      32.716  11.009   5.553  0.00  0.00     0.139 C 
HETATM  109  O   UNK N   1      33.276   9.929   5.477  0.00  0.00    -0.650 OA
BRANCH 108 110
HETATM  110  O   UNK N   1      32.604  11.611   6.750  0.00  0.00    -0.776 OA
HETATM  111  H   UNK N   1      33.031  12.291   7.233  0.00  0.00     0.167 HD
ENDBRANCH 108 110
ENDBRANCH 107 108
ENDBRANCH 106 107
ENDBRANCH 105 106
BRANCH 105 112
HETATM  112  C   UNK N   1      29.493  12.557   4.020  0.00  0.00     0.241 C 
HETATM  113  O   UNK N   1      29.121  11.826   4.930  0.00  0.00    -0.271 OA
HETATM  114  N   UNK N   1      29.067  12.353   2.745  0.00  0.00    -0.346 N 
HETATM  115  H   UNK N   1      29.360  12.987   2.051  0.00  0.00     0.163 HD
BRANCH 114 116
HETATM  116  C   UNK N   1      28.208  11.260   2.351  0.00  0.00     0.177 C 
BRANCH 116 117
HETATM  117  C   UNK N   1      28.660  10.728   0.992  0.00  0.00     0.045 C 
BRANCH 117 118
HETATM  118  C   UNK N   1      29.323  11.784   0.102  0.00  0.00     0.112 C 
BRANCH 118 119
HETATM  119  C   UNK N   1      30.759  11.739  -0.342  0.00  0.00     0.139 C 
HETATM  120  O   UNK N   1      31.607  11.310   0.421  0.00  0.00    -0.650 OA
BRANCH 119 121
HETATM  121  O   UNK N   1      31.141  12.302  -1.501  0.00  0.00    -0.776 OA
HETATM  122  H   UNK N   1      32.039  12.441  -1.728  0.00  0.00     0.167 HD
ENDBRANCH 119 121
ENDBRANCH 118 119
ENDBRANCH 117 118
ENDBRANCH 116 117
BRANCH 116 123
HETATM  123  C   UNK N   1      26.775  11.731   2.263  0.00  0.00     0.241 C 
HETATM  124  O   UNK N   1      26.529  12.926   2.311  0.00  0.00    -0.271 OA
HETATM  125  N   UNK N   1      25.765  10.842   2.106  0.00  0.00    -0.346 N 
HETATM  126  H   UNK N   1      25.986   9.882   2.086  0.00  0.00     0.163 HD
BRANCH 125 127
HETATM  127  C   UNK N   1      24.364  11.235   1.967  0.00  0.00     0.180 C 
BRANCH 127 128
HETATM  128  C   UNK N   1      23.752  10.851   0.592  0.00  0.00     0.013 C 
HETATM  129  C   UNK N   1      24.456   9.709  -0.125  0.00  0.00     0.012 C 
BRANCH 128 130
HETATM  130  C   UNK N   1      23.695  12.040  -0.354  0.00  0.00     0.002 C 
HETATM  131  C   UNK N   1      23.455  13.324   0.413  0.00  0.00     0.005 C 
ENDBRANCH 128 130
ENDBRANCH 127 128
BRANCH 127 132
HETATM  132  C   UNK N   1      23.582  11.042   3.286  0.00  0.00     0.243 C 
HETATM  133  O   UNK N   1      23.135  12.046   3.806  0.00  0.00    -0.271 OA
HETATM  134  N   UNK N   1      23.331   9.814   3.866  0.00  0.00    -0.337 N 
HETATM  135  C   UNK N   1      23.741   8.561   3.321  0.00  0.00     0.127 C 
HETATM  136  C   UNK N   1      22.549   9.687   5.087  0.00  0.00     0.179 C 
HETATM  137  C   UNK N   1      23.309   7.514   4.332  0.00  0.00     0.022 C 
HETATM  138  C   UNK N   1      22.293   8.199   5.236  0.00  0.00     0.037 C 
BRANCH 136 139
HETATM  139  C   UNK N   1      23.305  10.212   6.270  0.00  0.00     0.241 C 
HETATM  140  O   UNK N   1      23.998   9.440   6.918  0.00  0.00    -0.271 OA
HETATM  141  N   UNK N   1      23.144  11.508   6.665  0.00  0.00    -0.346 N 
HETATM  142  H   UNK N   1      22.688  12.122   6.045  0.00  0.00     0.163 HD
BRANCH 141 143
HETATM  143  C   UNK N   1      23.600  12.047   7.940  0.00  0.00     0.177 C 
BRANCH 143 144
HETATM  144  C   UNK N   1      22.543  11.933   9.047  0.00  0.00     0.045 C 
BRANCH 144 145
HETATM  145  C   UNK N   1      22.948  12.565  10.371  0.00  0.00     0.112 C 
BRANCH 145 146
HETATM  146  C   UNK N   1      22.010  12.133  11.445  0.00  0.00     0.139 C 
HETATM  147  O   UNK N   1      20.812  12.325  11.322  0.00  0.00    -0.650 OA
BRANCH 146 148
HETATM  148  O   UNK N   1      22.486  11.543  12.557  0.00  0.00    -0.776 OA
HETATM  149  H   UNK N   1      22.807  12.049  13.276  0.00  0.00     0.167 HD
ENDBRANCH 146 148
ENDBRANCH 145 146
ENDBRANCH 144 145
ENDBRANCH 143 144
BRANCH 143 150
HETATM  150  C   UNK N   1      24.189  13.427   7.725  0.00  0.00     0.241 C 
HETATM  151  O   UNK N   1      25.372  13.605   7.965  0.00  0.00    -0.271 OA
HETATM  152  N   UNK N   1      23.469  14.495   7.319  0.00  0.00    -0.346 N 
HETATM  153  H   UNK N   1      23.977  15.335   7.245  0.00  0.00     0.163 HD
BRANCH 152 154
HETATM  154  C   UNK N   1      22.081  14.591   6.979  0.00  0.00     0.177 C 
BRANCH 154 155
HETATM  155  C   UNK N   1      21.476  15.818   7.720  0.00  0.00     0.045 C 
BRANCH 155 156
HETATM  156  C   UNK N   1      20.243  15.579   8.639  0.00  0.00     0.112 C 
BRANCH 156 157
HETATM  157  C   UNK N   1      19.300  16.735   8.853  0.00  0.00     0.139 C 
HETATM  158  O   UNK N   1      19.741  17.871   8.921  0.00  0.00    -0.650 OA
BRANCH 157 159
HETATM  159  O   UNK N   1      17.984  16.530   9.045  0.00  0.00    -0.776 OA
HETATM  160  H   UNK N   1      17.208  16.069   9.299  0.00  0.00     0.167 HD
ENDBRANCH 157 159
ENDBRANCH 156 157
ENDBRANCH 155 156
ENDBRANCH 154 155
BRANCH 154 161
HETATM  161  C   UNK N   1      22.023  14.829   5.502  0.00  0.00     0.241 C 
HETATM  162  O   UNK N   1      23.048  15.080   4.892  0.00  0.00    -0.271 OA
HETATM  163  N   UNK N   1      20.844  14.595   4.855  0.00  0.00    -0.346 N 
HETATM  164  H   UNK N   1      20.046  14.491   5.420  0.00  0.00     0.163 HD
BRANCH 163 165
HETATM  165  C   UNK N   1      20.642  14.484   3.430  0.00  0.00     0.180 C 
BRANCH 165 166
HETATM  166  C   UNK N   1      19.393  13.682   3.057  0.00  0.00     0.073 C 
BRANCH 166 167
HETATM  167  C   UNK N   1      19.663  12.469   2.249  0.00  0.00    -0.056 A 
HETATM  168  C   UNK N   1      19.855  11.241   2.888  0.00  0.00     0.010 A 
HETATM  169  C   UNK N   1      20.129  10.101   2.138  0.00  0.00     0.037 A 
HETATM  170  C   UNK N   1      20.208  10.181   0.748  0.00  0.00     0.065 A 
HETATM  171  C   UNK N   1      19.996  11.404   0.103  0.00  0.00     0.037 A 
HETATM  172  C   UNK N   1      19.716  12.549   0.853  0.00  0.00     0.010 A 
BRANCH 170 173
HETATM  173  O   UNK N   1      20.485   9.082   0.032  0.00  0.00    -0.361 OA
HETATM  174  H   UNK N   1      20.525   8.799  -0.860  0.00  0.00     0.217 HD
ENDBRANCH 170 173
ENDBRANCH 166 167
ENDBRANCH 165 166
BRANCH 165 175
HETATM  175  C   UNK N   1      20.935  15.792   2.728  0.00  0.00     0.241 C 
HETATM  176  O   UNK N   1      21.288  15.763   1.561  0.00  0.00    -0.271 OA
HETATM  177  N   UNK N   1      20.905  16.960   3.429  0.00  0.00    -0.345 N 
HETATM  178  H   UNK N   1      20.572  16.888   4.352  0.00  0.00     0.163 HD
BRANCH 177 179
HETATM  179  C   UNK N   1      21.297  18.303   3.014  0.00  0.00     0.182 C 
BRANCH 179 180
HETATM  180  C   UNK N   1      21.926  19.084   4.172  0.00  0.00     0.040 C 
BRANCH 180 181
HETATM  181  C   UNK N   1      23.396  19.431   3.987  0.00  0.00    -0.020 C 
HETATM  182  C   UNK N   1      23.568  20.259   2.729  0.00  0.00     0.009 C 
HETATM  183  C   UNK N   1      24.181  18.151   3.804  0.00  0.00     0.009 C 
ENDBRANCH 180 181
ENDBRANCH 179 180
BRANCH 179 184
HETATM  184  C   UNK N   1      20.333  19.087   2.160  0.00  0.00     0.163 C 
HETATM  185  O   UNK N   1      19.365  19.645   2.651  0.00  0.00    -0.648 OA
BRANCH 184 186
HETATM  186  O   UNK N   1      20.571  19.211   0.841  0.00  0.00    -0.775 OA
HETATM  187  H   UNK N   1      20.294  19.907   0.279  0.00  0.00     0.167 HD
ENDBRANCH 184 186
ENDBRANCH 179 184
ENDBRANCH 177 179
ENDBRANCH 165 175
ENDBRANCH 163 165
ENDBRANCH 154 161
ENDBRANCH 152 154
ENDBRANCH 143 150
ENDBRANCH 141 143
ENDBRANCH 136 139
ENDBRANCH 127 132
ENDBRANCH 125 127
ENDBRANCH 116 123
ENDBRANCH 114 116
ENDBRANCH 105 112
ENDBRANCH 103 105
ENDBRANCH   1 101
TORSDOF 74
ENDMDL
