MODEL 1
REMARK VINA RESULT:      -7.3      0.000      0.000
REMARK  11 active torsions:
REMARK  status: ('A' for Active; 'I' for Inactive)
REMARK    1  A    between atoms: C_14  and  C_51 
REMARK    2  A    between atoms: C_17  and  C_18 
REMARK    3  A    between atoms: C_17  and  C_19 
REMARK    4  A    between atoms: C_18  and  O_49 
REMARK    5  A    between atoms: C_20  and  O_46 
REMARK    6  A    between atoms: C_28  and  C_38 
REMARK    7  A    between atoms: C_28  and  O_53 
REMARK    8  A    between atoms: C_29  and  O_41 
REMARK    9  A    between atoms: C_30  and  C_39 
REMARK   10  A    between atoms: C_38  and  O_55 
REMARK   11  A    between atoms: O_41  and  C_42 
ROOT
HETATM    1  C   UNK N   1      25.865  14.767   4.862  0.00  0.00     0.000 A 
HETATM    2  C   UNK N   1      25.522  15.486   6.090  0.00  0.00     0.078 A 
HETATM    3  C   UNK N   1      26.551  16.050   6.891  0.00  0.00     0.067 A 
HETATM    4  C   UNK N   1      27.243  14.605   4.605  0.00  0.00     0.022 A 
HETATM    5  C   UNK N   1      28.213  15.171   5.418  0.00  0.00    -0.018 A 
HETATM    6  C   UNK N   1      27.873  15.907   6.506  0.00  0.00     0.040 A 
HETATM    7  N   UNK N   1      29.007  16.535   7.050  0.00  0.00    -0.375 N 
HETATM    8  C   UNK N   1      29.675  15.401   5.100  0.00  0.00     0.047 C 
HETATM    9  C   UNK N   1      30.179  15.886   6.492  0.00  0.00     0.146 C 
HETATM   10  C   UNK N   1      31.648  16.403   6.474  0.00  0.00     0.194 C 
HETATM   11  C   UNK N   1      32.471  15.126   5.985  0.00  0.00     0.193 C 
HETATM   12  C   UNK N   1      32.059  14.567   4.587  0.00  0.00     0.039 C 
HETATM   13  C   UNK N   1      32.608  13.208   4.219  0.00  0.00    -0.015 C 
HETATM   14  C   UNK N   1      32.081  12.595   3.138  0.00  0.00    -0.000 C 
HETATM   15  C   UNK N   1      30.949  13.266   2.364  0.00  0.00     0.300 C 
HETATM   16  C   UNK N   1      30.503  14.268   4.590  0.00  0.00     0.253 C 
HETATM   17  N   UNK N   1      30.031  14.056   3.220  0.00  0.00     0.098 N 
HETATM   18  C   UNK N   1      29.868  15.422   2.701  0.00  0.00     0.274 C 
HETATM   19  C   UNK N   1      29.709  16.363   3.916  0.00  0.00     0.049 C 
HETATM   20  C   UNK N   1      28.953  17.759   7.805  0.00  0.00     0.150 C 
ENDROOT
BRANCH   1  21
HETATM   21  C   UNK N   1      24.871  14.553   3.628  0.00  0.00     0.121 C 
HETATM   22  C   UNK N   1      25.347  13.211   3.035  0.00  0.00     0.041 C 
HETATM   23  C   UNK N   1      24.991  11.886   3.765  0.00  0.00     0.038 C 
HETATM   24  C   UNK N   1      24.474  10.880   2.765  0.00  0.00     0.281 C 
HETATM   25  C   UNK N   1      24.054  11.898   4.975  0.00  0.00    -0.016 C 
HETATM   26  N   UNK N   1      23.077  11.166   2.473  0.00  0.00     0.097 N 
HETATM   27  C   UNK N   1      22.197  10.948   3.636  0.00  0.00     0.306 C 
HETATM   28  C   UNK N   1      22.963  12.454   1.767  0.00  0.00     0.314 C 
HETATM   29  C   UNK N   1      22.806  11.406   4.941  0.00  0.00    -0.056 C 
HETATM   30  C   UNK N   1      22.607  13.708   2.564  0.00  0.00     0.007 A 
HETATM   31  C   UNK N   1      23.312  14.534   3.511  0.00  0.00     0.042 A 
HETATM   32  C   UNK N   1      21.559  14.466   2.131  0.00  0.00     0.001 A 
HETATM   33  N   UNK N   1      22.594  15.685   3.704  0.00  0.00    -0.357 N 
HETATM   34  C   UNK N   1      21.574  15.635   2.832  0.00  0.00     0.043 A 
HETATM   35  H   UNK N   1      22.787  16.403   4.351  0.00  0.00     0.166 HD
HETATM   36  C   UNK N   1      20.737  16.695   2.465  0.00  0.00     0.030 A 
HETATM   37  C   UNK N   1      19.888  16.518   1.352  0.00  0.00     0.002 A 
HETATM   38  C   UNK N   1      19.878  15.296   0.643  0.00  0.00     0.001 A 
HETATM   39  C   UNK N   1      20.724  14.250   1.039  0.00  0.00     0.014 A 
BRANCH  29  40
HETATM   40  C   UNK N   1      22.026  11.288   6.215  0.00  0.00     0.031 C 
HETATM   41  C   UNK N   1      20.815  12.211   6.180  0.00  0.00     0.010 C 
ENDBRANCH  29  40
BRANCH  21  42
HETATM   42  C   UNK N   1      25.153  15.643   2.590  0.00  0.00     0.278 C 
HETATM   43  O   UNK N   1      25.613  15.332   1.490  0.00  0.00    -0.264 OA
BRANCH  42  44
HETATM   44  O   UNK N   1      24.963  16.949   2.881  0.00  0.00    -0.325 OA
HETATM   45  C   UNK N   1      26.013  17.767   3.234  0.00  0.00     0.213 C 
ENDBRANCH  42  44
ENDBRANCH  21  42
ENDBRANCH   1  21
BRANCH   2  46
HETATM   46  O   UNK N   1      24.237  15.715   6.448  0.00  0.00    -0.355 OA
HETATM   47  C   UNK N   1      23.460  14.827   7.160  0.00  0.00     0.210 C 
ENDBRANCH   2  46
BRANCH  12  48
HETATM   48  C   UNK N   1      32.526  15.586   3.502  0.00  0.00     0.014 C 
HETATM   49  C   UNK N   1      33.903  15.323   2.899  0.00  0.00     0.006 C 
ENDBRANCH  12  48
BRANCH  10  50
HETATM   50  C   UNK N   1      32.111  16.916   7.825  0.00  0.00     0.298 C 
HETATM   51  O   UNK N   1      31.850  16.276   8.834  0.00  0.00    -0.262 OA
BRANCH  50  52
HETATM   52  O   UNK N   1      32.738  18.113   7.932  0.00  0.00    -0.324 OA
HETATM   53  C   UNK N   1      34.107  18.220   7.989  0.00  0.00     0.213 C 
ENDBRANCH  50  52
ENDBRANCH  10  50
BRANCH  10  54
HETATM   54  O   UNK N   1      31.764  17.456   5.562  0.00  0.00    -0.375 OA
HETATM   55  H   UNK N   1      31.795  18.024   4.776  0.00  0.00     0.211 HD
ENDBRANCH  10  54
BRANCH  11  56
HETATM   56  O   UNK N   1      33.837  15.078   6.235  0.00  0.00    -0.311 OA
BRANCH  56  57
HETATM   57  C   UNK N   1      34.523  14.410   7.199  0.00  0.00     0.255 C 
HETATM   58  O   UNK N   1      35.681  14.719   7.415  0.00  0.00    -0.266 OA
HETATM   59  C   UNK N   1      33.923  13.298   7.995  0.00  0.00     0.126 C 
ENDBRANCH  56  57
ENDBRANCH  11  56
TORSDOF 11
ENDMDL
MODEL 2
REMARK VINA RESULT:      -7.1      1.534      2.268
REMARK  11 active torsions:
REMARK  status: ('A' for Active; 'I' for Inactive)
REMARK    1  A    between atoms: C_14  and  C_51 
REMARK    2  A    between atoms: C_17  and  C_18 
REMARK    3  A    between atoms: C_17  and  C_19 
REMARK    4  A    between atoms: C_18  and  O_49 
REMARK    5  A    between atoms: C_20  and  O_46 
REMARK    6  A    between atoms: C_28  and  C_38 
REMARK    7  A    between atoms: C_28  and  O_53 
REMARK    8  A    between atoms: C_29  and  O_41 
REMARK    9  A    between atoms: C_30  and  C_39 
REMARK   10  A    between atoms: C_38  and  O_55 
REMARK   11  A    between atoms: O_41  and  C_42 
ROOT
HETATM    1  C   UNK N   1      25.300  14.979   4.534  0.00  0.00     0.000 A 
HETATM    2  C   UNK N   1      25.241  16.329   5.094  0.00  0.00     0.078 A 
HETATM    3  C   UNK N   1      26.443  17.042   5.351  0.00  0.00     0.067 A 
HETATM    4  C   UNK N   1      26.590  14.432   4.371  0.00  0.00     0.022 A 
HETATM    5  C   UNK N   1      27.736  15.165   4.639  0.00  0.00    -0.018 A 
HETATM    6  C   UNK N   1      27.662  16.446   5.077  0.00  0.00     0.040 A 
HETATM    7  N   UNK N   1      28.937  17.039   5.086  0.00  0.00    -0.375 N 
HETATM    8  C   UNK N   1      29.152  14.875   4.187  0.00  0.00     0.047 C 
HETATM    9  C   UNK N   1      29.918  15.973   4.985  0.00  0.00     0.146 C 
HETATM   10  C   UNK N   1      31.422  16.083   4.600  0.00  0.00     0.194 C 
HETATM   11  C   UNK N   1      31.988  14.632   4.946  0.00  0.00     0.193 C 
HETATM   12  C   UNK N   1      31.302  13.454   4.185  0.00  0.00     0.039 C 
HETATM   13  C   UNK N   1      31.607  12.062   4.686  0.00  0.00    -0.015 C 
HETATM   14  C   UNK N   1      30.848  11.049   4.216  0.00  0.00    -0.000 C 
HETATM   15  C   UNK N   1      29.711  11.345   3.241  0.00  0.00     0.300 C 
HETATM   16  C   UNK N   1      29.739  13.523   4.429  0.00  0.00     0.253 C 
HETATM   17  N   UNK N   1      29.043  12.647   3.485  0.00  0.00     0.098 N 
HETATM   18  C   UNK N   1      28.986  13.451   2.254  0.00  0.00     0.274 C 
HETATM   19  C   UNK N   1      29.136  14.933   2.663  0.00  0.00     0.049 C 
HETATM   20  C   UNK N   1      29.158  18.455   4.953  0.00  0.00     0.150 C 
ENDROOT
BRANCH   1  21
HETATM   21  C   UNK N   1      24.113  14.282   3.720  0.00  0.00     0.121 C 
HETATM   22  C   UNK N   1      24.164  12.825   4.223  0.00  0.00     0.041 C 
HETATM   23  C   UNK N   1      23.612  12.487   5.637  0.00  0.00     0.038 C 
HETATM   24  C   UNK N   1      22.729  11.265   5.558  0.00  0.00     0.281 C 
HETATM   25  C   UNK N   1      22.893  13.557   6.462  0.00  0.00    -0.016 C 
HETATM   26  N   UNK N   1      21.414  11.653   5.071  0.00  0.00     0.097 N 
HETATM   27  C   UNK N   1      20.688  12.516   6.021  0.00  0.00     0.306 C 
HETATM   28  C   UNK N   1      21.508  12.109   3.673  0.00  0.00     0.314 C 
HETATM   29  C   UNK N   1      21.573  13.535   6.700  0.00  0.00    -0.056 C 
HETATM   30  C   UNK N   1      21.582  13.608   3.386  0.00  0.00     0.007 A 
HETATM   31  C   UNK N   1      22.595  14.618   3.559  0.00  0.00     0.042 A 
HETATM   32  C   UNK N   1      20.693  14.134   2.495  0.00  0.00     0.001 A 
HETATM   33  N   UNK N   1      22.208  15.743   2.878  0.00  0.00    -0.357 N 
HETATM   34  C   UNK N   1      21.089  15.408   2.216  0.00  0.00     0.043 A 
HETATM   35  H   UNK N   1      22.659  16.619   2.875  0.00  0.00     0.166 HD
HETATM   36  C   UNK N   1      20.484  16.130   1.180  0.00  0.00     0.030 A 
HETATM   37  C   UNK N   1      19.464  15.500   0.437  0.00  0.00     0.002 A 
HETATM   38  C   UNK N   1      19.059  14.182   0.746  0.00  0.00     0.001 A 
HETATM   39  C   UNK N   1      19.680  13.487   1.794  0.00  0.00     0.014 A 
BRANCH  29  40
HETATM   40  C   UNK N   1      20.983  14.514   7.669  0.00  0.00     0.031 C 
HETATM   41  C   UNK N   1      21.322  15.940   7.250  0.00  0.00     0.010 C 
ENDBRANCH  29  40
BRANCH  21  42
HETATM   42  C   UNK N   1      24.491  14.271   2.235  0.00  0.00     0.278 C 
HETATM   43  O   UNK N   1      24.870  15.312   1.697  0.00  0.00    -0.264 OA
BRANCH  42  44
HETATM   44  O   UNK N   1      24.356  13.152   1.489  0.00  0.00    -0.325 OA
HETATM   45  C   UNK N   1      23.687  13.166   0.287  0.00  0.00     0.213 C 
ENDBRANCH  42  44
ENDBRANCH  21  42
ENDBRANCH   1  21
BRANCH   2  46
HETATM   46  O   UNK N   1      24.065  16.970   5.293  0.00  0.00    -0.355 OA
HETATM   47  C   UNK N   1      23.823  18.277   4.929  0.00  0.00     0.210 C 
ENDBRANCH   2  46
BRANCH  12  48
HETATM   48  C   UNK N   1      31.732  13.531   2.687  0.00  0.00     0.014 C 
HETATM   49  C   UNK N   1      33.124  12.990   2.371  0.00  0.00     0.006 C 
ENDBRANCH  12  48
BRANCH  10  50
HETATM   50  C   UNK N   1      32.145  17.187   5.348  0.00  0.00     0.298 C 
HETATM   51  O   UNK N   1      32.896  17.937   4.737  0.00  0.00    -0.262 OA
BRANCH  50  52
HETATM   52  O   UNK N   1      32.033  17.300   6.694  0.00  0.00    -0.324 OA
HETATM   53  C   UNK N   1      33.073  17.735   7.482  0.00  0.00     0.213 C 
ENDBRANCH  50  52
ENDBRANCH  10  50
BRANCH  10  54
HETATM   54  O   UNK N   1      31.539  16.356   3.234  0.00  0.00    -0.375 OA
HETATM   55  H   UNK N   1      31.495  16.729   2.339  0.00  0.00     0.211 HD
ENDBRANCH  10  54
BRANCH  11  56
HETATM   56  O   UNK N   1      33.358  14.474   5.118  0.00  0.00    -0.311 OA
BRANCH  56  57
HETATM   57  C   UNK N   1      34.086  14.380   6.261  0.00  0.00     0.255 C 
HETATM   58  O   UNK N   1      35.246  14.752   6.250  0.00  0.00    -0.266 OA
HETATM   59  C   UNK N   1      33.531  13.820   7.529  0.00  0.00     0.126 C 
ENDBRANCH  56  57
ENDBRANCH  11  56
TORSDOF 11
ENDMDL
MODEL 3
REMARK VINA RESULT:      -7.0      3.049     11.064
REMARK  11 active torsions:
REMARK  status: ('A' for Active; 'I' for Inactive)
REMARK    1  A    between atoms: C_14  and  C_51 
REMARK    2  A    between atoms: C_17  and  C_18 
REMARK    3  A    between atoms: C_17  and  C_19 
REMARK    4  A    between atoms: C_18  and  O_49 
REMARK    5  A    between atoms: C_20  and  O_46 
REMARK    6  A    between atoms: C_28  and  C_38 
REMARK    7  A    between atoms: C_28  and  O_53 
REMARK    8  A    between atoms: C_29  and  O_41 
REMARK    9  A    between atoms: C_30  and  C_39 
REMARK   10  A    between atoms: C_38  and  O_55 
REMARK   11  A    between atoms: O_41  and  C_42 
ROOT
HETATM    1  C   UNK N   1      33.210  13.111   6.194  0.00  0.00     0.000 A 
HETATM    2  C   UNK N   1      32.922  12.001   5.286  0.00  0.00     0.078 A 
HETATM    3  C   UNK N   1      31.755  12.034   4.476  0.00  0.00     0.067 A 
HETATM    4  C   UNK N   1      32.230  14.123   6.266  0.00  0.00     0.022 A 
HETATM    5  C   UNK N   1      31.103  14.111   5.458  0.00  0.00    -0.018 A 
HETATM    6  C   UNK N   1      30.895  13.115   4.561  0.00  0.00     0.040 A 
HETATM    7  N   UNK N   1      29.805  13.423   3.728  0.00  0.00    -0.375 N 
HETATM    8  C   UNK N   1      30.167  15.260   5.152  0.00  0.00     0.047 C 
HETATM    9  C   UNK N   1      29.064  14.502   4.355  0.00  0.00     0.146 C 
HETATM   10  C   UNK N   1      28.007  15.445   3.708  0.00  0.00     0.194 C 
HETATM   11  C   UNK N   1      27.381  16.199   4.969  0.00  0.00     0.193 C 
HETATM   12  C   UNK N   1      28.399  17.009   5.830  0.00  0.00     0.039 C 
HETATM   13  C   UNK N   1      27.907  17.496   7.173  0.00  0.00    -0.015 C 
HETATM   14  C   UNK N   1      28.825  17.979   8.036  0.00  0.00    -0.000 C 
HETATM   15  C   UNK N   1      30.301  17.985   7.646  0.00  0.00     0.300 C 
HETATM   16  C   UNK N   1      29.578  16.048   6.274  0.00  0.00     0.253 C 
HETATM   17  N   UNK N   1      30.696  16.835   6.798  0.00  0.00     0.098 N 
HETATM   18  C   UNK N   1      31.392  17.287   5.584  0.00  0.00     0.274 C 
HETATM   19  C   UNK N   1      31.007  16.319   4.443  0.00  0.00     0.049 C 
HETATM   20  C   UNK N   1      29.655  12.911   2.391  0.00  0.00     0.150 C 
ENDROOT
BRANCH   1  21
HETATM   21  C   UNK N   1      34.666  13.477   6.745  0.00  0.00     0.121 C 
HETATM   22  C   UNK N   1      34.358  14.433   7.915  0.00  0.00     0.041 C 
HETATM   23  C   UNK N   1      33.820  13.851   9.252  0.00  0.00     0.038 C 
HETATM   24  C   UNK N   1      34.579  14.454  10.410  0.00  0.00     0.281 C 
HETATM   25  C   UNK N   1      33.736  12.337   9.459  0.00  0.00    -0.016 C 
HETATM   26  N   UNK N   1      35.855  13.770  10.556  0.00  0.00     0.097 N 
HETATM   27  C   UNK N   1      35.702  12.362  10.967  0.00  0.00     0.306 C 
HETATM   28  C   UNK N   1      36.713  14.047   9.390  0.00  0.00     0.314 C 
HETATM   29  C   UNK N   1      34.543  11.665  10.293  0.00  0.00    -0.056 C 
HETATM   30  C   UNK N   1      36.781  13.022   8.259  0.00  0.00     0.007 A 
HETATM   31  C   UNK N   1      35.873  12.605   7.222  0.00  0.00     0.042 A 
HETATM   32  C   UNK N   1      38.012  12.591   7.859  0.00  0.00     0.001 A 
HETATM   33  N   UNK N   1      36.563  11.836   6.321  0.00  0.00    -0.357 N 
HETATM   34  C   UNK N   1      37.849  11.883   6.706  0.00  0.00     0.043 A 
HETATM   35  H   UNK N   1      36.193  11.349   5.550  0.00  0.00     0.166 HD
HETATM   36  C   UNK N   1      38.961  11.486   5.952  0.00  0.00     0.030 A 
HETATM   37  C   UNK N   1      40.243  11.843   6.420  0.00  0.00     0.002 A 
HETATM   38  C   UNK N   1      40.394  12.570   7.622  0.00  0.00     0.001 A 
HETATM   39  C   UNK N   1      39.261  12.947   8.358  0.00  0.00     0.014 A 
BRANCH  29  40
HETATM   40  C   UNK N   1      34.271  10.218  10.574  0.00  0.00     0.031 C 
HETATM   41  C   UNK N   1      33.821  10.037  12.019  0.00  0.00     0.010 C 
ENDBRANCH  29  40
BRANCH  21  42
HETATM   42  C   UNK N   1      35.397  14.286   5.668  0.00  0.00     0.278 C 
HETATM   43  O   UNK N   1      35.674  15.468   5.878  0.00  0.00    -0.264 OA
BRANCH  42  44
HETATM   44  O   UNK N   1      35.688  13.742   4.465  0.00  0.00    -0.325 OA
HETATM   45  C   UNK N   1      34.993  14.092   3.331  0.00  0.00     0.213 C 
ENDBRANCH  42  44
ENDBRANCH  21  42
ENDBRANCH   1  21
BRANCH   2  46
HETATM   46  O   UNK N   1      33.784  10.971   5.119  0.00  0.00    -0.355 OA
HETATM   47  C   UNK N   1      34.062  10.381   3.905  0.00  0.00     0.210 C 
ENDBRANCH   2  46
BRANCH  12  48
HETATM   48  C   UNK N   1      28.850  18.253   5.003  0.00  0.00     0.014 C 
HETATM   49  C   UNK N   1      27.886  19.438   5.014  0.00  0.00     0.006 C 
ENDBRANCH  12  48
BRANCH  10  50
HETATM   50  C   UNK N   1      26.965  14.698   2.896  0.00  0.00     0.298 C 
HETATM   51  O   UNK N   1      26.695  15.083   1.766  0.00  0.00    -0.262 OA
BRANCH  50  52
HETATM   52  O   UNK N   1      26.275  13.665   3.437  0.00  0.00    -0.324 OA
HETATM   53  C   UNK N   1      24.983  13.374   3.068  0.00  0.00     0.213 C 
ENDBRANCH  50  52
ENDBRANCH  10  50
BRANCH  10  54
HETATM   54  O   UNK N   1      28.643  16.346   2.849  0.00  0.00    -0.375 OA
HETATM   55  H   UNK N   1      28.949  17.123   2.356  0.00  0.00     0.211 HD
ENDBRANCH  10  54
BRANCH  11  56
HETATM   56  O   UNK N   1      26.141  16.811   4.830  0.00  0.00    -0.311 OA
BRANCH  56  57
HETATM   57  C   UNK N   1      24.928  16.440   5.317  0.00  0.00     0.255 C 
HETATM   58  O   UNK N   1      23.935  17.028   4.925  0.00  0.00    -0.266 OA
HETATM   59  C   UNK N   1      24.760  15.354   6.327  0.00  0.00     0.126 C 
ENDBRANCH  56  57
ENDBRANCH  11  56
TORSDOF 11
ENDMDL
MODEL 4
REMARK VINA RESULT:      -6.9      3.869      6.503
REMARK  11 active torsions:
REMARK  status: ('A' for Active; 'I' for Inactive)
REMARK    1  A    between atoms: C_14  and  C_51 
REMARK    2  A    between atoms: C_17  and  C_18 
REMARK    3  A    between atoms: C_17  and  C_19 
REMARK    4  A    between atoms: C_18  and  O_49 
REMARK    5  A    between atoms: C_20  and  O_46 
REMARK    6  A    between atoms: C_28  and  C_38 
REMARK    7  A    between atoms: C_28  and  O_53 
REMARK    8  A    between atoms: C_29  and  O_41 
REMARK    9  A    between atoms: C_30  and  C_39 
REMARK   10  A    between atoms: C_38  and  O_55 
REMARK   11  A    between atoms: O_41  and  C_42 
ROOT
HETATM    1  C   UNK N   1      30.569  12.774   2.988  0.00  0.00     0.000 A 
HETATM    2  C   UNK N   1      30.006  14.101   2.737  0.00  0.00     0.078 A 
HETATM    3  C   UNK N   1      30.485  15.222   3.465  0.00  0.00     0.067 A 
HETATM    4  C   UNK N   1      31.514  12.690   4.032  0.00  0.00     0.022 A 
HETATM    5  C   UNK N   1      31.949  13.813   4.719  0.00  0.00    -0.018 A 
HETATM    6  C   UNK N   1      31.477  15.047   4.414  0.00  0.00     0.040 A 
HETATM    7  N   UNK N   1      32.205  16.036   5.099  0.00  0.00    -0.375 N 
HETATM    8  C   UNK N   1      33.182  13.952   5.586  0.00  0.00     0.047 C 
HETATM    9  C   UNK N   1      32.945  15.380   6.162  0.00  0.00     0.146 C 
HETATM   10  C   UNK N   1      34.154  15.930   6.974  0.00  0.00     0.194 C 
HETATM   11  C   UNK N   1      34.312  14.863   8.150  0.00  0.00     0.193 C 
HETATM   12  C   UNK N   1      34.574  13.397   7.683  0.00  0.00     0.039 C 
HETATM   13  C   UNK N   1      34.447  12.323   8.739  0.00  0.00    -0.015 C 
HETATM   14  C   UNK N   1      34.423  11.039   8.322  0.00  0.00    -0.000 C 
HETATM   15  C   UNK N   1      34.491  10.726   6.830  0.00  0.00     0.300 C 
HETATM   16  C   UNK N   1      33.429  12.964   6.678  0.00  0.00     0.253 C 
HETATM   17  N   UNK N   1      33.813  11.734   5.980  0.00  0.00     0.098 N 
HETATM   18  C   UNK N   1      34.704  12.213   4.913  0.00  0.00     0.274 C 
HETATM   19  C   UNK N   1      34.379  13.704   4.673  0.00  0.00     0.049 C 
HETATM   20  C   UNK N   1      32.356  17.386   4.624  0.00  0.00     0.150 C 
ENDROOT
BRANCH   1  21
HETATM   21  C   UNK N   1      30.540  11.564   1.943  0.00  0.00     0.121 C 
HETATM   22  C   UNK N   1      30.084  10.374   2.811  0.00  0.00     0.041 C 
HETATM   23  C   UNK N   1      28.591  10.264   3.229  0.00  0.00     0.038 C 
HETATM   24  C   UNK N   1      28.101   8.855   2.995  0.00  0.00     0.281 C 
HETATM   25  C   UNK N   1      27.557  11.241   2.666  0.00  0.00    -0.016 C 
HETATM   26  N   UNK N   1      27.782   8.686   1.586  0.00  0.00     0.097 N 
HETATM   27  C   UNK N   1      26.630   9.504   1.161  0.00  0.00     0.306 C 
HETATM   28  C   UNK N   1      29.010   8.770   0.776  0.00  0.00     0.314 C 
HETATM   29  C   UNK N   1      26.616  10.882   1.779  0.00  0.00    -0.056 C 
HETATM   30  C   UNK N   1      29.360  10.092   0.095  0.00  0.00     0.007 A 
HETATM   31  C   UNK N   1      29.835  11.370   0.561  0.00  0.00     0.042 A 
HETATM   32  C   UNK N   1      29.620  10.073  -1.244  0.00  0.00     0.001 A 
HETATM   33  N   UNK N   1      30.233  12.108  -0.524  0.00  0.00    -0.357 N 
HETATM   34  C   UNK N   1      30.134  11.289  -1.584  0.00  0.00     0.043 A 
HETATM   35  H   UNK N   1      30.531  13.047  -0.525  0.00  0.00     0.166 HD
HETATM   36  C   UNK N   1      30.683  11.499  -2.854  0.00  0.00     0.030 A 
HETATM   37  C   UNK N   1      30.692  10.419  -3.762  0.00  0.00     0.002 A 
HETATM   38  C   UNK N   1      30.147   9.168  -3.396  0.00  0.00     0.001 A 
HETATM   39  C   UNK N   1      29.598   8.991  -2.118  0.00  0.00     0.014 A 
BRANCH  29  40
HETATM   40  C   UNK N   1      25.532  11.853   1.423  0.00  0.00     0.031 C 
HETATM   41  C   UNK N   1      24.485  11.177   0.546  0.00  0.00     0.010 C 
ENDBRANCH  29  40
BRANCH  21  42
HETATM   42  C   UNK N   1      31.978  11.283   1.493  0.00  0.00     0.278 C 
HETATM   43  O   UNK N   1      32.500  10.201   1.765  0.00  0.00    -0.264 OA
BRANCH  42  44
HETATM   44  O   UNK N   1      32.706  12.227   0.856  0.00  0.00    -0.325 OA
HETATM   45  C   UNK N   1      34.040  12.418   1.136  0.00  0.00     0.213 C 
ENDBRANCH  42  44
ENDBRANCH  21  42
ENDBRANCH   1  21
BRANCH   2  46
HETATM   46  O   UNK N   1      29.096  14.317   1.758  0.00  0.00    -0.355 OA
HETATM   47  C   UNK N   1      27.878  14.933   1.954  0.00  0.00     0.210 C 
ENDBRANCH   2  46
BRANCH  12  48
HETATM   48  C   UNK N   1      36.018  13.326   7.097  0.00  0.00     0.014 C 
HETATM   49  C   UNK N   1      37.145  13.249   8.124  0.00  0.00     0.006 C 
ENDBRANCH  12  48
BRANCH  10  50
HETATM   50  C   UNK N   1      33.929  17.340   7.489  0.00  0.00     0.298 C 
HETATM   51  O   UNK N   1      34.579  18.263   7.017  0.00  0.00    -0.262 OA
BRANCH  50  52
HETATM   52  O   UNK N   1      33.079  17.573   8.519  0.00  0.00    -0.324 OA
HETATM   53  C   UNK N   1      31.768  17.933   8.318  0.00  0.00     0.213 C 
ENDBRANCH  50  52
ENDBRANCH  10  50
BRANCH  10  54
HETATM   54  O   UNK N   1      35.292  15.956   6.162  0.00  0.00    -0.375 OA
HETATM   55  H   UNK N   1      36.169  16.098   5.771  0.00  0.00     0.211 HD
ENDBRANCH  10  54
BRANCH  11  56
HETATM   56  O   UNK N   1      35.014  15.229   9.292  0.00  0.00    -0.311 OA
BRANCH  56  57
HETATM   57  C   UNK N   1      34.656  15.139  10.600  0.00  0.00     0.255 C 
HETATM   58  O   UNK N   1      33.480  14.980  10.875  0.00  0.00    -0.266 OA
HETATM   59  C   UNK N   1      35.641  15.245  11.717  0.00  0.00     0.126 C 
ENDBRANCH  56  57
ENDBRANCH  11  56
TORSDOF 11
ENDMDL
MODEL 5
REMARK VINA RESULT:      -6.9      4.044      8.080
REMARK  11 active torsions:
REMARK  status: ('A' for Active; 'I' for Inactive)
REMARK    1  A    between atoms: C_14  and  C_51 
REMARK    2  A    between atoms: C_17  and  C_18 
REMARK    3  A    between atoms: C_17  and  C_19 
REMARK    4  A    between atoms: C_18  and  O_49 
REMARK    5  A    between atoms: C_20  and  O_46 
REMARK    6  A    between atoms: C_28  and  C_38 
REMARK    7  A    between atoms: C_28  and  O_53 
REMARK    8  A    between atoms: C_29  and  O_41 
REMARK    9  A    between atoms: C_30  and  C_39 
REMARK   10  A    between atoms: C_38  and  O_55 
REMARK   11  A    between atoms: O_41  and  C_42 
ROOT
HETATM    1  C   UNK N   1      31.765  15.818   7.781  0.00  0.00     0.000 A 
HETATM    2  C   UNK N   1      32.310  16.900   8.603  0.00  0.00     0.078 A 
HETATM    3  C   UNK N   1      33.331  16.622   9.552  0.00  0.00     0.067 A 
HETATM    4  C   UNK N   1      32.245  14.522   8.066  0.00  0.00     0.022 A 
HETATM    5  C   UNK N   1      33.240  14.299   9.005  0.00  0.00    -0.018 A 
HETATM    6  C   UNK N   1      33.794  15.325   9.697  0.00  0.00     0.040 A 
HETATM    7  N   UNK N   1      34.905  14.880  10.434  0.00  0.00    -0.375 N 
HETATM    8  C   UNK N   1      34.102  13.065   9.170  0.00  0.00     0.047 C 
HETATM    9  C   UNK N   1      34.842  13.431  10.491  0.00  0.00     0.146 C 
HETATM   10  C   UNK N   1      35.978  12.433  10.862  0.00  0.00     0.194 C 
HETATM   11  C   UNK N   1      35.202  11.046  11.011  0.00  0.00     0.193 C 
HETATM   12  C   UNK N   1      34.439  10.573   9.734  0.00  0.00     0.039 C 
HETATM   13  C   UNK N   1      33.470   9.427   9.916  0.00  0.00    -0.015 C 
HETATM   14  C   UNK N   1      32.623   9.160   8.900  0.00  0.00    -0.000 C 
HETATM   15  C   UNK N   1      32.649  10.028   7.644  0.00  0.00     0.300 C 
HETATM   16  C   UNK N   1      33.455  11.723   9.267  0.00  0.00     0.253 C 
HETATM   17  N   UNK N   1      32.971  11.450   7.912  0.00  0.00     0.098 N 
HETATM   18  C   UNK N   1      34.075  11.913   7.057  0.00  0.00     0.274 C 
HETATM   19  C   UNK N   1      34.902  12.927   7.879  0.00  0.00     0.049 C 
HETATM   20  C   UNK N   1      36.005  15.730  10.807  0.00  0.00     0.150 C 
ENDROOT
BRANCH   1  21
HETATM   21  C   UNK N   1      31.046  16.027   6.368  0.00  0.00     0.121 C 
HETATM   22  C   UNK N   1      31.899  17.130   5.711  0.00  0.00     0.041 C 
HETATM   23  C   UNK N   1      33.296  16.770   5.131  0.00  0.00     0.038 C 
HETATM   24  C   UNK N   1      33.444  17.372   3.755  0.00  0.00     0.281 C 
HETATM   25  C   UNK N   1      33.758  15.312   5.079  0.00  0.00    -0.016 C 
HETATM   26  N   UNK N   1      32.758  16.531   2.786  0.00  0.00     0.097 N 
HETATM   27  C   UNK N   1      33.391  15.208   2.631  0.00  0.00     0.306 C 
HETATM   28  C   UNK N   1      31.305  16.564   3.029  0.00  0.00     0.314 C 
HETATM   29  C   UNK N   1      33.872  14.619   3.936  0.00  0.00    -0.056 C 
HETATM   30  C   UNK N   1      30.660  15.430   3.825  0.00  0.00     0.007 A 
HETATM   31  C   UNK N   1      30.667  15.044   5.213  0.00  0.00     0.042 A 
HETATM   32  C   UNK N   1      29.589  14.790   3.275  0.00  0.00     0.001 A 
HETATM   33  N   UNK N   1      29.695  14.097   5.407  0.00  0.00    -0.357 N 
HETATM   34  C   UNK N   1      29.038  13.999   4.239  0.00  0.00     0.043 A 
HETATM   35  H   UNK N   1      29.514  13.593   6.233  0.00  0.00     0.166 HD
HETATM   36  C   UNK N   1      27.804  13.373   4.026  0.00  0.00     0.030 A 
HETATM   37  C   UNK N   1      27.152  13.590   2.794  0.00  0.00     0.002 A 
HETATM   38  C   UNK N   1      27.742  14.405   1.802  0.00  0.00     0.001 A 
HETATM   39  C   UNK N   1      28.982  15.013   2.043  0.00  0.00     0.014 A 
BRANCH  29  40
HETATM   40  C   UNK N   1      34.508  13.262   3.958  0.00  0.00     0.031 C 
HETATM   41  C   UNK N   1      33.564  12.227   3.359  0.00  0.00     0.010 C 
ENDBRANCH  29  40
BRANCH  21  42
HETATM   42  C   UNK N   1      29.651  16.610   6.621  0.00  0.00     0.278 C 
HETATM   43  O   UNK N   1      28.892  16.049   7.412  0.00  0.00    -0.264 OA
BRANCH  42  44
HETATM   44  O   UNK N   1      29.217  17.696   5.944  0.00  0.00    -0.325 OA
HETATM   45  C   UNK N   1      28.031  17.682   5.246  0.00  0.00     0.213 C 
ENDBRANCH  42  44
ENDBRANCH  21  42
ENDBRANCH   1  21
BRANCH   2  46
HETATM   46  O   UNK N   1      31.939  18.189   8.426  0.00  0.00    -0.355 OA
HETATM   47  C   UNK N   1      30.819  18.758   8.994  0.00  0.00     0.210 C 
ENDBRANCH   2  46
BRANCH  12  48
HETATM   48  C   UNK N   1      35.495  10.146   8.669  0.00  0.00     0.014 C 
HETATM   49  C   UNK N   1      36.075   8.744   8.839  0.00  0.00     0.006 C 
ENDBRANCH  12  48
BRANCH  10  50
HETATM   50  C   UNK N   1      36.723  12.825  12.125  0.00  0.00     0.298 C 
HETATM   51  O   UNK N   1      37.944  12.752  12.150  0.00  0.00    -0.262 OA
BRANCH  50  52
HETATM   52  O   UNK N   1      36.047  13.176  13.246  0.00  0.00    -0.324 OA
HETATM   53  C   UNK N   1      36.447  14.221  14.045  0.00  0.00     0.213 C 
ENDBRANCH  50  52
ENDBRANCH  10  50
BRANCH  10  54
HETATM   54  O   UNK N   1      36.913  12.377   9.824  0.00  0.00    -0.375 OA
HETATM   55  H   UNK N   1      37.552  12.566   9.119  0.00  0.00     0.211 HD
ENDBRANCH  10  54
BRANCH  11  56
HETATM   56  O   UNK N   1      35.806  10.017  11.724  0.00  0.00    -0.311 OA
BRANCH  56  57
HETATM   57  C   UNK N   1      35.454   9.457  12.910  0.00  0.00     0.255 C 
HETATM   58  O   UNK N   1      35.960   8.396  13.230  0.00  0.00    -0.266 OA
HETATM   59  C   UNK N   1      34.457  10.077  13.833  0.00  0.00     0.126 C 
ENDBRANCH  56  57
ENDBRANCH  11  56
TORSDOF 11
ENDMDL
MODEL 6
REMARK VINA RESULT:      -6.7      5.578     13.156
REMARK  11 active torsions:
REMARK  status: ('A' for Active; 'I' for Inactive)
REMARK    1  A    between atoms: C_14  and  C_51 
REMARK    2  A    between atoms: C_17  and  C_18 
REMARK    3  A    between atoms: C_17  and  C_19 
REMARK    4  A    between atoms: C_18  and  O_49 
REMARK    5  A    between atoms: C_20  and  O_46 
REMARK    6  A    between atoms: C_28  and  C_38 
REMARK    7  A    between atoms: C_28  and  O_53 
REMARK    8  A    between atoms: C_29  and  O_41 
REMARK    9  A    between atoms: C_30  and  C_39 
REMARK   10  A    between atoms: C_38  and  O_55 
REMARK   11  A    between atoms: O_41  and  C_42 
ROOT
HETATM    1  C   UNK N   1      35.148  10.986  10.207  0.00  0.00     0.000 A 
HETATM    2  C   UNK N   1      34.583   9.783   9.596  0.00  0.00     0.078 A 
HETATM    3  C   UNK N   1      33.781   9.892   8.428  0.00  0.00     0.067 A 
HETATM    4  C   UNK N   1      34.767  12.214   9.624  0.00  0.00     0.022 A 
HETATM    5  C   UNK N   1      33.978  12.271   8.486  0.00  0.00    -0.018 A 
HETATM    6  C   UNK N   1      33.533  11.140   7.883  0.00  0.00     0.040 A 
HETATM    7  N   UNK N   1      32.930  11.443   6.650  0.00  0.00    -0.375 N 
HETATM    8  C   UNK N   1      33.783  13.443   7.548  0.00  0.00     0.047 C 
HETATM    9  C   UNK N   1      32.662  12.870   6.631  0.00  0.00     0.146 C 
HETATM   10  C   UNK N   1      32.343  13.772   5.403  0.00  0.00     0.194 C 
HETATM   11  C   UNK N   1      31.880  15.143   6.076  0.00  0.00     0.193 C 
HETATM   12  C   UNK N   1      32.939  15.817   7.003  0.00  0.00     0.039 C 
HETATM   13  C   UNK N   1      32.447  16.950   7.873  0.00  0.00    -0.015 C 
HETATM   14  C   UNK N   1      33.266  17.386   8.853  0.00  0.00    -0.000 C 
HETATM   15  C   UNK N   1      34.618  16.709   9.066  0.00  0.00     0.300 C 
HETATM   16  C   UNK N   1      33.398  14.774   8.104  0.00  0.00     0.253 C 
HETATM   17  N   UNK N   1      34.607  15.255   8.778  0.00  0.00     0.098 N 
HETATM   18  C   UNK N   1      35.683  14.891   7.844  0.00  0.00     0.274 C 
HETATM   19  C   UNK N   1      35.154  13.746   6.952  0.00  0.00     0.049 C 
HETATM   20  C   UNK N   1      32.860  10.518   5.550  0.00  0.00     0.150 C 
ENDROOT
BRANCH   1  21
HETATM   21  C   UNK N   1      36.442  11.005  11.146  0.00  0.00     0.121 C 
HETATM   22  C   UNK N   1      36.497  12.470  11.623  0.00  0.00     0.041 C 
HETATM   23  C   UNK N   1      35.499  12.956  12.711  0.00  0.00     0.038 C 
HETATM   24  C   UNK N   1      36.240  13.743  13.765  0.00  0.00     0.281 C 
HETATM   25  C   UNK N   1      34.571  11.959  13.409  0.00  0.00    -0.016 C 
HETATM   26  N   UNK N   1      36.889  12.821  14.685  0.00  0.00     0.097 N 
HETATM   27  C   UNK N   1      35.926  12.041  15.483  0.00  0.00     0.306 C 
HETATM   28  C   UNK N   1      37.953  12.078  13.987  0.00  0.00     0.314 C 
HETATM   29  C   UNK N   1      34.718  11.594  14.692  0.00  0.00    -0.056 C 
HETATM   30  C   UNK N   1      37.657  10.672  13.467  0.00  0.00     0.007 A 
HETATM   31  C   UNK N   1      36.872  10.146  12.380  0.00  0.00     0.042 A 
HETATM   32  C   UNK N   1      38.505   9.666  13.824  0.00  0.00     0.001 A 
HETATM   33  N   UNK N   1      37.184   8.821  12.219  0.00  0.00    -0.357 N 
HETATM   34  C   UNK N   1      38.195   8.574  13.068  0.00  0.00     0.043 A 
HETATM   35  H   UNK N   1      36.754   8.180  11.607  0.00  0.00     0.166 HD
HETATM   36  C   UNK N   1      39.027   7.448  13.070  0.00  0.00     0.030 A 
HETATM   37  C   UNK N   1      40.189   7.481  13.870  0.00  0.00     0.002 A 
HETATM   38  C   UNK N   1      40.490   8.617  14.654  0.00  0.00     0.001 A 
HETATM   39  C   UNK N   1      39.634   9.727  14.636  0.00  0.00     0.014 A 
BRANCH  29  40
HETATM   40  C   UNK N   1      33.659  10.760  15.346  0.00  0.00     0.031 C 
HETATM   41  C   UNK N   1      34.243  10.001  16.532  0.00  0.00     0.010 C 
ENDBRANCH  29  40
BRANCH  21  42
HETATM   42  C   UNK N   1      37.674  10.757  10.270  0.00  0.00     0.278 C 
HETATM   43  O   UNK N   1      38.505  11.655  10.122  0.00  0.00    -0.264 OA
BRANCH  42  44
HETATM   44  O   UNK N   1      37.834   9.592   9.605  0.00  0.00    -0.325 OA
HETATM   45  C   UNK N   1      38.720   9.476   8.558  0.00  0.00     0.213 C 
ENDBRANCH  42  44
ENDBRANCH  21  42
ENDBRANCH   1  21
BRANCH   2  46
HETATM   46  O   UNK N   1      34.876   8.543  10.054  0.00  0.00    -0.355 OA
HETATM   47  C   UNK N   1      33.951   7.682  10.605  0.00  0.00     0.210 C 
ENDBRANCH   2  46
BRANCH  12  48
HETATM   48  C   UNK N   1      34.091  16.365   6.105  0.00  0.00     0.014 C 
HETATM   49  C   UNK N   1      33.711  17.512   5.171  0.00  0.00     0.006 C 
ENDBRANCH  12  48
BRANCH  10  50
HETATM   50  C   UNK N   1      31.284  13.180   4.492  0.00  0.00     0.298 C 
HETATM   51  O   UNK N   1      31.478  13.149   3.284  0.00  0.00    -0.262 OA
BRANCH  50  52
HETATM   52  O   UNK N   1      30.096  12.761   4.993  0.00  0.00    -0.324 OA
HETATM   53  C   UNK N   1      28.915  12.922   4.307  0.00  0.00     0.213 C 
ENDBRANCH  50  52
ENDBRANCH  10  50
BRANCH  10  54
HETATM   54  O   UNK N   1      33.500  13.952   4.639  0.00  0.00    -0.375 OA
HETATM   55  H   UNK N   1      34.157  14.062   3.934  0.00  0.00     0.211 HD
ENDBRANCH  10  54
BRANCH  11  56
HETATM   56  O   UNK N   1      31.138  16.040   5.318  0.00  0.00    -0.311 OA
BRANCH  56  57
HETATM   57  C   UNK N   1      29.882  16.520   5.519  0.00  0.00     0.255 C 
HETATM   58  O   UNK N   1      29.157  15.946   6.312  0.00  0.00    -0.266 OA
HETATM   59  C   UNK N   1      29.346  17.711   4.797  0.00  0.00     0.126 C 
ENDBRANCH  56  57
ENDBRANCH  11  56
TORSDOF 11
ENDMDL
MODEL 7
REMARK VINA RESULT:      -6.6      2.432      4.772
REMARK  11 active torsions:
REMARK  status: ('A' for Active; 'I' for Inactive)
REMARK    1  A    between atoms: C_14  and  C_51 
REMARK    2  A    between atoms: C_17  and  C_18 
REMARK    3  A    between atoms: C_17  and  C_19 
REMARK    4  A    between atoms: C_18  and  O_49 
REMARK    5  A    between atoms: C_20  and  O_46 
REMARK    6  A    between atoms: C_28  and  C_38 
REMARK    7  A    between atoms: C_28  and  O_53 
REMARK    8  A    between atoms: C_29  and  O_41 
REMARK    9  A    between atoms: C_30  and  C_39 
REMARK   10  A    between atoms: C_38  and  O_55 
REMARK   11  A    between atoms: O_41  and  C_42 
ROOT
HETATM    1  C   UNK N   1      23.054  15.065   5.080  0.00  0.00     0.000 A 
HETATM    2  C   UNK N   1      23.264  16.495   5.308  0.00  0.00     0.078 A 
HETATM    3  C   UNK N   1      24.554  17.061   5.118  0.00  0.00     0.067 A 
HETATM    4  C   UNK N   1      24.206  14.313   4.767  0.00  0.00     0.022 A 
HETATM    5  C   UNK N   1      25.446  14.908   4.595  0.00  0.00    -0.018 A 
HETATM    6  C   UNK N   1      25.605  16.249   4.727  0.00  0.00     0.040 A 
HETATM    7  N   UNK N   1      26.891  16.636   4.314  0.00  0.00    -0.375 N 
HETATM    8  C   UNK N   1      26.670  14.327   3.921  0.00  0.00     0.047 C 
HETATM    9  C   UNK N   1      27.711  15.439   4.250  0.00  0.00     0.146 C 
HETATM   10  C   UNK N   1      29.075  15.246   3.526  0.00  0.00     0.194 C 
HETATM   11  C   UNK N   1      29.571  13.828   4.066  0.00  0.00     0.193 C 
HETATM   12  C   UNK N   1      28.609  12.634   3.773  0.00  0.00     0.039 C 
HETATM   13  C   UNK N   1      28.897  11.345   4.506  0.00  0.00    -0.015 C 
HETATM   14  C   UNK N   1      27.953  10.381   4.465  0.00  0.00    -0.000 C 
HETATM   15  C   UNK N   1      26.642  10.635   3.725  0.00  0.00     0.300 C 
HETATM   16  C   UNK N   1      27.170  12.982   4.336  0.00  0.00     0.253 C 
HETATM   17  N   UNK N   1      26.181  12.043   3.800  0.00  0.00     0.098 N 
HETATM   18  C   UNK N   1      25.895  12.578   2.461  0.00  0.00     0.274 C 
HETATM   19  C   UNK N   1      26.281  14.074   2.468  0.00  0.00     0.049 C 
HETATM   20  C   UNK N   1      27.205  17.947   3.809  0.00  0.00     0.150 C 
ENDROOT
BRANCH   1  21
HETATM   21  C   UNK N   1      21.642  14.399   4.736  0.00  0.00     0.121 C 
HETATM   22  C   UNK N   1      20.967  15.468   3.853  0.00  0.00     0.041 C 
HETATM   23  C   UNK N   1      21.428  15.643   2.380  0.00  0.00     0.038 C 
HETATM   24  C   UNK N   1      20.222  15.721   1.476  0.00  0.00     0.281 C 
HETATM   25  C   UNK N   1      22.436  14.669   1.765  0.00  0.00    -0.016 C 
HETATM   26  N   UNK N   1      19.722  14.378   1.224  0.00  0.00     0.097 N 
HETATM   27  C   UNK N   1      20.663  13.559   0.437  0.00  0.00     0.306 C 
HETATM   28  C   UNK N   1      19.191  13.796   2.469  0.00  0.00     0.314 C 
HETATM   29  C   UNK N   1      22.107  13.768   0.828  0.00  0.00    -0.056 C 
HETATM   30  C   UNK N   1      20.075  12.850   3.281  0.00  0.00     0.007 A 
HETATM   31  C   UNK N   1      21.240  13.024   4.111  0.00  0.00     0.042 A 
HETATM   32  C   UNK N   1      19.566  11.631   3.619  0.00  0.00     0.001 A 
HETATM   33  N   UNK N   1      21.456  11.863   4.807  0.00  0.00    -0.357 N 
HETATM   34  C   UNK N   1      20.413  11.064   4.525  0.00  0.00     0.043 A 
HETATM   35  H   UNK N   1      22.219  11.656   5.394  0.00  0.00     0.166 HD
HETATM   36  C   UNK N   1      20.049   9.896   5.205  0.00  0.00     0.030 A 
HETATM   37  C   UNK N   1      18.786   9.331   4.928  0.00  0.00     0.002 A 
HETATM   38  C   UNK N   1      17.925   9.926   3.980  0.00  0.00     0.001 A 
HETATM   39  C   UNK N   1      18.321  11.093   3.310  0.00  0.00     0.014 A 
BRANCH  29  40
HETATM   40  C   UNK N   1      23.189  12.984   0.148  0.00  0.00     0.031 C 
HETATM   41  C   UNK N   1      22.932  11.490   0.300  0.00  0.00     0.010 C 
ENDBRANCH  29  40
BRANCH  21  42
HETATM   42  C   UNK N   1      20.833  14.292   6.033  0.00  0.00     0.278 C 
HETATM   43  O   UNK N   1      19.687  14.742   6.073  0.00  0.00    -0.264 OA
BRANCH  42  44
HETATM   44  O   UNK N   1      21.378  13.767   7.153  0.00  0.00    -0.325 OA
HETATM   45  C   UNK N   1      20.888  14.074   8.402  0.00  0.00     0.213 C 
ENDBRANCH  42  44
ENDBRANCH  21  42
ENDBRANCH   1  21
BRANCH   2  46
HETATM   46  O   UNK N   1      22.241  17.329   5.608  0.00  0.00    -0.355 OA
HETATM   47  C   UNK N   1      22.076  18.583   5.060  0.00  0.00     0.210 C 
ENDBRANCH   2  46
BRANCH  12  48
HETATM   48  C   UNK N   1      28.657  12.340   2.242  0.00  0.00     0.014 C 
HETATM   49  C   UNK N   1      29.841  11.500   1.768  0.00  0.00     0.006 C 
ENDBRANCH  12  48
BRANCH  10  50
HETATM   50  C   UNK N   1      30.063  16.361   3.816  0.00  0.00     0.298 C 
HETATM   51  O   UNK N   1      30.744  16.813   2.906  0.00  0.00    -0.262 OA
BRANCH  50  52
HETATM   52  O   UNK N   1      30.256  16.803   5.083  0.00  0.00    -0.324 OA
HETATM   53  C   UNK N   1      31.496  17.171   5.549  0.00  0.00     0.213 C 
ENDBRANCH  50  52
ENDBRANCH  10  50
BRANCH  10  54
HETATM   54  O   UNK N   1      28.873  15.214   2.143  0.00  0.00    -0.375 OA
HETATM   55  H   UNK N   1      28.516  15.148   1.243  0.00  0.00     0.211 HD
ENDBRANCH  10  54
BRANCH  11  56
HETATM   56  O   UNK N   1      30.919  13.509   3.962  0.00  0.00    -0.311 OA
BRANCH  56  57
HETATM   57  C   UNK N   1      31.909  13.602   4.888  0.00  0.00     0.255 C 
HETATM   58  O   UNK N   1      31.628  13.453   6.064  0.00  0.00    -0.266 OA
HETATM   59  C   UNK N   1      33.328  13.899   4.528  0.00  0.00     0.126 C 
ENDBRANCH  56  57
ENDBRANCH  11  56
TORSDOF 11
ENDMDL
MODEL 8
REMARK VINA RESULT:      -6.6     12.003     14.581
REMARK  11 active torsions:
REMARK  status: ('A' for Active; 'I' for Inactive)
REMARK    1  A    between atoms: C_14  and  C_51 
REMARK    2  A    between atoms: C_17  and  C_18 
REMARK    3  A    between atoms: C_17  and  C_19 
REMARK    4  A    between atoms: C_18  and  O_49 
REMARK    5  A    between atoms: C_20  and  O_46 
REMARK    6  A    between atoms: C_28  and  C_38 
REMARK    7  A    between atoms: C_28  and  O_53 
REMARK    8  A    between atoms: C_29  and  O_41 
REMARK    9  A    between atoms: C_30  and  C_39 
REMARK   10  A    between atoms: C_38  and  O_55 
REMARK   11  A    between atoms: O_41  and  C_42 
ROOT
HETATM    1  C   UNK N   1      29.927  22.562  -5.407  0.00  0.00     0.000 A 
HETATM    2  C   UNK N   1      30.023  22.006  -4.057  0.00  0.00     0.078 A 
HETATM    3  C   UNK N   1      31.059  21.085  -3.743  0.00  0.00     0.067 A 
HETATM    4  C   UNK N   1      30.846  22.057  -6.351  0.00  0.00     0.022 A 
HETATM    5  C   UNK N   1      31.838  21.155  -5.999  0.00  0.00    -0.018 A 
HETATM    6  C   UNK N   1      31.965  20.715  -4.722  0.00  0.00     0.040 A 
HETATM    7  N   UNK N   1      33.150  19.974  -4.571  0.00  0.00    -0.375 N 
HETATM    8  C   UNK N   1      33.091  20.803  -6.773  0.00  0.00     0.047 C 
HETATM    9  C   UNK N   1      33.624  19.627  -5.899  0.00  0.00     0.146 C 
HETATM   10  C   UNK N   1      35.041  19.137  -6.316  0.00  0.00     0.194 C 
HETATM   11  C   UNK N   1      34.828  18.669  -7.828  0.00  0.00     0.193 C 
HETATM   12  C   UNK N   1      34.312  19.778  -8.798  0.00  0.00     0.039 C 
HETATM   13  C   UNK N   1      33.831  19.314 -10.153  0.00  0.00    -0.015 C 
HETATM   14  C   UNK N   1      33.158  20.203 -10.914  0.00  0.00    -0.000 C 
HETATM   15  C   UNK N   1      32.883  21.605 -10.375  0.00  0.00     0.300 C 
HETATM   16  C   UNK N   1      32.982  20.402  -8.207  0.00  0.00     0.253 C 
HETATM   17  N   UNK N   1      32.654  21.645  -8.910  0.00  0.00     0.098 N 
HETATM   18  C   UNK N   1      33.525  22.640  -8.266  0.00  0.00     0.274 C 
HETATM   19  C   UNK N   1      33.907  22.087  -6.874  0.00  0.00     0.049 C 
HETATM   20  C   UNK N   1      33.854  19.845  -3.322  0.00  0.00     0.150 C 
ENDROOT
BRANCH   1  21
HETATM   21  C   UNK N   1      29.205  23.941  -5.770  0.00  0.00     0.121 C 
HETATM   22  C   UNK N   1      29.277  23.969  -7.310  0.00  0.00     0.041 C 
HETATM   23  C   UNK N   1      28.321  23.062  -8.135  0.00  0.00     0.038 C 
HETATM   24  C   UNK N   1      27.697  23.865  -9.251  0.00  0.00     0.281 C 
HETATM   25  C   UNK N   1      27.221  22.261  -7.435  0.00  0.00    -0.016 C 
HETATM   26  N   UNK N   1      26.593  24.649  -8.720  0.00  0.00     0.097 N 
HETATM   27  C   UNK N   1      25.471  23.812  -8.257  0.00  0.00     0.306 C 
HETATM   28  C   UNK N   1      27.103  25.674  -7.792  0.00  0.00     0.314 C 
HETATM   29  C   UNK N   1      25.916  22.555  -7.547  0.00  0.00    -0.056 C 
HETATM   30  C   UNK N   1      27.065  25.399  -6.289  0.00  0.00     0.007 A 
HETATM   31  C   UNK N   1      27.806  24.537  -5.405  0.00  0.00     0.042 A 
HETATM   32  C   UNK N   1      26.477  26.329  -5.483  0.00  0.00     0.001 A 
HETATM   33  N   UNK N   1      27.529  24.898  -4.112  0.00  0.00    -0.357 N 
HETATM   34  C   UNK N   1      26.766  26.000  -4.192  0.00  0.00     0.043 A 
HETATM   35  H   UNK N   1      27.828  24.442  -3.291  0.00  0.00     0.166 HD
HETATM   36  C   UNK N   1      26.466  26.884  -3.148  0.00  0.00     0.030 A 
HETATM   37  C   UNK N   1      25.864  28.118  -3.475  0.00  0.00     0.002 A 
HETATM   38  C   UNK N   1      25.562  28.438  -4.817  0.00  0.00     0.001 A 
HETATM   39  C   UNK N   1      25.870  27.529  -5.839  0.00  0.00     0.014 A 
BRANCH  29  40
HETATM   40  C   UNK N   1      24.898  21.611  -6.982  0.00  0.00     0.031 C 
HETATM   41  C   UNK N   1      25.188  20.187  -7.440  0.00  0.00     0.010 C 
ENDBRANCH  29  40
BRANCH  21  42
HETATM   42  C   UNK N   1      30.072  25.090  -5.246  0.00  0.00     0.278 C 
HETATM   43  O   UNK N   1      30.618  25.854  -6.044  0.00  0.00    -0.264 OA
BRANCH  42  44
HETATM   44  O   UNK N   1      30.300  25.244  -3.923  0.00  0.00    -0.325 OA
HETATM   45  C   UNK N   1      30.814  26.414  -3.412  0.00  0.00     0.213 C 
ENDBRANCH  42  44
ENDBRANCH  21  42
ENDBRANCH   1  21
BRANCH   2  46
HETATM   46  O   UNK N   1      29.206  22.411  -3.057  0.00  0.00    -0.355 OA
HETATM   47  C   UNK N   1      29.643  22.813  -1.813  0.00  0.00     0.210 C 
ENDBRANCH   2  46
BRANCH  12  48
HETATM   48  C   UNK N   1      35.469  20.801  -9.022  0.00  0.00     0.014 C 
HETATM   49  C   UNK N   1      36.552  20.368 -10.007  0.00  0.00     0.006 C 
ENDBRANCH  12  48
BRANCH  10  50
HETATM   50  C   UNK N   1      35.568  18.025  -5.429  0.00  0.00     0.298 C 
HETATM   51  O   UNK N   1      36.622  18.184  -4.827  0.00  0.00    -0.262 OA
BRANCH  50  52
HETATM   52  O   UNK N   1      34.929  16.832  -5.360  0.00  0.00    -0.324 OA
HETATM   53  C   UNK N   1      35.586  15.666  -5.043  0.00  0.00     0.213 C 
ENDBRANCH  50  52
ENDBRANCH  10  50
BRANCH  10  54
HETATM   54  O   UNK N   1      35.947  20.199  -6.242  0.00  0.00    -0.375 OA
HETATM   55  H   UNK N   1      36.393  21.051  -6.115  0.00  0.00     0.211 HD
ENDBRANCH  10  54
BRANCH  11  56
HETATM   56  O   UNK N   1      35.756  17.806  -8.395  0.00  0.00    -0.311 OA
BRANCH  56  57
HETATM   57  C   UNK N   1      35.642  16.488  -8.708  0.00  0.00     0.255 C 
HETATM   58  O   UNK N   1      36.657  15.837  -8.882  0.00  0.00    -0.266 OA
HETATM   59  C   UNK N   1      34.324  15.806  -8.866  0.00  0.00     0.126 C 
ENDBRANCH  56  57
ENDBRANCH  11  56
TORSDOF 11
ENDMDL
MODEL 9
REMARK VINA RESULT:      -6.6      4.620      8.903
REMARK  11 active torsions:
REMARK  status: ('A' for Active; 'I' for Inactive)
REMARK    1  A    between atoms: C_14  and  C_51 
REMARK    2  A    between atoms: C_17  and  C_18 
REMARK    3  A    between atoms: C_17  and  C_19 
REMARK    4  A    between atoms: C_18  and  O_49 
REMARK    5  A    between atoms: C_20  and  O_46 
REMARK    6  A    between atoms: C_28  and  C_38 
REMARK    7  A    between atoms: C_28  and  O_53 
REMARK    8  A    between atoms: C_29  and  O_41 
REMARK    9  A    between atoms: C_30  and  C_39 
REMARK   10  A    between atoms: C_38  and  O_55 
REMARK   11  A    between atoms: O_41  and  C_42 
ROOT
HETATM    1  C   UNK N   1      32.920  14.615   7.002  0.00  0.00     0.000 A 
HETATM    2  C   UNK N   1      33.676  15.761   7.507  0.00  0.00     0.078 A 
HETATM    3  C   UNK N   1      34.570  15.594   8.598  0.00  0.00     0.067 A 
HETATM    4  C   UNK N   1      33.072  13.409   7.719  0.00  0.00     0.022 A 
HETATM    5  C   UNK N   1      33.954  13.294   8.782  0.00  0.00    -0.018 A 
HETATM    6  C   UNK N   1      34.710  14.347   9.182  0.00  0.00     0.040 A 
HETATM    7  N   UNK N   1      35.660  13.938  10.134  0.00  0.00    -0.375 N 
HETATM    8  C   UNK N   1      34.495  12.027   9.407  0.00  0.00     0.047 C 
HETATM    9  C   UNK N   1      35.256  12.632  10.625  0.00  0.00     0.146 C 
HETATM   10  C   UNK N   1      36.112  11.590  11.403  0.00  0.00     0.194 C 
HETATM   11  C   UNK N   1      35.027  10.523  11.884  0.00  0.00     0.193 C 
HETATM   12  C   UNK N   1      34.218   9.838  10.739  0.00  0.00     0.039 C 
HETATM   13  C   UNK N   1      33.002   9.045  11.158  0.00  0.00    -0.015 C 
HETATM   14  C   UNK N   1      32.150   8.650  10.188  0.00  0.00    -0.000 C 
HETATM   15  C   UNK N   1      32.422   9.041   8.737  0.00  0.00     0.300 C 
HETATM   16  C   UNK N   1      33.548  10.957   9.840  0.00  0.00     0.253 C 
HETATM   17  N   UNK N   1      33.060  10.371   8.590  0.00  0.00     0.098 N 
HETATM   18  C   UNK N   1      34.270  10.288   7.758  0.00  0.00     0.274 C 
HETATM   19  C   UNK N   1      35.284  11.313   8.314  0.00  0.00     0.049 C 
HETATM   20  C   UNK N   1      36.916  14.609  10.345  0.00  0.00     0.150 C 
ENDROOT
BRANCH   1  21
HETATM   21  C   UNK N   1      32.318  14.505   5.524  0.00  0.00     0.121 C 
HETATM   22  C   UNK N   1      33.488  14.988   4.643  0.00  0.00     0.041 C 
HETATM   23  C   UNK N   1      34.698  14.044   4.397  0.00  0.00     0.038 C 
HETATM   24  C   UNK N   1      35.044  14.036   2.928  0.00  0.00     0.281 C 
HETATM   25  C   UNK N   1      34.665  12.599   4.899  0.00  0.00    -0.016 C 
HETATM   26  N   UNK N   1      34.131  13.148   2.223  0.00  0.00     0.097 N 
HETATM   27  C   UNK N   1      34.305  11.734   2.605  0.00  0.00     0.306 C 
HETATM   28  C   UNK N   1      32.764  13.698   2.259  0.00  0.00     0.314 C 
HETATM   29  C   UNK N   1      34.559  11.541   4.082  0.00  0.00    -0.056 C 
HETATM   30  C   UNK N   1      31.782  13.176   3.307  0.00  0.00     0.007 A 
HETATM   31  C   UNK N   1      31.652  13.333   4.733  0.00  0.00     0.042 A 
HETATM   32  C   UNK N   1      30.566  12.732   2.877  0.00  0.00     0.001 A 
HETATM   33  N   UNK N   1      30.425  12.856   5.113  0.00  0.00    -0.357 N 
HETATM   34  C   UNK N   1      29.781  12.544   3.977  0.00  0.00     0.043 A 
HETATM   35  H   UNK N   1      30.084  12.761   6.033  0.00  0.00     0.166 HD
HETATM   36  C   UNK N   1      28.413  12.283   3.837  0.00  0.00     0.030 A 
HETATM   37  C   UNK N   1      27.876  12.225   2.534  0.00  0.00     0.002 A 
HETATM   38  C   UNK N   1      28.706  12.412   1.405  0.00  0.00     0.001 A 
HETATM   39  C   UNK N   1      30.074  12.666   1.577  0.00  0.00     0.014 A 
BRANCH  29  40
HETATM   40  C   UNK N   1      34.722  10.159   4.640  0.00  0.00     0.031 C 
HETATM   41  C   UNK N   1      33.540   9.286   4.241  0.00  0.00     0.010 C 
ENDBRANCH  29  40
BRANCH  21  42
HETATM   42  C   UNK N   1      31.185  15.527   5.390  0.00  0.00     0.278 C 
HETATM   43  O   UNK N   1      31.180  16.307   4.437  0.00  0.00    -0.264 OA
BRANCH  42  44
HETATM   44  O   UNK N   1      30.223  15.630   6.334  0.00  0.00    -0.325 OA
HETATM   45  C   UNK N   1      29.928  16.834   6.932  0.00  0.00     0.213 C 
ENDBRANCH  42  44
ENDBRANCH  21  42
ENDBRANCH   1  21
BRANCH   2  46
HETATM   46  O   UNK N   1      33.625  16.973   6.905  0.00  0.00    -0.355 OA
HETATM   47  C   UNK N   1      33.690  18.175   7.576  0.00  0.00     0.210 C 
ENDBRANCH   2  46
BRANCH  12  48
HETATM   48  C   UNK N   1      35.180   8.876   9.975  0.00  0.00     0.014 C 
HETATM   49  C   UNK N   1      35.375   7.500  10.605  0.00  0.00     0.006 C 
ENDBRANCH  12  48
BRANCH  10  50
HETATM   50  C   UNK N   1      36.885  12.201  12.557  0.00  0.00     0.298 C 
HETATM   51  O   UNK N   1      38.019  11.808  12.796  0.00  0.00    -0.262 OA
BRANCH  50  52
HETATM   52  O   UNK N   1      36.304  13.115  13.372  0.00  0.00    -0.324 OA
HETATM   53  C   UNK N   1      36.626  13.217  14.705  0.00  0.00     0.213 C 
ENDBRANCH  50  52
ENDBRANCH  10  50
BRANCH  10  54
HETATM   54  O   UNK N   1      37.042  11.006  10.537  0.00  0.00    -0.375 OA
HETATM   55  H   UNK N   1      37.524  10.442   9.912  0.00  0.00     0.211 HD
ENDBRANCH  10  54
BRANCH  11  56
HETATM   56  O   UNK N   1      35.348   9.676  12.938  0.00  0.00    -0.311 OA
BRANCH  56  57
HETATM   57  C   UNK N   1      34.901   9.675  14.221  0.00  0.00     0.255 C 
HETATM   58  O   UNK N   1      35.370   8.868  15.004  0.00  0.00    -0.266 OA
HETATM   59  C   UNK N   1      33.842  10.608  14.709  0.00  0.00     0.126 C 
ENDBRANCH  56  57
ENDBRANCH  11  56
TORSDOF 11
ENDMDL
