MODEL 1
REMARK VINA RESULT:      -6.2      0.000      0.000
REMARK  6 active torsions:
REMARK  status: ('A' for Active; 'I' for Inactive)
REMARK    1  A    between atoms: O_21  and  C_2 
REMARK    2  A    between atoms: C_19  and  C_15 
REMARK    3  A    between atoms: O_21  and  C_16 
REMARK    4  A    between atoms: O_23  and  C_17 
REMARK    5  A    between atoms: C_18  and  C_19 
REMARK    6  A    between atoms: C_19  and  O_23 
ROOT
HETATM    1  C   UNK N   1      28.603  17.221   4.916  0.00  0.00     0.192 C 
ENDROOT
BRANCH   1   2
HETATM    2  C   UNK N   1      27.967  18.588   5.159  0.00  0.00    -0.026 A 
HETATM    3  C   UNK N   1      27.456  19.382   4.114  0.00  0.00     0.010 A 
HETATM    4  C   UNK N   1      26.887  20.630   4.373  0.00  0.00     0.001 A 
HETATM    5  C   UNK N   1      26.807  21.099   5.685  0.00  0.00     0.000 A 
HETATM    6  C   UNK N   1      27.297  20.320   6.734  0.00  0.00     0.001 A 
HETATM    7  C   UNK N   1      27.876  19.072   6.474  0.00  0.00     0.010 A 
ENDBRANCH   1   2
BRANCH   1   8
HETATM    8  C   UNK N   1      27.544  16.056   4.864  0.00  0.00     0.172 C 
HETATM    9  C   UNK N   1      26.794  15.938   3.515  0.00  0.00     0.148 C 
HETATM   10  N   UNK N   1      27.675  15.438   2.466  0.00  0.00    -0.417 N 
HETATM   11  C   UNK N   1      28.141  14.125   2.884  0.00  0.00     0.140 C 
HETATM   12  H   UNK N   1      27.919  15.920   1.602  0.00  0.00     0.153 HD
HETATM   13  C   UNK N   1      28.902  14.278   4.192  0.00  0.00     0.187 C 
HETATM   14  O   UNK N   1      28.065  14.783   5.220  0.00  0.00    -0.380 OA
ENDBRANCH   1   8
BRANCH   1  15
HETATM   15  O   UNK N   1      29.537  17.044   5.941  0.00  0.00    -0.336 OA
BRANCH  15  16
HETATM   16  C   UNK N   1      30.892  17.196   5.903  0.00  0.00     0.103 A 
HETATM   17  C   UNK N   1      31.577  17.247   4.682  0.00  0.00     0.040 A 
HETATM   18  C   UNK N   1      32.965  17.370   4.634  0.00  0.00     0.003 A 
HETATM   19  C   UNK N   1      33.695  17.451   5.815  0.00  0.00     0.003 A 
HETATM   20  C   UNK N   1      33.035  17.432   7.042  0.00  0.00     0.039 A 
HETATM   21  C   UNK N   1      31.640  17.317   7.110  0.00  0.00     0.102 A 
BRANCH  21  22
HETATM   22  O   UNK N   1      31.076  17.334   8.345  0.00  0.00    -0.349 OA
BRANCH  22  23
HETATM   23  C   UNK N   1      30.584  18.447   8.984  0.00  0.00     0.171 C 
HETATM   24  C   UNK N   1      29.336  18.065   9.755  0.00  0.00     0.034 C 
ENDBRANCH  22  23
ENDBRANCH  21  22
ENDBRANCH  15  16
ENDBRANCH   1  15
TORSDOF 6
ENDMDL
MODEL 2
REMARK VINA RESULT:      -6.0     12.558     14.888
REMARK  6 active torsions:
REMARK  status: ('A' for Active; 'I' for Inactive)
REMARK    1  A    between atoms: O_21  and  C_2 
REMARK    2  A    between atoms: C_19  and  C_15 
REMARK    3  A    between atoms: O_21  and  C_16 
REMARK    4  A    between atoms: O_23  and  C_17 
REMARK    5  A    between atoms: C_18  and  C_19 
REMARK    6  A    between atoms: C_19  and  O_23 
ROOT
HETATM    1  C   UNK N   1      26.159  24.178  -7.276  0.00  0.00     0.192 C 
ENDROOT
BRANCH   1   2
HETATM    2  C   UNK N   1      27.176  25.222  -7.731  0.00  0.00    -0.026 A 
HETATM    3  C   UNK N   1      26.881  26.193  -8.707  0.00  0.00     0.010 A 
HETATM    4  C   UNK N   1      27.839  27.128  -9.102  0.00  0.00     0.001 A 
HETATM    5  C   UNK N   1      29.106  27.116  -8.516  0.00  0.00     0.000 A 
HETATM    6  C   UNK N   1      29.412  26.169  -7.538  0.00  0.00     0.001 A 
HETATM    7  C   UNK N   1      28.454  25.226  -7.148  0.00  0.00     0.010 A 
ENDBRANCH   1   2
BRANCH   1   8
HETATM    8  C   UNK N   1      25.486  23.417  -8.480  0.00  0.00     0.172 C 
HETATM    9  C   UNK N   1      26.453  22.512  -9.281  0.00  0.00     0.148 C 
HETATM   10  N   UNK N   1      26.835  21.337  -8.507  0.00  0.00    -0.417 N 
HETATM   11  C   UNK N   1      25.615  20.604  -8.205  0.00  0.00     0.140 C 
HETATM   12  H   UNK N   1      27.781  21.078  -8.228  0.00  0.00     0.153 HD
HETATM   13  C   UNK N   1      24.701  21.506  -7.390  0.00  0.00     0.187 C 
HETATM   14  O   UNK N   1      24.335  22.665  -8.121  0.00  0.00    -0.380 OA
ENDBRANCH   1   8
BRANCH   1  15
HETATM   15  O   UNK N   1      25.226  24.863  -6.494  0.00  0.00    -0.336 OA
BRANCH  15  16
HETATM   16  C   UNK N   1      25.440  25.802  -5.528  0.00  0.00     0.103 A 
HETATM   17  C   UNK N   1      24.967  27.113  -5.679  0.00  0.00     0.040 A 
HETATM   18  C   UNK N   1      25.210  28.087  -4.713  0.00  0.00     0.003 A 
HETATM   19  C   UNK N   1      25.930  27.764  -3.567  0.00  0.00     0.003 A 
HETATM   20  C   UNK N   1      26.388  26.461  -3.380  0.00  0.00     0.039 A 
HETATM   21  C   UNK N   1      26.146  25.466  -4.337  0.00  0.00     0.102 A 
BRANCH  21  22
HETATM   22  O   UNK N   1      26.604  24.217  -4.061  0.00  0.00    -0.349 OA
BRANCH  22  23
HETATM   23  C   UNK N   1      27.445  23.884  -3.026  0.00  0.00     0.171 C 
HETATM   24  C   UNK N   1      28.840  23.658  -3.574  0.00  0.00     0.034 C 
ENDBRANCH  22  23
ENDBRANCH  21  22
ENDBRANCH  15  16
ENDBRANCH   1  15
TORSDOF 6
ENDMDL
MODEL 3
REMARK VINA RESULT:      -6.0      1.327      4.724
REMARK  6 active torsions:
REMARK  status: ('A' for Active; 'I' for Inactive)
REMARK    1  A    between atoms: O_21  and  C_2 
REMARK    2  A    between atoms: C_19  and  C_15 
REMARK    3  A    between atoms: O_21  and  C_16 
REMARK    4  A    between atoms: O_23  and  C_17 
REMARK    5  A    between atoms: C_18  and  C_19 
REMARK    6  A    between atoms: C_19  and  O_23 
ROOT
HETATM    1  C   UNK N   1      29.584  17.088   5.040  0.00  0.00     0.192 C 
ENDROOT
BRANCH   1   2
HETATM    2  C   UNK N   1      31.011  17.080   5.586  0.00  0.00    -0.026 A 
HETATM    3  C   UNK N   1      31.314  16.696   6.906  0.00  0.00     0.010 A 
HETATM    4  C   UNK N   1      32.630  16.708   7.373  0.00  0.00     0.001 A 
HETATM    5  C   UNK N   1      33.667  17.091   6.520  0.00  0.00     0.000 A 
HETATM    6  C   UNK N   1      33.385  17.463   5.204  0.00  0.00     0.001 A 
HETATM    7  C   UNK N   1      32.065  17.460   4.740  0.00  0.00     0.010 A 
ENDBRANCH   1   2
BRANCH   1   8
HETATM    8  C   UNK N   1      29.389  16.097   3.831  0.00  0.00     0.172 C 
HETATM    9  C   UNK N   1      29.614  14.608   4.186  0.00  0.00     0.148 C 
HETATM   10  N   UNK N   1      28.535  14.098   5.024  0.00  0.00    -0.417 N 
HETATM   11  C   UNK N   1      27.300  14.240   4.267  0.00  0.00     0.140 C 
HETATM   12  H   UNK N   1      28.629  13.715   5.963  0.00  0.00     0.153 HD
HETATM   13  C   UNK N   1      27.088  15.715   3.964  0.00  0.00     0.187 C 
HETATM   14  O   UNK N   1      28.140  16.233   3.167  0.00  0.00    -0.380 OA
ENDBRANCH   1   8
BRANCH   1  15
HETATM   15  O   UNK N   1      29.313  18.413   4.689  0.00  0.00    -0.336 OA
BRANCH  15  16
HETATM   16  C   UNK N   1      28.261  19.200   5.055  0.00  0.00     0.103 A 
HETATM   17  C   UNK N   1      27.384  19.723   4.094  0.00  0.00     0.040 A 
HETATM   18  C   UNK N   1      26.326  20.554   4.456  0.00  0.00     0.003 A 
HETATM   19  C   UNK N   1      26.120  20.874   5.794  0.00  0.00     0.003 A 
HETATM   20  C   UNK N   1      26.960  20.343   6.771  0.00  0.00     0.039 A 
HETATM   21  C   UNK N   1      28.025  19.499   6.428  0.00  0.00     0.102 A 
BRANCH  21  22
HETATM   22  O   UNK N   1      28.777  19.005   7.445  0.00  0.00    -0.349 OA
BRANCH  22  23
HETATM   23  C   UNK N   1      28.294  18.570   8.657  0.00  0.00     0.171 C 
HETATM   24  C   UNK N   1      29.441  18.488   9.646  0.00  0.00     0.034 C 
ENDBRANCH  22  23
ENDBRANCH  21  22
ENDBRANCH  15  16
ENDBRANCH   1  15
TORSDOF 6
ENDMDL
MODEL 4
REMARK VINA RESULT:      -6.0     11.713     13.893
REMARK  6 active torsions:
REMARK  status: ('A' for Active; 'I' for Inactive)
REMARK    1  A    between atoms: O_21  and  C_2 
REMARK    2  A    between atoms: C_19  and  C_15 
REMARK    3  A    between atoms: O_21  and  C_16 
REMARK    4  A    between atoms: O_23  and  C_17 
REMARK    5  A    between atoms: C_18  and  C_19 
REMARK    6  A    between atoms: C_19  and  O_23 
ROOT
HETATM    1  C   UNK N   1      27.385  24.100  -6.123  0.00  0.00     0.192 C 
ENDROOT
BRANCH   1   2
HETATM    2  C   UNK N   1      26.743  23.080  -7.062  0.00  0.00    -0.026 A 
HETATM    3  C   UNK N   1      27.294  22.754  -8.317  0.00  0.00     0.010 A 
HETATM    4  C   UNK N   1      26.675  21.822  -9.152  0.00  0.00     0.001 A 
HETATM    5  C   UNK N   1      25.502  21.189  -8.739  0.00  0.00     0.000 A 
HETATM    6  C   UNK N   1      24.949  21.491  -7.493  0.00  0.00     0.001 A 
HETATM    7  C   UNK N   1      25.564  22.433  -6.660  0.00  0.00     0.010 A 
ENDBRANCH   1   2
BRANCH   1   8
HETATM    8  C   UNK N   1      27.191  25.585  -6.611  0.00  0.00     0.172 C 
HETATM    9  C   UNK N   1      25.723  25.965  -6.923  0.00  0.00     0.148 C 
HETATM   10  N   UNK N   1      24.935  26.064  -5.701  0.00  0.00    -0.417 N 
HETATM   11  C   UNK N   1      25.544  27.098  -4.877  0.00  0.00     0.140 C 
HETATM   12  H   UNK N   1      24.111  25.511  -5.467  0.00  0.00     0.153 HD
HETATM   13  C   UNK N   1      26.972  26.679  -4.559  0.00  0.00     0.187 C 
HETATM   14  O   UNK N   1      27.749  26.558  -5.739  0.00  0.00    -0.380 OA
ENDBRANCH   1   8
BRANCH   1  15
HETATM   15  O   UNK N   1      28.733  23.743  -6.031  0.00  0.00    -0.336 OA
BRANCH  15  16
HETATM   16  C   UNK N   1      29.360  22.998  -5.077  0.00  0.00     0.103 A 
HETATM   17  C   UNK N   1      29.422  23.435  -3.746  0.00  0.00     0.040 A 
HETATM   18  C   UNK N   1      30.090  22.696  -2.771  0.00  0.00     0.003 A 
HETATM   19  C   UNK N   1      30.705  21.496  -3.110  0.00  0.00     0.003 A 
HETATM   20  C   UNK N   1      30.634  21.025  -4.420  0.00  0.00     0.039 A 
HETATM   21  C   UNK N   1      29.961  21.750  -5.412  0.00  0.00     0.102 A 
BRANCH  21  22
HETATM   22  O   UNK N   1      29.917  21.205  -6.656  0.00  0.00    -0.349 OA
BRANCH  22  23
HETATM   23  C   UNK N   1      30.216  19.900  -6.967  0.00  0.00     0.171 C 
HETATM   24  C   UNK N   1      29.060  19.298  -7.741  0.00  0.00     0.034 C 
ENDBRANCH  22  23
ENDBRANCH  21  22
ENDBRANCH  15  16
ENDBRANCH   1  15
TORSDOF 6
ENDMDL
MODEL 5
REMARK VINA RESULT:      -6.0      2.239      6.248
REMARK  6 active torsions:
REMARK  status: ('A' for Active; 'I' for Inactive)
REMARK    1  A    between atoms: O_21  and  C_2 
REMARK    2  A    between atoms: C_19  and  C_15 
REMARK    3  A    between atoms: O_21  and  C_16 
REMARK    4  A    between atoms: O_23  and  C_17 
REMARK    5  A    between atoms: C_18  and  C_19 
REMARK    6  A    between atoms: C_19  and  O_23 
ROOT
HETATM    1  C   UNK N   1      29.665  17.470   5.770  0.00  0.00     0.192 C 
ENDROOT
BRANCH   1   2
HETATM    2  C   UNK N   1      30.761  16.917   4.860  0.00  0.00    -0.026 A 
HETATM    3  C   UNK N   1      31.818  17.712   4.377  0.00  0.00     0.010 A 
HETATM    4  C   UNK N   1      32.798  17.172   3.542  0.00  0.00     0.001 A 
HETATM    5  C   UNK N   1      32.744  15.824   3.187  0.00  0.00     0.000 A 
HETATM    6  C   UNK N   1      31.710  15.018   3.667  0.00  0.00     0.001 A 
HETATM    7  C   UNK N   1      30.722  15.561   4.497  0.00  0.00     0.010 A 
ENDBRANCH   1   2
BRANCH   1   8
HETATM    8  C   UNK N   1      29.642  16.781   7.186  0.00  0.00     0.172 C 
HETATM    9  C   UNK N   1      30.963  16.918   7.982  0.00  0.00     0.148 C 
HETATM   10  N   UNK N   1      31.159  18.288   8.442  0.00  0.00    -0.417 N 
HETATM   11  C   UNK N   1      30.032  18.618   9.302  0.00  0.00     0.140 C 
HETATM   12  H   UNK N   1      31.939  18.899   8.205  0.00  0.00     0.153 HD
HETATM   13  C   UNK N   1      28.754  18.508   8.484  0.00  0.00     0.187 C 
HETATM   14  O   UNK N   1      28.558  17.186   8.010  0.00  0.00    -0.380 OA
ENDBRANCH   1   8
BRANCH   1  15
HETATM   15  O   UNK N   1      28.465  17.298   5.076  0.00  0.00    -0.336 OA
BRANCH  15  16
HETATM   16  C   UNK N   1      27.626  18.243   4.564  0.00  0.00     0.103 A 
HETATM   17  C   UNK N   1      27.916  19.609   4.690  0.00  0.00     0.040 A 
HETATM   18  C   UNK N   1      27.048  20.582   4.199  0.00  0.00     0.003 A 
HETATM   19  C   UNK N   1      25.870  20.205   3.563  0.00  0.00     0.003 A 
HETATM   20  C   UNK N   1      25.572  18.853   3.399  0.00  0.00     0.039 A 
HETATM   21  C   UNK N   1      26.437  17.860   3.879  0.00  0.00     0.102 A 
BRANCH  21  22
HETATM   22  O   UNK N   1      26.083  16.568   3.652  0.00  0.00    -0.349 OA
BRANCH  22  23
HETATM   23  C   UNK N   1      26.157  15.920   2.442  0.00  0.00     0.171 C 
HETATM   24  C   UNK N   1      27.501  15.225   2.334  0.00  0.00     0.034 C 
ENDBRANCH  22  23
ENDBRANCH  21  22
ENDBRANCH  15  16
ENDBRANCH   1  15
TORSDOF 6
ENDMDL
MODEL 6
REMARK VINA RESULT:      -5.9     13.099     15.026
REMARK  6 active torsions:
REMARK  status: ('A' for Active; 'I' for Inactive)
REMARK    1  A    between atoms: O_21  and  C_2 
REMARK    2  A    between atoms: C_19  and  C_15 
REMARK    3  A    between atoms: O_21  and  C_16 
REMARK    4  A    between atoms: O_23  and  C_17 
REMARK    5  A    between atoms: C_18  and  C_19 
REMARK    6  A    between atoms: C_19  and  O_23 
ROOT
HETATM    1  C   UNK N   1      26.516  24.812  -7.921  0.00  0.00     0.192 C 
ENDROOT
BRANCH   1   2
HETATM    2  C   UNK N   1      26.376  25.999  -6.970  0.00  0.00    -0.026 A 
HETATM    3  C   UNK N   1      25.257  26.169  -6.131  0.00  0.00     0.010 A 
HETATM    4  C   UNK N   1      25.160  27.271  -5.279  0.00  0.00     0.001 A 
HETATM    5  C   UNK N   1      26.189  28.214  -5.242  0.00  0.00     0.000 A 
HETATM    6  C   UNK N   1      27.310  28.054  -6.057  0.00  0.00     0.001 A 
HETATM    7  C   UNK N   1      27.403  26.954  -6.918  0.00  0.00     0.010 A 
ENDBRANCH   1   2
BRANCH   1   8
HETATM    8  C   UNK N   1      25.344  24.729  -8.971  0.00  0.00     0.172 C 
HETATM    9  C   UNK N   1      25.269  25.937  -9.937  0.00  0.00     0.148 C 
HETATM   10  N   UNK N   1      26.375  25.919 -10.887  0.00  0.00    -0.417 N 
HETATM   11  C   UNK N   1      26.273  24.680 -11.643  0.00  0.00     0.140 C 
HETATM   12  H   UNK N   1      27.087  26.640 -11.000  0.00  0.00     0.153 HD
HETATM   13  C   UNK N   1      26.385  23.513 -10.672  0.00  0.00     0.187 C 
HETATM   14  O   UNK N   1      25.328  23.527  -9.727  0.00  0.00    -0.380 OA
ENDBRANCH   1   8
BRANCH   1  15
HETATM   15  O   UNK N   1      26.584  23.675  -7.111  0.00  0.00    -0.336 OA
BRANCH  15  16
HETATM   16  C   UNK N   1      27.614  22.795  -6.953  0.00  0.00     0.103 A 
HETATM   17  C   UNK N   1      27.749  21.685  -7.798  0.00  0.00     0.040 A 
HETATM   18  C   UNK N   1      28.778  20.762  -7.622  0.00  0.00     0.003 A 
HETATM   19  C   UNK N   1      29.701  20.938  -6.597  0.00  0.00     0.003 A 
HETATM   20  C   UNK N   1      29.606  22.049  -5.761  0.00  0.00     0.039 A 
HETATM   21  C   UNK N   1      28.582  22.992  -5.927  0.00  0.00     0.102 A 
BRANCH  21  22
HETATM   22  O   UNK N   1      28.580  24.059  -5.086  0.00  0.00    -0.349 OA
BRANCH  22  23
HETATM   23  C   UNK N   1      28.388  24.004  -3.726  0.00  0.00     0.171 C 
HETATM   24  C   UNK N   1      27.001  24.523  -3.400  0.00  0.00     0.034 C 
ENDBRANCH  22  23
ENDBRANCH  21  22
ENDBRANCH  15  16
ENDBRANCH   1  15
TORSDOF 6
ENDMDL
MODEL 7
REMARK VINA RESULT:      -5.9      2.818      6.415
REMARK  6 active torsions:
REMARK  status: ('A' for Active; 'I' for Inactive)
REMARK    1  A    between atoms: O_21  and  C_2 
REMARK    2  A    between atoms: C_19  and  C_15 
REMARK    3  A    between atoms: O_21  and  C_16 
REMARK    4  A    between atoms: O_23  and  C_17 
REMARK    5  A    between atoms: C_18  and  C_19 
REMARK    6  A    between atoms: C_19  and  O_23 
ROOT
HETATM    1  C   UNK N   1      32.673  17.422   6.315  0.00  0.00     0.192 C 
ENDROOT
BRANCH   1   2
HETATM    2  C   UNK N   1      32.603  16.437   5.151  0.00  0.00    -0.026 A 
HETATM    3  C   UNK N   1      33.047  16.762   3.855  0.00  0.00     0.010 A 
HETATM    4  C   UNK N   1      32.962  15.837   2.813  0.00  0.00     0.001 A 
HETATM    5  C   UNK N   1      32.441  14.564   3.054  0.00  0.00     0.000 A 
HETATM    6  C   UNK N   1      32.008  14.220   4.335  0.00  0.00     0.001 A 
HETATM    7  C   UNK N   1      32.086  15.151   5.378  0.00  0.00     0.010 A 
ENDBRANCH   1   2
BRANCH   1   8
HETATM    8  C   UNK N   1      34.138  17.624   6.856  0.00  0.00     0.172 C 
HETATM    9  C   UNK N   1      34.216  18.301   8.246  0.00  0.00     0.148 C 
HETATM   10  N   UNK N   1      33.750  17.402   9.295  0.00  0.00    -0.417 N 
HETATM   11  C   UNK N   1      34.612  16.230   9.273  0.00  0.00     0.140 C 
HETATM   12  H   UNK N   1      32.966  17.564   9.926  0.00  0.00     0.153 HD
HETATM   13  C   UNK N   1      34.489  15.568   7.909  0.00  0.00     0.187 C 
HETATM   14  O   UNK N   1      34.918  16.437   6.873  0.00  0.00    -0.380 OA
ENDBRANCH   1   8
BRANCH   1  15
HETATM   15  O   UNK N   1      31.810  16.923   7.294  0.00  0.00    -0.336 OA
BRANCH  15  16
HETATM   16  C   UNK N   1      30.645  17.456   7.764  0.00  0.00     0.103 A 
HETATM   17  C   UNK N   1      30.518  17.840   9.106  0.00  0.00     0.040 A 
HETATM   18  C   UNK N   1      29.321  18.354   9.602  0.00  0.00     0.003 A 
HETATM   19  C   UNK N   1      28.226  18.500   8.758  0.00  0.00     0.003 A 
HETATM   20  C   UNK N   1      28.335  18.153   7.413  0.00  0.00     0.039 A 
HETATM   21  C   UNK N   1      29.532  17.642   6.894  0.00  0.00     0.102 A 
BRANCH  21  22
HETATM   22  O   UNK N   1      29.560  17.355   5.566  0.00  0.00    -0.349 OA
BRANCH  22  23
HETATM   23  C   UNK N   1      28.677  16.532   4.908  0.00  0.00     0.171 C 
HETATM   24  C   UNK N   1      29.025  16.513   3.432  0.00  0.00     0.034 C 
ENDBRANCH  22  23
ENDBRANCH  21  22
ENDBRANCH  15  16
ENDBRANCH   1  15
TORSDOF 6
ENDMDL
MODEL 8
REMARK VINA RESULT:      -5.8      1.592      3.174
REMARK  6 active torsions:
REMARK  status: ('A' for Active; 'I' for Inactive)
REMARK    1  A    between atoms: O_21  and  C_2 
REMARK    2  A    between atoms: C_19  and  C_15 
REMARK    3  A    between atoms: O_21  and  C_16 
REMARK    4  A    between atoms: O_23  and  C_17 
REMARK    5  A    between atoms: C_18  and  C_19 
REMARK    6  A    between atoms: C_19  and  O_23 
ROOT
HETATM    1  C   UNK N   1      28.935  17.296   4.488  0.00  0.00     0.192 C 
ENDROOT
BRANCH   1   2
HETATM    2  C   UNK N   1      27.717  18.170   4.197  0.00  0.00    -0.026 A 
HETATM    3  C   UNK N   1      26.476  17.633   3.805  0.00  0.00     0.010 A 
HETATM    4  C   UNK N   1      25.385  18.465   3.541  0.00  0.00     0.001 A 
HETATM    5  C   UNK N   1      25.516  19.847   3.679  0.00  0.00     0.000 A 
HETATM    6  C   UNK N   1      26.735  20.395   4.080  0.00  0.00     0.001 A 
HETATM    7  C   UNK N   1      27.831  19.563   4.336  0.00  0.00     0.010 A 
ENDBRANCH   1   2
BRANCH   1   8
HETATM    8  C   UNK N   1      29.135  16.153   3.422  0.00  0.00     0.172 C 
HETATM    9  C   UNK N   1      30.574  15.588   3.357  0.00  0.00     0.148 C 
HETATM   10  N   UNK N   1      30.882  14.796   4.542  0.00  0.00    -0.417 N 
HETATM   11  C   UNK N   1      29.926  13.699   4.587  0.00  0.00     0.140 C 
HETATM   12  H   UNK N   1      31.626  14.977   5.214  0.00  0.00     0.153 HD
HETATM   13  C   UNK N   1      28.526  14.285   4.685  0.00  0.00     0.187 C 
HETATM   14  O   UNK N   1      28.217  15.076   3.549  0.00  0.00    -0.380 OA
ENDBRANCH   1   8
BRANCH   1  15
HETATM   15  O   UNK N   1      28.749  16.792   5.778  0.00  0.00    -0.336 OA
BRANCH  15  16
HETATM   16  C   UNK N   1      29.126  17.330   6.973  0.00  0.00     0.103 A 
HETATM   17  C   UNK N   1      28.180  17.896   7.839  0.00  0.00     0.040 A 
HETATM   18  C   UNK N   1      28.561  18.478   9.047  0.00  0.00     0.003 A 
HETATM   19  C   UNK N   1      29.902  18.499   9.415  0.00  0.00     0.003 A 
HETATM   20  C   UNK N   1      30.859  17.917   8.585  0.00  0.00     0.039 A 
HETATM   21  C   UNK N   1      30.494  17.321   7.370  0.00  0.00     0.102 A 
BRANCH  21  22
HETATM   22  O   UNK N   1      31.487  16.754   6.636  0.00  0.00    -0.349 OA
BRANCH  22  23
HETATM   23  C   UNK N   1      32.804  17.145   6.637  0.00  0.00     0.171 C 
HETATM   24  C   UNK N   1      33.203  17.545   5.230  0.00  0.00     0.034 C 
ENDBRANCH  22  23
ENDBRANCH  21  22
ENDBRANCH  15  16
ENDBRANCH   1  15
TORSDOF 6
ENDMDL
MODEL 9
REMARK VINA RESULT:      -5.7      9.397     12.481
REMARK  6 active torsions:
REMARK  status: ('A' for Active; 'I' for Inactive)
REMARK    1  A    between atoms: O_21  and  C_2 
REMARK    2  A    between atoms: C_19  and  C_15 
REMARK    3  A    between atoms: O_21  and  C_16 
REMARK    4  A    between atoms: O_23  and  C_17 
REMARK    5  A    between atoms: C_18  and  C_19 
REMARK    6  A    between atoms: C_19  and  O_23 
ROOT
HETATM    1  C   UNK N   1      35.777  12.735  14.369  0.00  0.00     0.192 C 
ENDROOT
BRANCH   1   2
HETATM    2  C   UNK N   1      36.052  13.649  15.562  0.00  0.00    -0.026 A 
HETATM    3  C   UNK N   1      37.025  14.666  15.529  0.00  0.00     0.010 A 
HETATM    4  C   UNK N   1      37.253  15.478  16.642  0.00  0.00     0.001 A 
HETATM    5  C   UNK N   1      36.500  15.294  17.802  0.00  0.00     0.000 A 
HETATM    6  C   UNK N   1      35.523  14.298  17.849  0.00  0.00     0.001 A 
HETATM    7  C   UNK N   1      35.300  13.479  16.736  0.00  0.00     0.010 A 
ENDBRANCH   1   2
BRANCH   1   8
HETATM    8  C   UNK N   1      35.939  11.208  14.720  0.00  0.00     0.172 C 
HETATM    9  C   UNK N   1      35.667  10.250  13.534  0.00  0.00     0.148 C 
HETATM   10  N   UNK N   1      36.732  10.330  12.541  0.00  0.00    -0.417 N 
HETATM   11  C   UNK N   1      37.969   9.948  13.205  0.00  0.00     0.140 C 
HETATM   12  H   UNK N   1      36.628  10.601  11.564  0.00  0.00     0.153 HD
HETATM   13  C   UNK N   1      38.227  10.927  14.341  0.00  0.00     0.187 C 
HETATM   14  O   UNK N   1      37.189  10.878  15.308  0.00  0.00    -0.380 OA
ENDBRANCH   1   8
BRANCH   1  15
HETATM   15  O   UNK N   1      36.654  13.144  13.361  0.00  0.00    -0.336 OA
BRANCH  15  16
HETATM   16  C   UNK N   1      36.382  13.824  12.211  0.00  0.00     0.103 A 
HETATM   17  C   UNK N   1      35.343  14.763  12.157  0.00  0.00     0.040 A 
HETATM   18  C   UNK N   1      35.037  15.439  10.977  0.00  0.00     0.003 A 
HETATM   19  C   UNK N   1      35.774  15.190   9.824  0.00  0.00     0.003 A 
HETATM   20  C   UNK N   1      36.830  14.282   9.858  0.00  0.00     0.039 A 
HETATM   21  C   UNK N   1      37.158  13.599  11.037  0.00  0.00     0.102 A 
BRANCH  21  22
HETATM   22  O   UNK N   1      38.219  12.753  10.988  0.00  0.00    -0.349 OA
BRANCH  22  23
HETATM   23  C   UNK N   1      38.940  12.439   9.861  0.00  0.00     0.171 C 
HETATM   24  C   UNK N   1      38.685  10.989   9.498  0.00  0.00     0.034 C 
ENDBRANCH  22  23
ENDBRANCH  21  22
ENDBRANCH  15  16
ENDBRANCH   1  15
TORSDOF 6
ENDMDL
