MODEL 1
REMARK VINA RESULT:      -7.5      0.000      0.000
REMARK  3 active torsions:
REMARK  status: ('A' for Active; 'I' for Inactive)
REMARK    1  A    between atoms: C_3  and  O_21 
REMARK    2  A    between atoms: C_3  and  C_22 
REMARK    3  A    between atoms: O_21  and  C_26 
ROOT
HETATM    1  C   UNK N   1      26.309  25.533  -9.486  0.00  0.00     0.009 C 
HETATM    2  C   UNK N   1      28.408  27.477  -8.200  0.00  0.00     0.014 C 
HETATM    3  C   UNK N   1      26.096  23.195  -8.983  0.00  0.00     0.138 C 
HETATM    4  C   UNK N   1      26.502  24.026  -6.528  0.00  0.00     0.013 C 
HETATM    5  C   UNK N   1      25.274  24.419  -9.331  0.00  0.00     0.048 C 
HETATM    6  C   UNK N   1      26.943  27.476  -5.559  0.00  0.00    -0.016 C 
HETATM    7  C   UNK N   1      25.744  25.336  -6.359  0.00  0.00     0.007 C 
HETATM    8  C   UNK N   1      28.824  28.470  -7.113  0.00  0.00     0.012 C 
HETATM    9  C   UNK N   1      27.740  28.680  -6.061  0.00  0.00    -0.064 C 
HETATM   10  C   UNK N   1      25.638  27.945  -4.892  0.00  0.00     0.022 C 
HETATM   11  C   UNK N   1      27.741  29.821  -5.343  0.00  0.00     0.054 C 
HETATM   12  C   UNK N   1      25.862  28.962  -3.776  0.00  0.00     0.084 C 
HETATM   13  C   UNK N   1      27.859  26.197  -7.574  0.00  0.00    -0.004 C 
HETATM   14  C   UNK N   1      26.585  26.567  -6.757  0.00  0.00     0.002 C 
HETATM   15  C   UNK N   1      27.101  23.784  -7.944  0.00  0.00    -0.001 C 
HETATM   16  C   UNK N   1      28.297  22.881  -7.667  0.00  0.00     0.019 C 
HETATM   17  C   UNK N   1      27.516  25.121  -8.622  0.00  0.00     0.002 C 
HETATM   18  O   UNK N   1      26.976  31.014  -3.490  0.00  0.00    -0.293 OA
HETATM   19  C   UNK N   1      26.859  30.010  -4.172  0.00  0.00     0.149 C 
HETATM   20  C   UNK N   1      27.784  26.708  -4.539  0.00  0.00     0.020 C 
HETATM   21  C   UNK N   1      29.284  29.762  -7.774  0.00  0.00     0.015 C 
ENDROOT
BRANCH   3  22
HETATM   22  O   UNK N   1      26.729  22.841 -10.183  0.00  0.00    -0.302 OA
BRANCH  22  23
HETATM   23  C   UNK N   1      26.170  22.289 -11.289  0.00  0.00     0.256 C 
HETATM   24  C   UNK N   1      26.462  20.880 -11.677  0.00  0.00     0.126 C 
HETATM   25  O   UNK N   1      25.287  22.893 -11.879  0.00  0.00    -0.266 OA
ENDBRANCH  22  23
ENDBRANCH   3  22
BRANCH   3  26
HETATM   26  C   UNK N   1      25.188  22.081  -8.458  0.00  0.00     0.158 C 
HETATM   27  C   UNK N   1      25.730  20.719  -8.153  0.00  0.00     0.094 C 
HETATM   28  O   UNK N   1      24.014  22.297  -8.216  0.00  0.00    -0.295 OA
ENDBRANCH   3  26
TORSDOF 3
ENDMDL
MODEL 2
REMARK VINA RESULT:      -7.5      3.192      7.833
REMARK  3 active torsions:
REMARK  status: ('A' for Active; 'I' for Inactive)
REMARK    1  A    between atoms: C_3  and  O_21 
REMARK    2  A    between atoms: C_3  and  C_22 
REMARK    3  A    between atoms: O_21  and  C_26 
ROOT
HETATM    1  C   UNK N   1      27.499  24.245  -3.931  0.00  0.00     0.009 C 
HETATM    2  C   UNK N   1      30.040  22.456  -4.359  0.00  0.00     0.014 C 
HETATM    3  C   UNK N   1      27.167  26.429  -4.874  0.00  0.00     0.138 C 
HETATM    4  C   UNK N   1      28.239  25.313  -6.992  0.00  0.00     0.013 C 
HETATM    5  C   UNK N   1      26.419  25.164  -4.505  0.00  0.00     0.048 C 
HETATM    6  C   UNK N   1      29.263  21.859  -7.216  0.00  0.00    -0.016 C 
HETATM    7  C   UNK N   1      27.687  23.897  -7.090  0.00  0.00     0.007 C 
HETATM    8  C   UNK N   1      30.807  21.384  -5.135  0.00  0.00     0.012 C 
HETATM    9  C   UNK N   1      30.038  20.869  -6.346  0.00  0.00    -0.064 C 
HETATM   10  C   UNK N   1      28.214  21.114  -8.060  0.00  0.00     0.022 C 
HETATM   11  C   UNK N   1      30.333  19.647  -6.833  0.00  0.00     0.054 C 
HETATM   12  C   UNK N   1      28.807  19.986  -8.902  0.00  0.00     0.084 C 
HETATM   13  C   UNK N   1      29.525  23.538  -5.307  0.00  0.00    -0.004 C 
HETATM   14  C   UNK N   1      28.533  22.872  -6.306  0.00  0.00     0.002 C 
HETATM   15  C   UNK N   1      28.449  25.844  -5.544  0.00  0.00    -0.001 C 
HETATM   16  C   UNK N   1      29.575  26.860  -5.707  0.00  0.00     0.019 C 
HETATM   17  C   UNK N   1      28.828  24.695  -4.566  0.00  0.00     0.002 C 
HETATM   18  O   UNK N   1      30.168  18.096  -8.568  0.00  0.00    -0.293 OA
HETATM   19  C   UNK N   1      29.785  19.163  -8.117  0.00  0.00     0.149 C 
HETATM   20  C   UNK N   1      30.239  22.581  -8.144  0.00  0.00     0.020 C 
HETATM   21  C   UNK N   1      31.229  20.284  -4.171  0.00  0.00     0.015 C 
ENDROOT
BRANCH   3  22
HETATM   22  O   UNK N   1      27.451  27.043  -3.645  0.00  0.00    -0.302 OA
BRANCH  22  23
HETATM   23  C   UNK N   1      26.743  28.014  -3.016  0.00  0.00     0.256 C 
HETATM   24  C   UNK N   1      27.264  29.408  -2.924  0.00  0.00     0.126 C 
HETATM   25  O   UNK N   1      25.594  27.789  -2.669  0.00  0.00    -0.266 OA
ENDBRANCH  22  23
ENDBRANCH   3  22
BRANCH   3  26
HETATM   26  C   UNK N   1      26.300  27.311  -5.774  0.00  0.00     0.158 C 
HETATM   27  C   UNK N   1      24.850  27.007  -5.991  0.00  0.00     0.094 C 
HETATM   28  O   UNK N   1      26.756  28.318  -6.284  0.00  0.00    -0.295 OA
ENDBRANCH   3  26
TORSDOF 3
ENDMDL
MODEL 3
REMARK VINA RESULT:      -7.4     23.011     24.891
REMARK  3 active torsions:
REMARK  status: ('A' for Active; 'I' for Inactive)
REMARK    1  A    between atoms: C_3  and  O_21 
REMARK    2  A    between atoms: C_3  and  C_22 
REMARK    3  A    between atoms: O_21  and  C_26 
ROOT
HETATM    1  C   UNK N   1      34.610  15.313  11.311  0.00  0.00     0.009 C 
HETATM    2  C   UNK N   1      36.437  14.867  13.821  0.00  0.00     0.014 C 
HETATM    3  C   UNK N   1      35.027  14.427   9.118  0.00  0.00     0.138 C 
HETATM    4  C   UNK N   1      35.721  12.293  10.475  0.00  0.00     0.013 C 
HETATM    5  C   UNK N   1      33.900  14.752  10.078  0.00  0.00     0.048 C 
HETATM    6  C   UNK N   1      35.568  11.985  14.069  0.00  0.00    -0.016 C 
HETATM    7  C   UNK N   1      34.740  12.148  11.631  0.00  0.00     0.007 C 
HETATM    8  C   UNK N   1      36.830  14.071  15.067  0.00  0.00     0.012 C 
HETATM    9  C   UNK N   1      35.960  12.837  15.277  0.00  0.00    -0.064 C 
HETATM   10  C   UNK N   1      34.351  11.107  14.412  0.00  0.00     0.022 C 
HETATM   11  C   UNK N   1      35.850  12.319  16.517  0.00  0.00     0.054 C 
HETATM   12  C   UNK N   1      34.563  10.241  15.652  0.00  0.00     0.084 C 
HETATM   13  C   UNK N   1      36.323  13.943  12.610  0.00  0.00    -0.004 C 
HETATM   14  C   UNK N   1      35.189  12.914  12.893  0.00  0.00     0.002 C 
HETATM   15  C   UNK N   1      36.063  13.757  10.074  0.00  0.00    -0.001 C 
HETATM   16  C   UNK N   1      37.461  13.637   9.478  0.00  0.00     0.019 C 
HETATM   17  C   UNK N   1      36.026  14.707  11.305  0.00  0.00     0.002 C 
HETATM   18  O   UNK N   1      35.226  10.540  17.889  0.00  0.00    -0.293 OA
HETATM   19  C   UNK N   1      35.202  11.016  16.767  0.00  0.00     0.149 C 
HETATM   20  C   UNK N   1      36.745  11.089  13.684  0.00  0.00     0.020 C 
HETATM   21  C   UNK N   1      36.850  15.009  16.266  0.00  0.00     0.015 C 
ENDROOT
BRANCH   3  22
HETATM   22  O   UNK N   1      35.470  15.676   8.658  0.00  0.00    -0.302 OA
BRANCH  22  23
HETATM   23  C   UNK N   1      34.820  16.541   7.839  0.00  0.00     0.256 C 
HETATM   24  C   UNK N   1      34.137  17.749   8.383  0.00  0.00     0.126 C 
HETATM   25  O   UNK N   1      34.938  16.423   6.629  0.00  0.00    -0.266 OA
ENDBRANCH  22  23
ENDBRANCH   3  22
BRANCH   3  26
HETATM   26  C   UNK N   1      34.514  13.542   7.982  0.00  0.00     0.158 C 
HETATM   27  C   UNK N   1      33.062  13.193   7.867  0.00  0.00     0.094 C 
HETATM   28  O   UNK N   1      35.267  13.151   7.108  0.00  0.00    -0.295 OA
ENDBRANCH   3  26
TORSDOF 3
ENDMDL
MODEL 4
REMARK VINA RESULT:      -7.4     27.693     29.529
REMARK  3 active torsions:
REMARK  status: ('A' for Active; 'I' for Inactive)
REMARK    1  A    between atoms: C_3  and  O_21 
REMARK    2  A    between atoms: C_3  and  C_22 
REMARK    3  A    between atoms: O_21  and  C_26 
ROOT
HETATM    1  C   UNK N   1      34.332  12.131  14.974  0.00  0.00     0.009 C 
HETATM    2  C   UNK N   1      35.226  12.638  17.938  0.00  0.00     0.014 C 
HETATM    3  C   UNK N   1      35.713  11.182  13.254  0.00  0.00     0.138 C 
HETATM    4  C   UNK N   1      36.464   9.590  15.198  0.00  0.00     0.013 C 
HETATM    5  C   UNK N   1      34.281  11.219  13.748  0.00  0.00     0.048 C 
HETATM    6  C   UNK N   1      35.171   9.685  18.567  0.00  0.00    -0.016 C 
HETATM    7  C   UNK N   1      35.227   9.262  16.023  0.00  0.00     0.007 C 
HETATM    8  C   UNK N   1      35.370  12.180  19.390  0.00  0.00     0.012 C 
HETATM    9  C   UNK N   1      34.865  10.758  19.612  0.00  0.00    -0.064 C 
HETATM   10  C   UNK N   1      34.209   8.494  18.733  0.00  0.00     0.022 C 
HETATM   11  C   UNK N   1      34.484  10.388  20.851  0.00  0.00     0.054 C 
HETATM   12  C   UNK N   1      34.213   7.908  20.143  0.00  0.00     0.084 C 
HETATM   13  C   UNK N   1      35.802  11.591  16.986  0.00  0.00    -0.004 C 
HETATM   14  C   UNK N   1      34.977  10.281  17.154  0.00  0.00     0.002 C 
HETATM   15  C   UNK N   1      36.498  11.023  14.593  0.00  0.00    -0.001 C 
HETATM   16  C   UNK N   1      37.989  11.313  14.469  0.00  0.00     0.019 C 
HETATM   17  C   UNK N   1      35.772  12.046  15.514  0.00  0.00     0.002 C 
HETATM   18  O   UNK N   1      33.949   8.681  22.349  0.00  0.00    -0.293 OA
HETATM   19  C   UNK N   1      34.182   8.982  21.190  0.00  0.00     0.149 C 
HETATM   20  C   UNK N   1      36.610   9.202  18.750  0.00  0.00     0.020 C 
HETATM   21  C   UNK N   1      34.710  13.206  20.300  0.00  0.00     0.015 C 
ENDROOT
BRANCH   3  22
HETATM   22  O   UNK N   1      35.918  12.441  12.672  0.00  0.00    -0.302 OA
BRANCH  22  23
HETATM   23  C   UNK N   1      35.119  13.091  11.788  0.00  0.00     0.256 C 
HETATM   24  C   UNK N   1      34.813  12.504  10.453  0.00  0.00     0.126 C 
HETATM   25  O   UNK N   1      34.508  14.084  12.151  0.00  0.00    -0.266 OA
ENDBRANCH  22  23
ENDBRANCH   3  22
BRANCH   3  26
HETATM   26  C   UNK N   1      35.895  10.044  12.248  0.00  0.00     0.158 C 
HETATM   27  C   UNK N   1      34.796   9.062  11.982  0.00  0.00     0.094 C 
HETATM   28  O   UNK N   1      36.917   9.949  11.593  0.00  0.00    -0.295 OA
ENDBRANCH   3  26
TORSDOF 3
ENDMDL
MODEL 5
REMARK VINA RESULT:      -7.1      4.275      7.819
REMARK  3 active torsions:
REMARK  status: ('A' for Active; 'I' for Inactive)
REMARK    1  A    between atoms: C_3  and  O_21 
REMARK    2  A    between atoms: C_3  and  C_22 
REMARK    3  A    between atoms: O_21  and  C_26 
ROOT
HETATM    1  C   UNK N   1      29.365  24.836  -6.655  0.00  0.00     0.009 C 
HETATM    2  C   UNK N   1      29.628  21.714  -6.802  0.00  0.00     0.014 C 
HETATM    3  C   UNK N   1      28.040  26.040  -5.053  0.00  0.00     0.138 C 
HETATM    4  C   UNK N   1      29.001  24.241  -3.404  0.00  0.00     0.013 C 
HETATM    5  C   UNK N   1      29.341  26.121  -5.826  0.00  0.00     0.048 C 
HETATM    6  C   UNK N   1      31.332  21.638  -4.310  0.00  0.00    -0.016 C 
HETATM    7  C   UNK N   1      30.457  24.006  -3.782  0.00  0.00     0.007 C 
HETATM    8  C   UNK N   1      30.323  20.408  -6.411  0.00  0.00     0.012 C 
HETATM    9  C   UNK N   1      31.484  20.626  -5.446  0.00  0.00    -0.064 C 
HETATM   10  C   UNK N   1      32.716  22.040  -3.770  0.00  0.00     0.022 C 
HETATM   11  C   UNK N   1      32.460  19.699  -5.382  0.00  0.00     0.054 C 
HETATM   12  C   UNK N   1      33.564  20.847  -3.335  0.00  0.00     0.084 C 
HETATM   13  C   UNK N   1      29.291  22.535  -5.560  0.00  0.00    -0.004 C 
HETATM   14  C   UNK N   1      30.626  22.903  -4.847  0.00  0.00     0.002 C 
HETATM   15  C   UNK N   1      28.047  24.548  -4.594  0.00  0.00    -0.001 C 
HETATM   16  C   UNK N   1      26.695  24.054  -4.093  0.00  0.00     0.019 C 
HETATM   17  C   UNK N   1      28.501  23.816  -5.889  0.00  0.00     0.002 C 
HETATM   18  O   UNK N   1      34.297  18.808  -4.252  0.00  0.00    -0.293 OA
HETATM   19  C   UNK N   1      33.502  19.730  -4.334  0.00  0.00     0.149 C 
HETATM   20  C   UNK N   1      30.513  21.008  -3.183  0.00  0.00     0.020 C 
HETATM   21  C   UNK N   1      30.719  19.661  -7.675  0.00  0.00     0.015 C 
ENDROOT
BRANCH   3  22
HETATM   22  O   UNK N   1      27.045  26.290  -6.009  0.00  0.00    -0.302 OA
BRANCH  22  23
HETATM   23  C   UNK N   1      26.234  27.373  -6.103  0.00  0.00     0.256 C 
HETATM   24  C   UNK N   1      24.794  27.290  -5.726  0.00  0.00     0.126 C 
HETATM   25  O   UNK N   1      26.721  28.468  -6.337  0.00  0.00    -0.266 OA
ENDBRANCH  22  23
ENDBRANCH   3  22
BRANCH   3  26
HETATM   26  C   UNK N   1      28.032  27.073  -3.926  0.00  0.00     0.158 C 
HETATM   27  C   UNK N   1      29.148  28.059  -3.770  0.00  0.00     0.094 C 
HETATM   28  O   UNK N   1      27.083  27.158  -3.166  0.00  0.00    -0.295 OA
ENDBRANCH   3  26
TORSDOF 3
ENDMDL
MODEL 6
REMARK VINA RESULT:      -6.9     24.572     26.736
REMARK  3 active torsions:
REMARK  status: ('A' for Active; 'I' for Inactive)
REMARK    1  A    between atoms: C_3  and  O_21 
REMARK    2  A    between atoms: C_3  and  C_22 
REMARK    3  A    between atoms: O_21  and  C_26 
ROOT
HETATM    1  C   UNK N   1      36.187  13.586  14.576  0.00  0.00     0.009 C 
HETATM    2  C   UNK N   1      34.938  14.520  11.855  0.00  0.00     0.014 C 
HETATM    3  C   UNK N   1      35.682  11.521  15.696  0.00  0.00     0.138 C 
HETATM    4  C   UNK N   1      35.775  10.562  13.257  0.00  0.00     0.013 C 
HETATM    5  C   UNK N   1      36.820  12.486  15.430  0.00  0.00     0.048 C 
HETATM    6  C   UNK N   1      36.546  12.488  10.303  0.00  0.00    -0.016 C 
HETATM    7  C   UNK N   1      36.923  11.255  12.537  0.00  0.00     0.007 C 
HETATM    8  C   UNK N   1      34.957  14.590  10.327  0.00  0.00     0.012 C 
HETATM    9  C   UNK N   1      36.136  13.840   9.718  0.00  0.00    -0.064 C 
HETATM   10  C   UNK N   1      37.984  12.141   9.881  0.00  0.00     0.022 C 
HETATM   11  C   UNK N   1      36.561  14.186   8.486  0.00  0.00     0.054 C 
HETATM   12  C   UNK N   1      38.193  12.174   8.368  0.00  0.00     0.084 C 
HETATM   13  C   UNK N   1      35.100  13.076  12.327  0.00  0.00    -0.004 C 
HETATM   14  C   UNK N   1      36.490  12.564  11.846  0.00  0.00     0.002 C 
HETATM   15  C   UNK N   1      35.012  11.441  14.289  0.00  0.00    -0.001 C 
HETATM   16  C   UNK N   1      33.618  10.824  14.309  0.00  0.00     0.019 C 
HETATM   17  C   UNK N   1      34.990  12.935  13.858  0.00  0.00     0.002 C 
HETATM   18  O   UNK N   1      37.824  13.671   6.593  0.00  0.00    -0.293 OA
HETATM   19  C   UNK N   1      37.554  13.379   7.745  0.00  0.00     0.149 C 
HETATM   20  C   UNK N   1      35.593  11.409   9.787  0.00  0.00     0.020 C 
HETATM   21  C   UNK N   1      34.879  16.048   9.898  0.00  0.00     0.015 C 
ENDROOT
BRANCH   3  22
HETATM   22  O   UNK N   1      34.869  12.183  16.628  0.00  0.00    -0.302 OA
BRANCH  22  23
HETATM   23  C   UNK N   1      35.226  12.686  17.837  0.00  0.00     0.256 C 
HETATM   24  C   UNK N   1      35.313  14.156  18.062  0.00  0.00     0.126 C 
HETATM   25  O   UNK N   1      35.313  11.935  18.796  0.00  0.00    -0.266 OA
ENDBRANCH  22  23
ENDBRANCH   3  22
BRANCH   3  26
HETATM   26  C   UNK N   1      36.227  10.200  16.240  0.00  0.00     0.158 C 
HETATM   27  C   UNK N   1      35.312   9.158  16.804  0.00  0.00     0.094 C 
HETATM   28  O   UNK N   1      37.415   9.939  16.167  0.00  0.00    -0.295 OA
ENDBRANCH   3  26
TORSDOF 3
ENDMDL
MODEL 7
REMARK VINA RESULT:      -6.8     28.030     29.946
REMARK  3 active torsions:
REMARK  status: ('A' for Active; 'I' for Inactive)
REMARK    1  A    between atoms: C_3  and  O_21 
REMARK    2  A    between atoms: C_3  and  C_22 
REMARK    3  A    between atoms: O_21  and  C_26 
ROOT
HETATM    1  C   UNK N   1      37.629  10.461  14.633  0.00  0.00     0.009 C 
HETATM    2  C   UNK N   1      36.762   7.931  16.272  0.00  0.00     0.014 C 
HETATM    3  C   UNK N   1      36.129  11.976  13.527  0.00  0.00     0.138 C 
HETATM    4  C   UNK N   1      34.720  11.653  15.716  0.00  0.00     0.013 C 
HETATM    5  C   UNK N   1      37.440  11.939  14.287  0.00  0.00     0.048 C 
HETATM    6  C   UNK N   1      35.713   9.631  18.536  0.00  0.00    -0.016 C 
HETATM    7  C   UNK N   1      35.695  11.612  16.884  0.00  0.00     0.007 C 
HETATM    8  C   UNK N   1      36.359   7.260  17.586  0.00  0.00     0.012 C 
HETATM    9  C   UNK N   1      36.306   8.239  18.754  0.00  0.00    -0.064 C 
HETATM   10  C   UNK N   1      36.172  10.583  19.656  0.00  0.00     0.022 C 
HETATM   11  C   UNK N   1      36.439   7.763  20.009  0.00  0.00     0.054 C 
HETATM   12  C   UNK N   1      35.857  10.063  21.056  0.00  0.00     0.084 C 
HETATM   13  C   UNK N   1      35.922   9.183  16.029  0.00  0.00    -0.004 C 
HETATM   14  C   UNK N   1      36.209  10.188  17.183  0.00  0.00     0.002 C 
HETATM   15  C   UNK N   1      35.244  11.025  14.392  0.00  0.00    -0.001 C 
HETATM   16  C   UNK N   1      33.968  10.570  13.693  0.00  0.00     0.019 C 
HETATM   17  C   UNK N   1      36.218   9.844  14.669  0.00  0.00     0.002 C 
HETATM   18  O   UNK N   1      36.218   8.103  22.306  0.00  0.00    -0.293 OA
HETATM   19  C   UNK N   1      36.192   8.607  21.196  0.00  0.00     0.149 C 
HETATM   20  C   UNK N   1      34.188   9.535  18.548  0.00  0.00     0.020 C 
HETATM   21  C   UNK N   1      37.274   6.070  17.834  0.00  0.00     0.015 C 
ENDROOT
BRANCH   3  22
HETATM   22  O   UNK N   1      36.430  11.419  12.276  0.00  0.00    -0.302 OA
BRANCH  22  23
HETATM   23  C   UNK N   1      36.733  12.071  11.125  0.00  0.00     0.256 C 
HETATM   24  C   UNK N   1      38.094  12.634  10.896  0.00  0.00     0.126 C 
HETATM   25  O   UNK N   1      35.939  12.050  10.198  0.00  0.00    -0.266 OA
ENDBRANCH  22  23
ENDBRANCH   3  22
BRANCH   3  26
HETATM   26  C   UNK N   1      35.626  13.416  13.413  0.00  0.00     0.158 C 
HETATM   27  C   UNK N   1      36.437  14.563  13.931  0.00  0.00     0.094 C 
HETATM   28  O   UNK N   1      34.582  13.667  12.840  0.00  0.00    -0.295 OA
ENDBRANCH   3  26
TORSDOF 3
ENDMDL
MODEL 8
REMARK VINA RESULT:      -6.8     24.678     26.535
REMARK  3 active torsions:
REMARK  status: ('A' for Active; 'I' for Inactive)
REMARK    1  A    between atoms: C_3  and  O_21 
REMARK    2  A    between atoms: C_3  and  C_22 
REMARK    3  A    between atoms: O_21  and  C_26 
ROOT
HETATM    1  C   UNK N   1      37.963  12.131  11.626  0.00  0.00     0.009 C 
HETATM    2  C   UNK N   1      36.912   9.927  13.596  0.00  0.00     0.014 C 
HETATM    3  C   UNK N   1      36.624  13.291  10.004  0.00  0.00     0.138 C 
HETATM    4  C   UNK N   1      34.875  13.318  11.958  0.00  0.00     0.013 C 
HETATM    5  C   UNK N   1      37.787  13.493  10.954  0.00  0.00     0.048 C 
HETATM    6  C   UNK N   1      35.439  11.972  15.259  0.00  0.00    -0.016 C 
HETATM    7  C   UNK N   1      35.637  13.577  13.250  0.00  0.00     0.007 C 
HETATM    8  C   UNK N   1      36.313   9.508  14.939  0.00  0.00     0.012 C 
HETATM    9  C   UNK N   1      36.030  10.694  15.854  0.00  0.00    -0.064 C 
HETATM   10  C   UNK N   1      35.668  13.157  16.214  0.00  0.00     0.022 C 
HETATM   11  C   UNK N   1      35.963  10.489  17.185  0.00  0.00     0.054 C 
HETATM   12  C   UNK N   1      35.137  12.908  17.624  0.00  0.00     0.084 C 
HETATM   13  C   UNK N   1      36.085  11.046  12.967  0.00  0.00    -0.004 C 
HETATM   14  C   UNK N   1      36.139  12.279  13.916  0.00  0.00     0.002 C 
HETATM   15  C   UNK N   1      35.637  12.474  10.895  0.00  0.00    -0.001 C 
HETATM   16  C   UNK N   1      34.514  11.805  10.111  0.00  0.00     0.019 C 
HETATM   17  C   UNK N   1      36.587  11.441  11.564  0.00  0.00     0.002 C 
HETATM   18  O   UNK N   1      35.344  11.266  19.296  0.00  0.00    -0.293 OA
HETATM   19  C   UNK N   1      35.491  11.535  18.116  0.00  0.00     0.149 C 
HETATM   20  C   UNK N   1      33.937  11.779  15.047  0.00  0.00     0.020 C 
HETATM   21  C   UNK N   1      37.211   8.454  15.573  0.00  0.00     0.015 C 
ENDROOT
BRANCH   3  22
HETATM   22  O   UNK N   1      37.152  12.516   8.960  0.00  0.00    -0.302 OA
BRANCH  22  23
HETATM   23  C   UNK N   1      38.296  12.727   8.262  0.00  0.00     0.256 C 
HETATM   24  C   UNK N   1      39.391  11.716   8.256  0.00  0.00     0.126 C 
HETATM   25  O   UNK N   1      38.363  13.675   7.496  0.00  0.00    -0.266 OA
ENDBRANCH  22  23
ENDBRANCH   3  22
BRANCH   3  26
HETATM   26  C   UNK N   1      36.102  14.642   9.514  0.00  0.00     0.158 C 
HETATM   27  C   UNK N   1      35.155  14.733   8.357  0.00  0.00     0.094 C 
HETATM   28  O   UNK N   1      36.396  15.671  10.095  0.00  0.00    -0.295 OA
ENDBRANCH   3  26
TORSDOF 3
ENDMDL
MODEL 9
REMARK VINA RESULT:      -6.7      4.986      6.607
REMARK  3 active torsions:
REMARK  status: ('A' for Active; 'I' for Inactive)
REMARK    1  A    between atoms: C_3  and  O_21 
REMARK    2  A    between atoms: C_3  and  C_22 
REMARK    3  A    between atoms: O_21  and  C_26 
ROOT
HETATM    1  C   UNK N   1      32.233  24.129  -5.685  0.00  0.00     0.009 C 
HETATM    2  C   UNK N   1      30.513  26.207  -4.085  0.00  0.00     0.014 C 
HETATM    3  C   UNK N   1      32.607  21.847  -5.034  0.00  0.00     0.138 C 
HETATM    4  C   UNK N   1      30.065  21.961  -4.397  0.00  0.00     0.013 C 
HETATM    5  C   UNK N   1      32.407  22.721  -6.257  0.00  0.00     0.048 C 
HETATM    6  C   UNK N   1      27.939  24.838  -4.874  0.00  0.00    -0.016 C 
HETATM    7  C   UNK N   1      29.360  22.771  -5.476  0.00  0.00     0.007 C 
HETATM    8  C   UNK N   1      29.179  26.892  -3.783  0.00  0.00     0.012 C 
HETATM    9  C   UNK N   1      28.032  26.344  -4.626  0.00  0.00    -0.064 C 
HETATM   10  C   UNK N   1      27.034  24.556  -6.086  0.00  0.00     0.022 C 
HETATM   11  C   UNK N   1      26.948  27.118  -4.833  0.00  0.00     0.054 C 
HETATM   12  C   UNK N   1      25.646  25.181  -5.962  0.00  0.00     0.084 C 
HETATM   13  C   UNK N   1      30.355  24.689  -4.054  0.00  0.00    -0.004 C 
HETATM   14  C   UNK N   1      29.351  24.284  -5.173  0.00  0.00     0.002 C 
HETATM   15  C   UNK N   1      31.518  22.413  -4.070  0.00  0.00    -0.001 C 
HETATM   16  C   UNK N   1      31.699  21.980  -2.620  0.00  0.00     0.019 C 
HETATM   17  C   UNK N   1      31.691  23.947  -4.255  0.00  0.00     0.002 C 
HETATM   18  O   UNK N   1      24.726  27.300  -5.521  0.00  0.00    -0.293 OA
HETATM   19  C   UNK N   1      25.716  26.591  -5.457  0.00  0.00     0.149 C 
HETATM   20  C   UNK N   1      27.351  24.161  -3.636  0.00  0.00     0.020 C 
HETATM   21  C   UNK N   1      29.356  28.398  -3.908  0.00  0.00     0.015 C 
ENDROOT
BRANCH   3  22
HETATM   22  O   UNK N   1      33.905  22.147  -4.594  0.00  0.00    -0.302 OA
BRANCH  22  23
HETATM   23  C   UNK N   1      35.044  21.445  -4.818  0.00  0.00     0.256 C 
HETATM   24  C   UNK N   1      35.822  21.624  -6.077  0.00  0.00     0.126 C 
HETATM   25  O   UNK N   1      35.529  20.787  -3.912  0.00  0.00    -0.266 OA
ENDBRANCH  22  23
ENDBRANCH   3  22
BRANCH   3  26
HETATM   26  C   UNK N   1      32.451  20.373  -5.409  0.00  0.00     0.158 C 
HETATM   27  C   UNK N   1      32.284  19.949  -6.835  0.00  0.00     0.094 C 
HETATM   28  O   UNK N   1      32.521  19.504  -4.559  0.00  0.00    -0.295 OA
ENDBRANCH   3  26
TORSDOF 3
ENDMDL
