MODEL 1
REMARK VINA RESULT:      -9.3      0.000      0.000
REMARK  9 active torsions:
REMARK  status: ('A' for Active; 'I' for Inactive)
REMARK    1  A    between atoms: C_13  and  C_18 
REMARK    2  A    between atoms: C_16  and  C_21 
REMARK    3  A    between atoms: C_18  and  C_16 
REMARK    4  A    between atoms: C_23  and  O_61 
REMARK    5  A    between atoms: C_24  and  O_62 
REMARK    6  A    between atoms: C_28  and  O_64 
REMARK    7  A    between atoms: C_34  and  O_35 
REMARK    8  A    between atoms: C_46  and  O_49 
REMARK    9  A    between atoms: C_47  and  O_48 
ROOT
HETATM    1  C   UNK N   1      20.747  12.317   0.523  0.00  0.00     0.035 C 
HETATM    2  C   UNK N   1      21.344  12.412   1.935  0.00  0.00     0.187 C 
HETATM    3  C   UNK N   1      19.336  12.877   0.464  0.00  0.00     0.004 C 
HETATM    4  N   UNK N   1      21.213  13.805   2.427  0.00  0.00    -0.331 N 
HETATM    5  C   UNK N   1      19.372  14.330   0.901  0.00  0.00     0.020 C 
HETATM    6  C   UNK N   1      19.886  14.393   2.331  0.00  0.00     0.127 C 
HETATM    7  C   UNK N   1      22.744  11.868   1.774  0.00  0.00     0.282 C 
HETATM    8  O   UNK N   1      23.546  12.459   1.062  0.00  0.00    -0.263 OA
HETATM    9  O   UNK N   1      23.309  13.999   3.244  0.00  0.00    -0.264 OA
HETATM   10  C   UNK N   1      22.248  14.540   2.984  0.00  0.00     0.296 C 
HETATM   11  C   UNK N   1      22.132  16.018   3.273  0.00  0.00     0.278 C 
HETATM   12  O   UNK N   1      21.144  16.639   2.911  0.00  0.00    -0.281 OA
HETATM   13  C   UNK N   1      24.254   9.990   2.096  0.00  0.00     0.142 C 
HETATM   14  C   UNK N   1      25.388  10.740   2.801  0.00  0.00     0.112 C 
HETATM   15  O   UNK N   1      23.053  10.650   2.298  0.00  0.00    -0.314 OA
HETATM   16  O   UNK N   1      26.492  11.189   0.757  0.00  0.00    -0.297 OA
HETATM   17  C   UNK N   1      26.225  11.589   1.882  0.00  0.00     0.136 C 
HETATM   18  O   UNK N   1      24.466  16.436   3.180  0.00  0.00    -0.343 OA
HETATM   19  C   UNK N   1      23.295  16.769   3.922  0.00  0.00     0.238 C 
HETATM   20  C   UNK N   1      25.641  17.137   3.571  0.00  0.00     0.128 C 
HETATM   21  C   UNK N   1      25.444  18.651   3.484  0.00  0.00     0.033 C 
HETATM   22  C   UNK N   1      23.047  18.307   3.902  0.00  0.00     0.053 C 
HETATM   23  C   UNK N   1      24.278  19.068   4.357  0.00  0.00     0.013 C 
HETATM   24  C   UNK N   1      26.183  16.689   4.943  0.00  0.00     0.068 C 
HETATM   25  C   UNK N   1      27.556  17.312   5.225  0.00  0.00     0.151 C 
HETATM   26  C   UNK N   1      28.661  15.499   3.746  0.00  0.00     0.046 C 
HETATM   27  C   UNK N   1      28.720  16.355   4.962  0.00  0.00    -0.055 C 
HETATM   28  C   UNK N   1      29.866  16.314   5.674  0.00  0.00     0.005 C 
HETATM   29  C   UNK N   1      21.859  18.738   4.751  0.00  0.00     0.016 C 
HETATM   30  C   UNK N   1      26.938  12.799   2.399  0.00  0.00     0.074 C 
HETATM   31  C   UNK N   1      26.329  13.385   3.667  0.00  0.00     0.022 C 
HETATM   32  C   UNK N   1      28.393  12.445   2.548  0.00  0.00    -0.010 C 
HETATM   33  C   UNK N   1      28.899  11.653   3.508  0.00  0.00    -0.056 C 
HETATM   34  C   UNK N   1      28.054  11.094   4.615  0.00  0.00     0.046 C 
HETATM   35  C   UNK N   1      30.344  11.287   3.436  0.00  0.00     0.183 C 
HETATM   36  C   UNK N   1      31.170  11.942   4.558  0.00  0.00     0.223 C 
HETATM   37  C   UNK N   1      32.639  11.548   4.572  0.00  0.00     0.162 C 
HETATM   38  C   UNK N   1      30.158  17.174   6.831  0.00  0.00     0.000 C 
HETATM   39  C   UNK N   1      31.348  17.261   7.447  0.00  0.00    -0.000 C 
HETATM   40  C   UNK N   1      33.564  12.155   5.597  0.00  0.00     0.055 C 
HETATM   41  C   UNK N   1      33.803  13.618   5.256  0.00  0.00     0.020 C 
HETATM   42  O   UNK N   1      33.064  10.730   3.768  0.00  0.00    -0.295 OA
HETATM   43  C   UNK N   1      32.576  16.476   7.170  0.00  0.00    -0.004 C 
HETATM   44  C   UNK N   1      32.592  15.213   6.726  0.00  0.00    -0.022 C 
HETATM   45  C   UNK N   1      33.888  14.462   6.508  0.00  0.00     0.005 C 
HETATM   46  C   UNK N   1      34.912  11.448   5.652  0.00  0.00     0.018 C 
HETATM   47  C   UNK N   1      35.106  15.371   6.408  0.00  0.00     0.014 C 
ENDROOT
BRANCH  13  48
HETATM   48  C   UNK N   1      24.139   8.573   2.680  0.00  0.00     0.012 C 
HETATM   49  C   UNK N   1      23.981   7.527   1.586  0.00  0.00     0.012 C 
BRANCH  48  50
HETATM   50  C   UNK N   1      25.233   8.191   3.695  0.00  0.00     0.011 C 
BRANCH  50  51
HETATM   51  C   UNK N   1      24.838   8.029   5.163  0.00  0.00    -0.012 C 
HETATM   52  C   UNK N   1      23.429   7.436   5.160  0.00  0.00     0.039 C 
HETATM   53  C   UNK N   1      22.954   7.085   6.575  0.00  0.00     0.150 C 
HETATM   54  C   UNK N   1      23.938   6.144   7.283  0.00  0.00     0.147 C 
HETATM   55  C   UNK N   1      25.329   6.777   7.303  0.00  0.00     0.035 C 
HETATM   56  C   UNK N   1      25.802   7.075   5.879  0.00  0.00     0.007 C 
BRANCH  53  57
HETATM   57  O   UNK N   1      21.615   6.630   6.605  0.00  0.00    -0.388 OA
HETATM   58  C   UNK N   1      20.835   7.419   5.742  0.00  0.00     0.202 C 
ENDBRANCH  53  57
BRANCH  54  59
HETATM   59  O   UNK N   1      23.516   5.907   8.591  0.00  0.00    -0.393 OA
HETATM   60  H   UNK N   1      23.352   6.369   9.428  0.00  0.00     0.210 HD
ENDBRANCH  54  59
ENDBRANCH  50  51
ENDBRANCH  48  50
ENDBRANCH  13  48
BRANCH  35  61
HETATM   61  O   UNK N   1      30.472   9.895   3.452  0.00  0.00    -0.388 OA
HETATM   62  H   UNK N   1      30.577   9.351   2.656  0.00  0.00     0.210 HD
ENDBRANCH  35  61
BRANCH  19  63
HETATM   63  O   UNK N   1      23.418  16.315   5.241  0.00  0.00    -0.359 OA
HETATM   64  H   UNK N   1      23.209  16.183   6.179  0.00  0.00     0.213 HD
ENDBRANCH  19  63
BRANCH  36  65
HETATM   65  O   UNK N   1      30.976  13.343   4.611  0.00  0.00    -0.380 OA
HETATM   66  C   UNK N   1      31.446  13.924   3.419  0.00  0.00     0.202 C 
ENDBRANCH  36  65
BRANCH  25  67
HETATM   67  O   UNK N   1      27.566  17.882   6.501  0.00  0.00    -0.386 OA
HETATM   68  C   UNK N   1      27.542  19.261   6.278  0.00  0.00     0.202 C 
ENDBRANCH  25  67
TORSDOF 9
ENDMDL
MODEL 2
REMARK VINA RESULT:      -9.2      2.693      4.024
REMARK  9 active torsions:
REMARK  status: ('A' for Active; 'I' for Inactive)
REMARK    1  A    between atoms: C_13  and  C_18 
REMARK    2  A    between atoms: C_16  and  C_21 
REMARK    3  A    between atoms: C_18  and  C_16 
REMARK    4  A    between atoms: C_23  and  O_61 
REMARK    5  A    between atoms: C_24  and  O_62 
REMARK    6  A    between atoms: C_28  and  O_64 
REMARK    7  A    between atoms: C_34  and  O_35 
REMARK    8  A    between atoms: C_46  and  O_49 
REMARK    9  A    between atoms: C_47  and  O_48 
ROOT
HETATM    1  C   UNK N   1      20.744  16.859   2.139  0.00  0.00     0.035 C 
HETATM    2  C   UNK N   1      21.495  16.567   3.447  0.00  0.00     0.187 C 
HETATM    3  C   UNK N   1      19.938  18.143   2.223  0.00  0.00     0.004 C 
HETATM    4  N   UNK N   1      22.280  17.765   3.836  0.00  0.00    -0.331 N 
HETATM    5  C   UNK N   1      20.882  19.291   2.530  0.00  0.00     0.020 C 
HETATM    6  C   UNK N   1      21.551  19.022   3.869  0.00  0.00     0.127 C 
HETATM    7  C   UNK N   1      22.269  15.304   3.147  0.00  0.00     0.282 C 
HETATM    8  O   UNK N   1      23.142  15.318   2.288  0.00  0.00    -0.263 OA
HETATM    9  O   UNK N   1      24.191  16.676   4.348  0.00  0.00    -0.264 OA
HETATM   10  C   UNK N   1      23.621  17.742   4.188  0.00  0.00     0.296 C 
HETATM   11  C   UNK N   1      24.436  19.001   4.367  0.00  0.00     0.278 C 
HETATM   12  O   UNK N   1      23.954  20.089   4.089  0.00  0.00    -0.281 OA
HETATM   13  C   UNK N   1      22.427  12.894   3.419  0.00  0.00     0.142 C 
HETATM   14  C   UNK N   1      23.878  12.824   3.903  0.00  0.00     0.112 C 
HETATM   15  O   UNK N   1      21.886  14.133   3.723  0.00  0.00    -0.314 OA
HETATM   16  O   UNK N   1      24.702  12.561   1.701  0.00  0.00    -0.297 OA
HETATM   17  C   UNK N   1      24.898  13.027   2.814  0.00  0.00     0.136 C 
HETATM   18  O   UNK N   1      26.526  17.965   3.931  0.00  0.00    -0.343 OA
HETATM   19  C   UNK N   1      25.902  18.915   4.792  0.00  0.00     0.238 C 
HETATM   20  C   UNK N   1      27.932  17.834   4.104  0.00  0.00     0.128 C 
HETATM   21  C   UNK N   1      28.645  19.175   3.920  0.00  0.00     0.033 C 
HETATM   22  C   UNK N   1      26.598  20.304   4.678  0.00  0.00     0.053 C 
HETATM   23  C   UNK N   1      28.095  20.188   4.902  0.00  0.00     0.013 C 
HETATM   24  C   UNK N   1      28.316  17.137   5.423  0.00  0.00     0.068 C 
HETATM   25  C   UNK N   1      29.818  16.827   5.469  0.00  0.00     0.151 C 
HETATM   26  C   UNK N   1      29.410  14.730   4.011  0.00  0.00     0.046 C 
HETATM   27  C   UNK N   1      30.147  15.372   5.133  0.00  0.00    -0.055 C 
HETATM   28  C   UNK N   1      31.147  14.655   5.688  0.00  0.00     0.005 C 
HETATM   29  C   UNK N   1      26.036  21.341   5.639  0.00  0.00     0.016 C 
HETATM   30  C   UNK N   1      26.252  13.579   3.131  0.00  0.00     0.074 C 
HETATM   31  C   UNK N   1      26.306  14.396   4.416  0.00  0.00     0.022 C 
HETATM   32  C   UNK N   1      27.229  12.434   3.114  0.00  0.00    -0.010 C 
HETATM   33  C   UNK N   1      27.319  11.484   4.061  0.00  0.00    -0.056 C 
HETATM   34  C   UNK N   1      26.492  11.517   5.312  0.00  0.00     0.046 C 
HETATM   35  C   UNK N   1      28.246  10.338   3.827  0.00  0.00     0.183 C 
HETATM   36  C   UNK N   1      29.461  10.368   4.772  0.00  0.00     0.223 C 
HETATM   37  C   UNK N   1      30.405   9.184   4.624  0.00  0.00     0.162 C 
HETATM   38  C   UNK N   1      32.062  15.165   6.721  0.00  0.00     0.000 C 
HETATM   39  C   UNK N   1      33.157  14.526   7.164  0.00  0.00    -0.000 C 
HETATM   40  C   UNK N   1      31.656   9.117   5.463  0.00  0.00     0.055 C 
HETATM   41  C   UNK N   1      32.647  10.163   4.974  0.00  0.00     0.020 C 
HETATM   42  O   UNK N   1      30.141   8.282   3.840  0.00  0.00    -0.295 OA
HETATM   43  C   UNK N   1      33.635  13.172   6.792  0.00  0.00    -0.004 C 
HETATM   44  C   UNK N   1      32.841  12.147   6.456  0.00  0.00    -0.022 C 
HETATM   45  C   UNK N   1      33.402  10.780   6.130  0.00  0.00     0.005 C 
HETATM   46  C   UNK N   1      32.327   7.752   5.396  0.00  0.00     0.018 C 
HETATM   47  C   UNK N   1      34.888  10.797   5.794  0.00  0.00     0.014 C 
ENDROOT
BRANCH  13  48
HETATM   48  C   UNK N   1      21.599  11.810   4.128  0.00  0.00     0.012 C 
HETATM   49  C   UNK N   1      21.010  10.817   3.137  0.00  0.00     0.012 C 
BRANCH  48  50
HETATM   50  C   UNK N   1      22.307  11.108   5.302  0.00  0.00     0.011 C 
BRANCH  50  51
HETATM   51  C   UNK N   1      22.645  11.932   6.545  0.00  0.00    -0.012 C 
HETATM   52  C   UNK N   1      21.314  12.465   7.075  0.00  0.00     0.039 C 
HETATM   53  C   UNK N   1      21.484  13.200   8.410  0.00  0.00     0.150 C 
HETATM   54  C   UNK N   1      22.170  12.313   9.458  0.00  0.00     0.147 C 
HETATM   55  C   UNK N   1      23.512  11.823   8.917  0.00  0.00     0.035 C 
HETATM   56  C   UNK N   1      23.313  11.053   7.609  0.00  0.00     0.007 C 
BRANCH  53  57
HETATM   57  O   UNK N   1      20.282  13.789   8.867  0.00  0.00    -0.388 OA
HETATM   58  C   UNK N   1      20.363  15.185   8.724  0.00  0.00     0.202 C 
ENDBRANCH  53  57
BRANCH  54  59
HETATM   59  O   UNK N   1      22.377  13.034  10.633  0.00  0.00    -0.393 OA
HETATM   60  H   UNK N   1      22.826  12.970  11.491  0.00  0.00     0.210 HD
ENDBRANCH  54  59
ENDBRANCH  50  51
ENDBRANCH  48  50
ENDBRANCH  13  48
BRANCH  35  61
HETATM   61  O   UNK N   1      27.538   9.138   3.941  0.00  0.00    -0.388 OA
HETATM   62  H   UNK N   1      27.770   8.326   3.465  0.00  0.00     0.210 HD
ENDBRANCH  35  61
BRANCH  19  63
HETATM   63  O   UNK N   1      25.940  18.460   6.116  0.00  0.00    -0.359 OA
HETATM   64  H   UNK N   1      26.119  17.878   6.871  0.00  0.00     0.213 HD
ENDBRANCH  19  63
BRANCH  36  65
HETATM   65  O   UNK N   1      30.133  11.614   4.735  0.00  0.00    -0.380 OA
HETATM   66  C   UNK N   1      30.658  11.822   3.446  0.00  0.00     0.202 C 
ENDBRANCH  36  65
BRANCH  25  67
HETATM   67  O   UNK N   1      30.358  17.268   6.680  0.00  0.00    -0.386 OA
HETATM   68  C   UNK N   1      29.251  17.541   7.488  0.00  0.00     0.202 C 
ENDBRANCH  25  67
TORSDOF 9
ENDMDL
MODEL 3
REMARK VINA RESULT:      -9.1      3.786     10.065
REMARK  9 active torsions:
REMARK  status: ('A' for Active; 'I' for Inactive)
REMARK    1  A    between atoms: C_13  and  C_18 
REMARK    2  A    between atoms: C_16  and  C_21 
REMARK    3  A    between atoms: C_18  and  C_16 
REMARK    4  A    between atoms: C_23  and  O_61 
REMARK    5  A    between atoms: C_24  and  O_62 
REMARK    6  A    between atoms: C_28  and  O_64 
REMARK    7  A    between atoms: C_34  and  O_35 
REMARK    8  A    between atoms: C_46  and  O_49 
REMARK    9  A    between atoms: C_47  and  O_48 
ROOT
HETATM    1  C   UNK N   1      36.526  11.733   4.876  0.00  0.00     0.035 C 
HETATM    2  C   UNK N   1      35.766  12.868   4.173  0.00  0.00     0.187 C 
HETATM    3  C   UNK N   1      37.856  12.204   5.438  0.00  0.00     0.004 C 
HETATM    4  N   UNK N   1      35.672  14.032   5.089  0.00  0.00    -0.331 N 
HETATM    5  C   UNK N   1      37.597  13.326   6.427  0.00  0.00     0.020 C 
HETATM    6  C   UNK N   1      36.921  14.472   5.690  0.00  0.00     0.127 C 
HETATM    7  C   UNK N   1      34.469  12.224   3.744  0.00  0.00     0.282 C 
HETATM    8  O   UNK N   1      33.687  11.810   4.591  0.00  0.00    -0.263 OA
HETATM    9  O   UNK N   1      33.489  14.480   4.727  0.00  0.00    -0.264 OA
HETATM   10  C   UNK N   1      34.500  14.717   5.367  0.00  0.00     0.296 C 
HETATM   11  C   UNK N   1      34.404  15.753   6.462  0.00  0.00     0.278 C 
HETATM   12  O   UNK N   1      35.344  15.934   7.220  0.00  0.00    -0.281 OA
HETATM   13  C   UNK N   1      33.169  11.265   1.926  0.00  0.00     0.142 C 
HETATM   14  C   UNK N   1      31.881  12.067   2.134  0.00  0.00     0.112 C 
HETATM   15  O   UNK N   1      34.252  11.973   2.424  0.00  0.00    -0.314 OA
HETATM   16  O   UNK N   1      30.969  10.418   3.564  0.00  0.00    -0.297 OA
HETATM   17  C   UNK N   1      31.057  11.611   3.307  0.00  0.00     0.136 C 
HETATM   18  O   UNK N   1      32.062  15.521   6.768  0.00  0.00    -0.343 OA
HETATM   19  C   UNK N   1      33.093  16.504   6.698  0.00  0.00     0.238 C 
HETATM   20  C   UNK N   1      30.774  16.029   7.099  0.00  0.00     0.128 C 
HETATM   21  C   UNK N   1      30.797  16.782   8.430  0.00  0.00     0.033 C 
HETATM   22  C   UNK N   1      33.155  17.334   8.015  0.00  0.00     0.053 C 
HETATM   23  C   UNK N   1      31.797  17.917   8.361  0.00  0.00     0.013 C 
HETATM   24  C   UNK N   1      30.139  16.853   5.963  0.00  0.00     0.068 C 
HETATM   25  C   UNK N   1      28.677  17.197   6.280  0.00  0.00     0.151 C 
HETATM   26  C   UNK N   1      27.974  14.832   5.501  0.00  0.00     0.046 C 
HETATM   27  C   UNK N   1      27.674  16.289   5.567  0.00  0.00    -0.055 C 
HETATM   28  C   UNK N   1      26.469  16.679   5.103  0.00  0.00     0.005 C 
HETATM   29  C   UNK N   1      34.178  18.460   7.971  0.00  0.00     0.016 C 
HETATM   30  C   UNK N   1      30.150  12.564   4.020  0.00  0.00     0.074 C 
HETATM   31  C   UNK N   1      30.537  14.030   3.858  0.00  0.00     0.022 C 
HETATM   32  C   UNK N   1      28.740  12.270   3.582  0.00  0.00    -0.010 C 
HETATM   33  C   UNK N   1      28.228  12.577   2.378  0.00  0.00    -0.056 C 
HETATM   34  C   UNK N   1      29.003  13.344   1.347  0.00  0.00     0.046 C 
HETATM   35  C   UNK N   1      26.855  12.092   2.049  0.00  0.00     0.183 C 
HETATM   36  C   UNK N   1      25.835  13.243   1.964  0.00  0.00     0.223 C 
HETATM   37  C   UNK N   1      24.432  12.813   1.564  0.00  0.00     0.162 C 
HETATM   38  C   UNK N   1      25.946  18.051   5.195  0.00  0.00     0.000 C 
HETATM   39  C   UNK N   1      24.692  18.421   4.888  0.00  0.00    -0.000 C 
HETATM   40  C   UNK N   1      23.331  13.840   1.487  0.00  0.00     0.055 C 
HETATM   41  C   UNK N   1      22.957  14.285   2.894  0.00  0.00     0.020 C 
HETATM   42  O   UNK N   1      24.202  11.643   1.289  0.00  0.00    -0.295 OA
HETATM   43  C   UNK N   1      23.607  17.582   4.325  0.00  0.00    -0.004 C 
HETATM   44  C   UNK N   1      23.794  16.545   3.498  0.00  0.00    -0.022 C 
HETATM   45  C   UNK N   1      22.630  15.761   2.929  0.00  0.00     0.005 C 
HETATM   46  C   UNK N   1      22.080  13.300   0.807  0.00  0.00     0.018 C 
HETATM   47  C   UNK N   1      21.331  15.960   3.698  0.00  0.00     0.014 C 
ENDROOT
BRANCH  13  48
HETATM   48  C   UNK N   1      33.387  11.028   0.424  0.00  0.00     0.012 C 
HETATM   49  C   UNK N   1      33.793   9.590   0.136  0.00  0.00     0.012 C 
BRANCH  48  50
HETATM   50  C   UNK N   1      32.239  11.502  -0.488  0.00  0.00     0.011 C 
BRANCH  50  51
HETATM   51  C   UNK N   1      31.757  10.565  -1.596  0.00  0.00    -0.012 C 
HETATM   52  C   UNK N   1      30.379  10.066  -1.159  0.00  0.00     0.039 C 
HETATM   53  C   UNK N   1      29.708   9.221  -2.247  0.00  0.00     0.150 C 
HETATM   54  C   UNK N   1      29.612   9.983  -3.576  0.00  0.00     0.147 C 
HETATM   55  C   UNK N   1      31.006  10.439  -4.006  0.00  0.00     0.035 C 
HETATM   56  C   UNK N   1      31.638  11.319  -2.926  0.00  0.00     0.007 C 
BRANCH  53  57
HETATM   57  O   UNK N   1      28.477   8.665  -1.825  0.00  0.00    -0.388 OA
HETATM   58  C   UNK N   1      28.481   8.531  -0.426  0.00  0.00     0.202 C 
ENDBRANCH  53  57
BRANCH  54  59
HETATM   59  O   UNK N   1      29.066   9.161  -4.561  0.00  0.00    -0.393 OA
HETATM   60  H   UNK N   1      28.638   9.204  -5.430  0.00  0.00     0.210 HD
ENDBRANCH  54  59
ENDBRANCH  50  51
ENDBRANCH  48  50
ENDBRANCH  13  48
BRANCH  35  61
HETATM   61  O   UNK N   1      26.895  11.355   0.862  0.00  0.00    -0.388 OA
HETATM   62  H   UNK N   1      26.159  10.815   0.535  0.00  0.00     0.210 HD
ENDBRANCH  35  61
BRANCH  19  63
HETATM   63  O   UNK N   1      32.877  17.349   5.602  0.00  0.00    -0.359 OA
HETATM   64  H   UNK N   1      32.445  17.734   4.824  0.00  0.00     0.213 HD
ENDBRANCH  19  63
BRANCH  36  65
HETATM   65  O   UNK N   1      25.852  14.053   3.125  0.00  0.00    -0.380 OA
HETATM   66  C   UNK N   1      25.456  13.286   4.236  0.00  0.00     0.202 C 
ENDBRANCH  36  65
BRANCH  25  67
HETATM   67  O   UNK N   1      28.455  18.561   6.075  0.00  0.00    -0.386 OA
HETATM   68  C   UNK N   1      28.354  19.105   7.358  0.00  0.00     0.202 C 
ENDBRANCH  25  67
TORSDOF 9
ENDMDL
MODEL 4
REMARK VINA RESULT:      -9.1      3.770     10.704
REMARK  9 active torsions:
REMARK  status: ('A' for Active; 'I' for Inactive)
REMARK    1  A    between atoms: C_13  and  C_18 
REMARK    2  A    between atoms: C_16  and  C_21 
REMARK    3  A    between atoms: C_18  and  C_16 
REMARK    4  A    between atoms: C_23  and  O_61 
REMARK    5  A    between atoms: C_24  and  O_62 
REMARK    6  A    between atoms: C_28  and  O_64 
REMARK    7  A    between atoms: C_34  and  O_35 
REMARK    8  A    between atoms: C_46  and  O_49 
REMARK    9  A    between atoms: C_47  and  O_48 
ROOT
HETATM    1  C   UNK N   1      36.219  11.739   5.069  0.00  0.00     0.035 C 
HETATM    2  C   UNK N   1      35.487  12.872   4.335  0.00  0.00     0.187 C 
HETATM    3  C   UNK N   1      37.556  12.195   5.627  0.00  0.00     0.004 C 
HETATM    4  N   UNK N   1      35.413  14.060   5.221  0.00  0.00    -0.331 N 
HETATM    5  C   UNK N   1      37.315  13.346   6.587  0.00  0.00     0.020 C 
HETATM    6  C   UNK N   1      36.667  14.489   5.819  0.00  0.00     0.127 C 
HETATM    7  C   UNK N   1      34.179  12.245   3.912  0.00  0.00     0.282 C 
HETATM    8  O   UNK N   1      33.385  11.869   4.765  0.00  0.00    -0.263 OA
HETATM    9  O   UNK N   1      33.242  14.545   4.836  0.00  0.00    -0.264 OA
HETATM   10  C   UNK N   1      34.254  14.776   5.476  0.00  0.00     0.296 C 
HETATM   11  C   UNK N   1      34.173  15.840   6.545  0.00  0.00     0.278 C 
HETATM   12  O   UNK N   1      35.113  16.019   7.305  0.00  0.00    -0.281 OA
HETATM   13  C   UNK N   1      32.870  11.271   2.111  0.00  0.00     0.142 C 
HETATM   14  C   UNK N   1      31.597  12.105   2.291  0.00  0.00     0.112 C 
HETATM   15  O   UNK N   1      33.964  11.968   2.598  0.00  0.00    -0.314 OA
HETATM   16  O   UNK N   1      30.643  10.510   3.755  0.00  0.00    -0.297 OA
HETATM   17  C   UNK N   1      30.757  11.693   3.470  0.00  0.00     0.136 C 
HETATM   18  O   UNK N   1      31.825  15.664   6.843  0.00  0.00    -0.343 OA
HETATM   19  C   UNK N   1      32.877  16.623   6.755  0.00  0.00     0.238 C 
HETATM   20  C   UNK N   1      30.547  16.206   7.154  0.00  0.00     0.128 C 
HETATM   21  C   UNK N   1      30.578  16.991   8.467  0.00  0.00     0.033 C 
HETATM   22  C   UNK N   1      32.950  17.483   8.053  0.00  0.00     0.053 C 
HETATM   23  C   UNK N   1      31.602  18.102   8.376  0.00  0.00     0.013 C 
HETATM   24  C   UNK N   1      29.935  17.016   5.995  0.00  0.00     0.068 C 
HETATM   25  C   UNK N   1      28.479  17.398   6.294  0.00  0.00     0.151 C 
HETATM   26  C   UNK N   1      27.731  15.031   5.568  0.00  0.00     0.046 C 
HETATM   27  C   UNK N   1      27.462  16.494   5.598  0.00  0.00    -0.055 C 
HETATM   28  C   UNK N   1      26.267  16.898   5.117  0.00  0.00     0.005 C 
HETATM   29  C   UNK N   1      33.996  18.586   7.988  0.00  0.00     0.016 C 
HETATM   30  C   UNK N   1      29.867  12.682   4.155  0.00  0.00     0.074 C 
HETATM   31  C   UNK N   1      30.285  14.135   3.960  0.00  0.00     0.022 C 
HETATM   32  C   UNK N   1      28.454  12.407   3.716  0.00  0.00    -0.010 C 
HETATM   33  C   UNK N   1      27.955  12.695   2.501  0.00  0.00    -0.056 C 
HETATM   34  C   UNK N   1      28.752  13.421   1.457  0.00  0.00     0.046 C 
HETATM   35  C   UNK N   1      26.574  12.232   2.176  0.00  0.00     0.183 C 
HETATM   36  C   UNK N   1      25.579  13.402   2.058  0.00  0.00     0.223 C 
HETATM   37  C   UNK N   1      24.169  12.991   1.660  0.00  0.00     0.162 C 
HETATM   38  C   UNK N   1      25.773  18.283   5.173  0.00  0.00     0.000 C 
HETATM   39  C   UNK N   1      24.529  18.671   4.849  0.00  0.00    -0.000 C 
HETATM   40  C   UNK N   1      23.090  14.039   1.551  0.00  0.00     0.055 C 
HETATM   41  C   UNK N   1      22.718  14.526   2.944  0.00  0.00     0.020 C 
HETATM   42  O   UNK N   1      23.916  11.820   1.411  0.00  0.00    -0.295 OA
HETATM   43  C   UNK N   1      23.429  17.841   4.300  0.00  0.00    -0.004 C 
HETATM   44  C   UNK N   1      23.598  16.781   3.500  0.00  0.00    -0.022 C 
HETATM   45  C   UNK N   1      22.422  16.009   2.943  0.00  0.00     0.005 C 
HETATM   46  C   UNK N   1      21.832  13.509   0.877  0.00  0.00     0.018 C 
HETATM   47  C   UNK N   1      21.123  16.252   3.699  0.00  0.00     0.014 C 
ENDROOT
BRANCH  13  48
HETATM   48  C   UNK N   1      33.091  10.994   0.616  0.00  0.00     0.012 C 
HETATM   49  C   UNK N   1      33.500   9.549   0.368  0.00  0.00     0.012 C 
BRANCH  48  50
HETATM   50  C   UNK N   1      31.944  11.439  -0.311  0.00  0.00     0.011 C 
BRANCH  50  51
HETATM   51  C   UNK N   1      32.287  11.876  -1.735  0.00  0.00    -0.012 C 
HETATM   52  C   UNK N   1      33.586  12.676  -1.631  0.00  0.00     0.039 C 
HETATM   53  C   UNK N   1      34.129  13.063  -3.012  0.00  0.00     0.150 C 
HETATM   54  C   UNK N   1      34.319  11.832  -3.909  0.00  0.00     0.147 C 
HETATM   55  C   UNK N   1      32.998  11.072  -4.023  0.00  0.00     0.035 C 
HETATM   56  C   UNK N   1      32.498  10.655  -2.638  0.00  0.00     0.007 C 
BRANCH  53  57
HETATM   57  O   UNK N   1      35.274  13.889  -2.937  0.00  0.00    -0.388 OA
HETATM   58  C   UNK N   1      34.901  15.226  -3.162  0.00  0.00     0.202 C 
ENDBRANCH  53  57
BRANCH  54  59
HETATM   59  O   UNK N   1      34.741  12.226  -5.179  0.00  0.00    -0.393 OA
HETATM   60  H   UNK N   1      35.166  11.875  -5.977  0.00  0.00     0.210 HD
ENDBRANCH  54  59
ENDBRANCH  50  51
ENDBRANCH  48  50
ENDBRANCH  13  48
BRANCH  35  61
HETATM   61  O   UNK N   1      26.605  11.466   1.007  0.00  0.00    -0.388 OA
HETATM   62  H   UNK N   1      25.860  10.934   0.689  0.00  0.00     0.210 HD
ENDBRANCH  35  61
BRANCH  19  63
HETATM   63  O   UNK N   1      32.685  17.445   5.638  0.00  0.00    -0.359 OA
HETATM   64  H   UNK N   1      32.265  17.821   4.849  0.00  0.00     0.213 HD
ENDBRANCH  19  63
BRANCH  36  65
HETATM   65  O   UNK N   1      25.606  14.239   3.199  0.00  0.00    -0.380 OA
HETATM   66  C   UNK N   1      25.186  13.508   4.324  0.00  0.00     0.202 C 
ENDBRANCH  36  65
BRANCH  25  67
HETATM   67  O   UNK N   1      28.287  18.761   6.056  0.00  0.00    -0.386 OA
HETATM   68  C   UNK N   1      28.156  19.332   7.323  0.00  0.00     0.202 C 
ENDBRANCH  25  67
TORSDOF 9
ENDMDL
MODEL 5
REMARK VINA RESULT:      -9.0      8.916     15.688
REMARK  9 active torsions:
REMARK  status: ('A' for Active; 'I' for Inactive)
REMARK    1  A    between atoms: C_13  and  C_18 
REMARK    2  A    between atoms: C_16  and  C_21 
REMARK    3  A    between atoms: C_18  and  C_16 
REMARK    4  A    between atoms: C_23  and  O_61 
REMARK    5  A    between atoms: C_24  and  O_62 
REMARK    6  A    between atoms: C_28  and  O_64 
REMARK    7  A    between atoms: C_34  and  O_35 
REMARK    8  A    between atoms: C_46  and  O_49 
REMARK    9  A    between atoms: C_47  and  O_48 
ROOT
HETATM    1  C   UNK N   1      40.049   9.081  15.056  0.00  0.00     0.035 C 
HETATM    2  C   UNK N   1      39.014   8.677  13.996  0.00  0.00     0.187 C 
HETATM    3  C   UNK N   1      41.033   7.960  15.344  0.00  0.00     0.004 C 
HETATM    4  N   UNK N   1      39.720   8.153  12.800  0.00  0.00    -0.331 N 
HETATM    5  C   UNK N   1      41.746   7.596  14.055  0.00  0.00     0.020 C 
HETATM    6  C   UNK N   1      40.711   7.119  13.047  0.00  0.00     0.127 C 
HETATM    7  C   UNK N   1      38.179   9.923  13.811  0.00  0.00     0.282 C 
HETATM    8  O   UNK N   1      38.697  10.939  13.364  0.00  0.00    -0.263 OA
HETATM    9  O   UNK N   1      38.514   9.284  11.262  0.00  0.00    -0.264 OA
HETATM   10  C   UNK N   1      39.468   8.563  11.500  0.00  0.00     0.296 C 
HETATM   11  C   UNK N   1      40.349   8.169  10.338  0.00  0.00     0.278 C 
HETATM   12  O   UNK N   1      41.391   7.561  10.536  0.00  0.00    -0.281 OA
HETATM   13  C   UNK N   1      36.094  11.073  14.299  0.00  0.00     0.142 C 
HETATM   14  C   UNK N   1      35.723  11.469  12.866  0.00  0.00     0.112 C 
HETATM   15  O   UNK N   1      36.904   9.949  14.285  0.00  0.00    -0.314 OA
HETATM   16  O   UNK N   1      36.834  13.549  13.049  0.00  0.00    -0.297 OA
HETATM   17  C   UNK N   1      36.528  12.617  12.320  0.00  0.00     0.136 C 
HETATM   18  O   UNK N   1      39.757  10.024   8.983  0.00  0.00    -0.343 OA
HETATM   19  C   UNK N   1      40.001   8.621   8.920  0.00  0.00     0.238 C 
HETATM   20  C   UNK N   1      39.527  10.648   7.725  0.00  0.00     0.128 C 
HETATM   21  C   UNK N   1      40.695  10.417   6.765  0.00  0.00     0.033 C 
HETATM   22  C   UNK N   1      41.165   8.306   7.933  0.00  0.00     0.053 C 
HETATM   23  C   UNK N   1      40.914   8.931   6.573  0.00  0.00     0.013 C 
HETATM   24  C   UNK N   1      38.167  10.272   7.104  0.00  0.00     0.068 C 
HETATM   25  C   UNK N   1      37.871  11.126   5.864  0.00  0.00     0.151 C 
HETATM   26  C   UNK N   1      37.091  13.054   7.401  0.00  0.00     0.046 C 
HETATM   27  C   UNK N   1      36.911  12.283   6.141  0.00  0.00    -0.055 C 
HETATM   28  C   UNK N   1      35.990  12.751   5.273  0.00  0.00     0.005 C 
HETATM   29  C   UNK N   1      41.417   6.817   7.753  0.00  0.00     0.016 C 
HETATM   30  C   UNK N   1      36.755  12.757  10.847  0.00  0.00     0.074 C 
HETATM   31  C   UNK N   1      36.626  11.451  10.071  0.00  0.00     0.022 C 
HETATM   32  C   UNK N   1      35.840  13.840  10.343  0.00  0.00    -0.010 C 
HETATM   33  C   UNK N   1      34.509  13.717  10.195  0.00  0.00    -0.056 C 
HETATM   34  C   UNK N   1      33.790  12.423  10.441  0.00  0.00     0.046 C 
HETATM   35  C   UNK N   1      33.725  14.928   9.817  0.00  0.00     0.183 C 
HETATM   36  C   UNK N   1      33.158  14.834   8.388  0.00  0.00     0.223 C 
HETATM   37  C   UNK N   1      32.291  16.014   7.974  0.00  0.00     0.162 C 
HETATM   38  C   UNK N   1      35.756  12.199   3.930  0.00  0.00     0.000 C 
HETATM   39  C   UNK N   1      34.963  12.750   2.997  0.00  0.00    -0.000 C 
HETATM   40  C   UNK N   1      31.711  16.061   6.583  0.00  0.00     0.055 C 
HETATM   41  C   UNK N   1      32.824  16.333   5.582  0.00  0.00     0.020 C 
HETATM   42  O   UNK N   1      32.052  16.910   8.772  0.00  0.00    -0.295 OA
HETATM   43  C   UNK N   1      34.104  13.952   3.126  0.00  0.00    -0.004 C 
HETATM   44  C   UNK N   1      33.504  14.344   4.257  0.00  0.00    -0.022 C 
HETATM   45  C   UNK N   1      32.604  15.560   4.300  0.00  0.00     0.005 C 
HETATM   46  C   UNK N   1      30.655  17.148   6.433  0.00  0.00     0.018 C 
HETATM   47  C   UNK N   1      32.798  16.502   3.119  0.00  0.00     0.014 C 
ENDROOT
BRANCH  13  48
HETATM   48  C   UNK N   1      34.815  10.747  15.086  0.00  0.00     0.012 C 
HETATM   49  C   UNK N   1      33.593  10.711  14.179  0.00  0.00     0.012 C 
BRANCH  48  50
HETATM   50  C   UNK N   1      34.902   9.505  15.993  0.00  0.00     0.011 C 
BRANCH  50  51
HETATM   51  C   UNK N   1      35.391   9.686  17.430  0.00  0.00    -0.012 C 
HETATM   52  C   UNK N   1      35.134  11.152  17.783  0.00  0.00     0.039 C 
HETATM   53  C   UNK N   1      35.449  11.447  19.254  0.00  0.00     0.150 C 
HETATM   54  C   UNK N   1      34.671  10.518  20.196  0.00  0.00     0.147 C 
HETATM   55  C   UNK N   1      34.973   9.062  19.843  0.00  0.00     0.035 C 
HETATM   56  C   UNK N   1      34.608   8.777  18.385  0.00  0.00     0.007 C 
BRANCH  53  57
HETATM   57  O   UNK N   1      35.316  12.818  19.576  0.00  0.00    -0.388 OA
HETATM   58  C   UNK N   1      35.167  13.563  18.393  0.00  0.00     0.202 C 
ENDBRANCH  53  57
BRANCH  54  59
HETATM   59  O   UNK N   1      35.037  10.762  21.519  0.00  0.00    -0.393 OA
HETATM   60  H   UNK N   1      34.658  11.027  22.372  0.00  0.00     0.210 HD
ENDBRANCH  54  59
ENDBRANCH  50  51
ENDBRANCH  48  50
ENDBRANCH  13  48
BRANCH  35  61
HETATM   61  O   UNK N   1      32.712  15.138  10.757  0.00  0.00    -0.388 OA
HETATM   62  H   UNK N   1      32.657  14.674  11.606  0.00  0.00     0.210 HD
ENDBRANCH  35  61
BRANCH  19  63
HETATM   63  O   UNK N   1      38.837   7.949   8.528  0.00  0.00    -0.359 OA
HETATM   64  H   UNK N   1      38.241   7.403   7.992  0.00  0.00     0.213 HD
ENDBRANCH  19  63
BRANCH  36  65
HETATM   65  O   UNK N   1      34.162  14.530   7.438  0.00  0.00    -0.380 OA
HETATM   66  C   UNK N   1      35.088  15.587   7.382  0.00  0.00     0.202 C 
ENDBRANCH  36  65
BRANCH  25  67
HETATM   67  O   UNK N   1      37.480  10.303   4.804  0.00  0.00    -0.386 OA
HETATM   68  C   UNK N   1      37.200   9.068   5.392  0.00  0.00     0.202 C 
ENDBRANCH  25  67
TORSDOF 9
ENDMDL
MODEL 6
REMARK VINA RESULT:      -9.0      3.524     11.563
REMARK  9 active torsions:
REMARK  status: ('A' for Active; 'I' for Inactive)
REMARK    1  A    between atoms: C_13  and  C_18 
REMARK    2  A    between atoms: C_16  and  C_21 
REMARK    3  A    between atoms: C_18  and  C_16 
REMARK    4  A    between atoms: C_23  and  O_61 
REMARK    5  A    between atoms: C_24  and  O_62 
REMARK    6  A    between atoms: C_28  and  O_64 
REMARK    7  A    between atoms: C_34  and  O_35 
REMARK    8  A    between atoms: C_46  and  O_49 
REMARK    9  A    between atoms: C_47  and  O_48 
ROOT
HETATM    1  C   UNK N   1      36.248  14.563   4.900  0.00  0.00     0.035 C 
HETATM    2  C   UNK N   1      34.994  13.821   5.385  0.00  0.00     0.187 C 
HETATM    3  C   UNK N   1      37.425  13.621   4.708  0.00  0.00     0.004 C 
HETATM    4  N   UNK N   1      34.726  12.674   4.482  0.00  0.00    -0.331 N 
HETATM    5  C   UNK N   1      37.040  12.562   3.691  0.00  0.00     0.020 C 
HETATM    6  C   UNK N   1      35.848  11.785   4.230  0.00  0.00     0.127 C 
HETATM    7  C   UNK N   1      33.940  14.901   5.457  0.00  0.00     0.282 C 
HETATM    8  O   UNK N   1      33.583  15.470   4.433  0.00  0.00    -0.263 OA
HETATM    9  O   UNK N   1      32.506  13.021   4.262  0.00  0.00    -0.264 OA
HETATM   10  C   UNK N   1      33.493  12.399   3.911  0.00  0.00     0.296 C 
HETATM   11  C   UNK N   1      33.311  11.356   2.834  0.00  0.00     0.278 C 
HETATM   12  O   UNK N   1      34.284  10.797   2.348  0.00  0.00    -0.281 OA
HETATM   13  C   UNK N   1      32.656  16.409   6.866  0.00  0.00     0.142 C 
HETATM   14  C   UNK N   1      31.260  16.070   6.333  0.00  0.00     0.112 C 
HETATM   15  O   UNK N   1      33.510  15.335   6.673  0.00  0.00    -0.314 OA
HETATM   16  O   UNK N   1      31.359  17.785   4.707  0.00  0.00    -0.297 OA
HETATM   17  C   UNK N   1      30.960  16.663   4.983  0.00  0.00     0.136 C 
HETATM   18  O   UNK N   1      31.347  12.329   1.924  0.00  0.00    -0.343 OA
HETATM   19  C   UNK N   1      31.921  11.069   2.266  0.00  0.00     0.238 C 
HETATM   20  C   UNK N   1      30.086  12.254   1.270  0.00  0.00     0.128 C 
HETATM   21  C   UNK N   1      30.167  11.413  -0.005  0.00  0.00     0.033 C 
HETATM   22  C   UNK N   1      32.008  10.145   1.015  0.00  0.00     0.053 C 
HETATM   23  C   UNK N   1      30.660  10.021   0.329  0.00  0.00     0.013 C 
HETATM   24  C   UNK N   1      28.947  11.803   2.204  0.00  0.00     0.068 C 
HETATM   25  C   UNK N   1      27.581  11.942   1.518  0.00  0.00     0.151 C 
HETATM   26  C   UNK N   1      27.580  14.469   2.074  0.00  0.00     0.046 C 
HETATM   27  C   UNK N   1      26.817  13.198   1.939  0.00  0.00    -0.055 C 
HETATM   28  C   UNK N   1      25.477  13.281   2.074  0.00  0.00     0.005 C 
HETATM   29  C   UNK N   1      32.530   8.751   1.331  0.00  0.00     0.016 C 
HETATM   30  C   UNK N   1      29.980  16.006   4.062  0.00  0.00     0.074 C 
HETATM   31  C   UNK N   1      29.779  14.518   4.327  0.00  0.00     0.022 C 
HETATM   32  C   UNK N   1      28.700  16.796   4.114  0.00  0.00    -0.010 C 
HETATM   33  C   UNK N   1      27.837  16.796   5.145  0.00  0.00    -0.056 C 
HETATM   34  C   UNK N   1      28.019  15.915   6.346  0.00  0.00     0.046 C 
HETATM   35  C   UNK N   1      26.683  17.742   5.100  0.00  0.00     0.183 C 
HETATM   36  C   UNK N   1      25.338  17.014   4.921  0.00  0.00     0.223 C 
HETATM   37  C   UNK N   1      24.120  17.926   4.937  0.00  0.00     0.162 C 
HETATM   38  C   UNK N   1      24.547  12.162   1.855  0.00  0.00     0.000 C 
HETATM   39  C   UNK N   1      23.209  12.266   1.825  0.00  0.00    -0.000 C 
HETATM   40  C   UNK N   1      22.747  17.340   4.729  0.00  0.00     0.055 C 
HETATM   41  C   UNK N   1      22.596  16.914   3.276  0.00  0.00     0.020 C 
HETATM   42  O   UNK N   1      24.254  19.126   5.137  0.00  0.00    -0.295 OA
HETATM   43  C   UNK N   1      22.383  13.470   2.080  0.00  0.00    -0.004 C 
HETATM   44  C   UNK N   1      22.712  14.458   2.922  0.00  0.00    -0.022 C 
HETATM   45  C   UNK N   1      21.794  15.637   3.163  0.00  0.00     0.005 C 
HETATM   46  C   UNK N   1      21.638  18.332   5.056  0.00  0.00     0.018 C 
HETATM   47  C   UNK N   1      20.736  15.814   2.082  0.00  0.00     0.014 C 
ENDROOT
BRANCH  13  48
HETATM   48  C   UNK N   1      32.570  16.702   8.373  0.00  0.00     0.012 C 
HETATM   49  C   UNK N   1      31.465  17.700   8.687  0.00  0.00     0.012 C 
BRANCH  48  50
HETATM   50  C   UNK N   1      32.505  15.459   9.280  0.00  0.00     0.011 C 
BRANCH  50  51
HETATM   51  C   UNK N   1      33.717  15.130  10.152  0.00  0.00    -0.012 C 
HETATM   52  C   UNK N   1      34.273  13.808   9.623  0.00  0.00     0.039 C 
HETATM   53  C   UNK N   1      35.584  13.423  10.319  0.00  0.00     0.150 C 
HETATM   54  C   UNK N   1      36.633  14.539  10.205  0.00  0.00     0.147 C 
HETATM   55  C   UNK N   1      36.063  15.838  10.772  0.00  0.00     0.035 C 
HETATM   56  C   UNK N   1      34.781  16.228  10.033  0.00  0.00     0.007 C 
BRANCH  53  57
HETATM   57  O   UNK N   1      36.063  12.154   9.917  0.00  0.00    -0.388 OA
HETATM   58  C   UNK N   1      36.113  12.097   8.514  0.00  0.00     0.202 C 
ENDBRANCH  53  57
BRANCH  54  59
HETATM   59  O   UNK N   1      37.783  14.188  10.911  0.00  0.00    -0.393 OA
HETATM   60  H   UNK N   1      38.574  14.581  11.311  0.00  0.00     0.210 HD
ENDBRANCH  54  59
ENDBRANCH  50  51
ENDBRANCH  48  50
ENDBRANCH  13  48
BRANCH  35  61
HETATM   61  O   UNK N   1      26.687  18.533   6.253  0.00  0.00    -0.388 OA
HETATM   62  H   UNK N   1      26.747  19.500   6.245  0.00  0.00     0.210 HD
ENDBRANCH  35  61
BRANCH  19  63
HETATM   63  O   UNK N   1      31.164  10.455   3.272  0.00  0.00    -0.359 OA
HETATM   64  H   UNK N   1      30.683   9.762   3.751  0.00  0.00     0.213 HD
ENDBRANCH  19  63
BRANCH  36  65
HETATM   65  O   UNK N   1      25.353  16.138   3.809  0.00  0.00    -0.380 OA
HETATM   66  C   UNK N   1      25.586  16.878   2.635  0.00  0.00     0.202 C 
ENDBRANCH  36  65
BRANCH  25  67
HETATM   67  O   UNK N   1      26.854  10.758   1.664  0.00  0.00    -0.386 OA
HETATM   68  C   UNK N   1      27.534  10.037   2.648  0.00  0.00     0.202 C 
ENDBRANCH  25  67
TORSDOF 9
ENDMDL
MODEL 7
REMARK VINA RESULT:      -8.8      3.069      8.437
REMARK  9 active torsions:
REMARK  status: ('A' for Active; 'I' for Inactive)
REMARK    1  A    between atoms: C_13  and  C_18 
REMARK    2  A    between atoms: C_16  and  C_21 
REMARK    3  A    between atoms: C_18  and  C_16 
REMARK    4  A    between atoms: C_23  and  O_61 
REMARK    5  A    between atoms: C_24  and  O_62 
REMARK    6  A    between atoms: C_28  and  O_64 
REMARK    7  A    between atoms: C_34  and  O_35 
REMARK    8  A    between atoms: C_46  and  O_49 
REMARK    9  A    between atoms: C_47  and  O_48 
ROOT
HETATM    1  C   UNK N   1      22.461  17.719   5.553  0.00  0.00     0.035 C 
HETATM    2  C   UNK N   1      22.968  17.375   4.145  0.00  0.00     0.187 C 
HETATM    3  C   UNK N   1      21.063  18.313   5.524  0.00  0.00     0.004 C 
HETATM    4  N   UNK N   1      21.957  16.538   3.454  0.00  0.00    -0.331 N 
HETATM    5  C   UNK N   1      20.122  17.310   4.880  0.00  0.00     0.020 C 
HETATM    6  C   UNK N   1      20.595  17.048   3.457  0.00  0.00     0.127 C 
HETATM    7  C   UNK N   1      24.324  16.756   4.389  0.00  0.00     0.282 C 
HETATM    8  O   UNK N   1      24.407  15.704   5.011  0.00  0.00    -0.263 OA
HETATM    9  O   UNK N   1      23.397  15.009   2.626  0.00  0.00    -0.264 OA
HETATM   10  C   UNK N   1      22.239  15.349   2.800  0.00  0.00     0.296 C 
HETATM   11  C   UNK N   1      21.159  14.420   2.298  0.00  0.00     0.278 C 
HETATM   12  O   UNK N   1      19.987  14.642   2.561  0.00  0.00    -0.281 OA
HETATM   13  C   UNK N   1      26.737  17.046   4.351  0.00  0.00     0.142 C 
HETATM   14  C   UNK N   1      27.095  15.791   3.549  0.00  0.00     0.112 C 
HETATM   15  O   UNK N   1      25.446  17.448   4.050  0.00  0.00    -0.314 OA
HETATM   16  O   UNK N   1      27.351  14.492   5.509  0.00  0.00    -0.297 OA
HETATM   17  C   UNK N   1      27.002  14.513   4.337  0.00  0.00     0.136 C 
HETATM   18  O   UNK N   1      22.516  12.474   2.338  0.00  0.00    -0.343 OA
HETATM   19  C   UNK N   1      21.531  13.139   1.551  0.00  0.00     0.238 C 
HETATM   20  C   UNK N   1      22.905  11.194   1.853  0.00  0.00     0.128 C 
HETATM   21  C   UNK N   1      21.702  10.259   1.717  0.00  0.00     0.033 C 
HETATM   22  C   UNK N   1      20.282  12.230   1.345  0.00  0.00     0.053 C 
HETATM   23  C   UNK N   1      20.676  10.875   0.788  0.00  0.00     0.013 C 
HETATM   24  C   UNK N   1      23.746  11.266   0.564  0.00  0.00     0.068 C 
HETATM   25  C   UNK N   1      24.318   9.890   0.199  0.00  0.00     0.151 C 
HETATM   26  C   UNK N   1      26.208  10.238   1.931  0.00  0.00     0.046 C 
HETATM   27  C   UNK N   1      25.782   9.716   0.603  0.00  0.00    -0.055 C 
HETATM   28  C   UNK N   1      26.700   9.011  -0.090  0.00  0.00     0.005 C 
HETATM   29  C   UNK N   1      19.229  12.849   0.437  0.00  0.00     0.016 C 
HETATM   30  C   UNK N   1      26.721  13.213   3.652  0.00  0.00     0.074 C 
HETATM   31  C   UNK N   1      26.014  13.358   2.309  0.00  0.00     0.022 C 
HETATM   32  C   UNK N   1      28.016  12.452   3.562  0.00  0.00    -0.010 C 
HETATM   33  C   UNK N   1      29.029  12.750   2.729  0.00  0.00    -0.056 C 
HETATM   34  C   UNK N   1      28.935  13.850   1.712  0.00  0.00     0.046 C 
HETATM   35  C   UNK N   1      30.302  11.983   2.861  0.00  0.00     0.183 C 
HETATM   36  C   UNK N   1      30.551  11.054   1.657  0.00  0.00     0.223 C 
HETATM   37  C   UNK N   1      31.870  10.298   1.707  0.00  0.00     0.162 C 
HETATM   38  C   UNK N   1      26.431   8.317  -1.360  0.00  0.00     0.000 C 
HETATM   39  C   UNK N   1      27.282   7.481  -1.976  0.00  0.00    -0.000 C 
HETATM   40  C   UNK N   1      32.213   9.324   0.608  0.00  0.00     0.055 C 
HETATM   41  C   UNK N   1      31.329   8.093   0.733  0.00  0.00     0.020 C 
HETATM   42  O   UNK N   1      32.657  10.494   2.624  0.00  0.00    -0.295 OA
HETATM   43  C   UNK N   1      28.670   7.140  -1.583  0.00  0.00    -0.004 C 
HETATM   44  C   UNK N   1      29.514   7.973  -0.959  0.00  0.00    -0.022 C 
HETATM   45  C   UNK N   1      30.934   7.566  -0.629  0.00  0.00     0.005 C 
HETATM   46  C   UNK N   1      33.668   8.878   0.663  0.00  0.00     0.018 C 
HETATM   47  C   UNK N   1      31.157   6.060  -0.658  0.00  0.00     0.014 C 
ENDROOT
BRANCH  13  48
HETATM   48  C   UNK N   1      27.703  18.182   3.980  0.00  0.00     0.012 C 
HETATM   49  C   UNK N   1      26.973  19.507   3.813  0.00  0.00     0.012 C 
BRANCH  48  50
HETATM   50  C   UNK N   1      28.942  18.312   4.887  0.00  0.00     0.011 C 
BRANCH  50  51
HETATM   51  C   UNK N   1      28.842  17.817   6.330  0.00  0.00    -0.012 C 
HETATM   52  C   UNK N   1      30.278  17.559   6.788  0.00  0.00     0.039 C 
HETATM   53  C   UNK N   1      30.344  17.187   8.274  0.00  0.00     0.150 C 
HETATM   54  C   UNK N   1      29.677  18.255   9.153  0.00  0.00     0.147 C 
HETATM   55  C   UNK N   1      28.235  18.467   8.695  0.00  0.00     0.035 C 
HETATM   56  C   UNK N   1      28.196  18.882   7.223  0.00  0.00     0.007 C 
BRANCH  53  57
HETATM   57  O   UNK N   1      31.650  16.845   8.695  0.00  0.00    -0.388 OA
HETATM   58  C   UNK N   1      32.544  17.861   8.313  0.00  0.00     0.202 C 
ENDBRANCH  53  57
BRANCH  54  59
HETATM   59  O   UNK N   1      29.688  17.851  10.488  0.00  0.00    -0.393 OA
HETATM   60  H   UNK N   1      29.116  17.811  11.270  0.00  0.00     0.210 HD
ENDBRANCH  54  59
ENDBRANCH  50  51
ENDBRANCH  48  50
ENDBRANCH  13  48
BRANCH  35  61
HETATM   61  O   UNK N   1      31.363  12.874   3.048  0.00  0.00    -0.388 OA
HETATM   62  H   UNK N   1      31.769  13.390   2.335  0.00  0.00     0.210 HD
ENDBRANCH  35  61
BRANCH  19  63
HETATM   63  O   UNK N   1      22.074  13.505   0.313  0.00  0.00    -0.359 OA
HETATM   64  H   UNK N   1      22.132  13.660  -0.643  0.00  0.00     0.213 HD
ENDBRANCH  19  63
BRANCH  36  65
HETATM   65  O   UNK N   1      29.444  10.211   1.400  0.00  0.00    -0.380 OA
HETATM   66  C   UNK N   1      29.247   9.351   2.496  0.00  0.00     0.202 C 
ENDBRANCH  36  65
BRANCH  25  67
HETATM   67  O   UNK N   1      24.063   9.611  -1.146  0.00  0.00    -0.386 OA
HETATM   68  C   UNK N   1      22.993   8.713  -1.130  0.00  0.00     0.202 C 
ENDBRANCH  25  67
TORSDOF 9
ENDMDL
MODEL 8
REMARK VINA RESULT:      -8.7      3.234      9.683
REMARK  9 active torsions:
REMARK  status: ('A' for Active; 'I' for Inactive)
REMARK    1  A    between atoms: C_13  and  C_18 
REMARK    2  A    between atoms: C_16  and  C_21 
REMARK    3  A    between atoms: C_18  and  C_16 
REMARK    4  A    between atoms: C_23  and  O_61 
REMARK    5  A    between atoms: C_24  and  O_62 
REMARK    6  A    between atoms: C_28  and  O_64 
REMARK    7  A    between atoms: C_34  and  O_35 
REMARK    8  A    between atoms: C_46  and  O_49 
REMARK    9  A    between atoms: C_47  and  O_48 
ROOT
HETATM    1  C   UNK N   1      31.910   9.872   5.650  0.00  0.00     0.035 C 
HETATM    2  C   UNK N   1      31.625  11.006   4.654  0.00  0.00     0.187 C 
HETATM    3  C   UNK N   1      33.344   9.904   6.150  0.00  0.00     0.004 C 
HETATM    4  N   UNK N   1      32.041  12.298   5.254  0.00  0.00    -0.331 N 
HETATM    5  C   UNK N   1      33.596  11.241   6.822  0.00  0.00     0.020 C 
HETATM    6  C   UNK N   1      33.389  12.345   5.795  0.00  0.00     0.127 C 
HETATM    7  C   UNK N   1      30.159  10.839   4.326  0.00  0.00     0.282 C 
HETATM    8  O   UNK N   1      29.321  10.986   5.207  0.00  0.00    -0.263 OA
HETATM    9  O   UNK N   1      30.195  13.465   4.680  0.00  0.00    -0.264 OA
HETATM   10  C   UNK N   1      31.247  13.434   5.295  0.00  0.00     0.296 C 
HETATM   11  C   UNK N   1      31.619  14.657   6.099  0.00  0.00     0.278 C 
HETATM   12  O   UNK N   1      32.591  14.633   6.839  0.00  0.00    -0.281 OA
HETATM   13  C   UNK N   1      28.501  10.057   2.730  0.00  0.00     0.142 C 
HETATM   14  C   UNK N   1      27.643  11.325   2.669  0.00  0.00     0.112 C 
HETATM   15  O   UNK N   1      29.797  10.381   3.097  0.00  0.00    -0.314 OA
HETATM   16  O   UNK N   1      26.227  10.569   4.406  0.00  0.00    -0.297 OA
HETATM   17  C   UNK N   1      26.764  11.529   3.873  0.00  0.00     0.136 C 
HETATM   18  O   UNK N   1      29.393  15.445   6.329  0.00  0.00    -0.343 OA
HETATM   19  C   UNK N   1      30.723  15.895   6.077  0.00  0.00     0.238 C 
HETATM   20  C   UNK N   1      28.426  16.481   6.460  0.00  0.00     0.128 C 
HETATM   21  C   UNK N   1      28.808  17.465   7.567  0.00  0.00     0.033 C 
HETATM   22  C   UNK N   1      31.170  16.927   7.155  0.00  0.00     0.053 C 
HETATM   23  C   UNK N   1      30.169  18.061   7.277  0.00  0.00     0.013 C 
HETATM   24  C   UNK N   1      28.112  17.186   5.126  0.00  0.00     0.068 C 
HETATM   25  C   UNK N   1      26.920  18.141   5.273  0.00  0.00     0.151 C 
HETATM   26  C   UNK N   1      25.306  16.131   5.055  0.00  0.00     0.046 C 
HETATM   27  C   UNK N   1      25.607  17.556   4.750  0.00  0.00    -0.055 C 
HETATM   28  C   UNK N   1      24.631  18.263   4.142  0.00  0.00     0.005 C 
HETATM   29  C   UNK N   1      32.550  17.513   6.893  0.00  0.00     0.016 C 
HETATM   30  C   UNK N   1      26.341  12.904   4.285  0.00  0.00     0.074 C 
HETATM   31  C   UNK N   1      27.264  14.013   3.792  0.00  0.00     0.022 C 
HETATM   32  C   UNK N   1      24.910  13.091   3.858  0.00  0.00    -0.010 C 
HETATM   33  C   UNK N   1      24.501  13.270   2.590  0.00  0.00    -0.056 C 
HETATM   34  C   UNK N   1      25.464  13.395   1.446  0.00  0.00     0.046 C 
HETATM   35  C   UNK N   1      23.034  13.300   2.317  0.00  0.00     0.183 C 
HETATM   36  C   UNK N   1      22.546  14.700   1.903  0.00  0.00     0.223 C 
HETATM   37  C   UNK N   1      21.068  14.773   1.546  0.00  0.00     0.162 C 
HETATM   38  C   UNK N   1      24.695  19.707   3.871  0.00  0.00     0.000 C 
HETATM   39  C   UNK N   1      23.674  20.453   3.418  0.00  0.00    -0.000 C 
HETATM   40  C   UNK N   1      20.458  16.097   1.165  0.00  0.00     0.055 C 
HETATM   41  C   UNK N   1      20.358  16.981   2.399  0.00  0.00     0.020 C 
HETATM   42  O   UNK N   1      20.384  13.758   1.551  0.00  0.00    -0.295 OA
HETATM   43  C   UNK N   1      22.321  19.997   3.020  0.00  0.00    -0.004 C 
HETATM   44  C   UNK N   1      22.044  18.804   2.480  0.00  0.00    -0.022 C 
HETATM   45  C   UNK N   1      20.640  18.427   2.058  0.00  0.00     0.005 C 
HETATM   46  C   UNK N   1      19.063  15.943   0.571  0.00  0.00     0.018 C 
HETATM   47  C   UNK N   1      19.562  19.300   2.687  0.00  0.00     0.014 C 
ENDROOT
BRANCH  13  48
HETATM   48  C   UNK N   1      28.534   9.396   1.343  0.00  0.00     0.012 C 
HETATM   49  C   UNK N   1      27.440   9.939   0.436  0.00  0.00     0.012 C 
BRANCH  48  50
HETATM   50  C   UNK N   1      29.911   9.390   0.653  0.00  0.00     0.011 C 
BRANCH  50  51
HETATM   51  C   UNK N   1      30.155  10.372  -0.493  0.00  0.00    -0.012 C 
HETATM   52  C   UNK N   1      31.490  11.052  -0.191  0.00  0.00     0.039 C 
HETATM   53  C   UNK N   1      31.935  11.969  -1.336  0.00  0.00     0.150 C 
HETATM   54  C   UNK N   1      31.999  11.215  -2.671  0.00  0.00     0.147 C 
HETATM   55  C   UNK N   1      30.643  10.576  -2.965  0.00  0.00     0.035 C 
HETATM   56  C   UNK N   1      30.241   9.629  -1.832  0.00  0.00     0.007 C 
BRANCH  53  57
HETATM   57  O   UNK N   1      33.116  12.686  -1.034  0.00  0.00    -0.388 OA
HETATM   58  C   UNK N   1      33.610  12.268   0.213  0.00  0.00     0.202 C 
ENDBRANCH  53  57
BRANCH  54  59
HETATM   59  O   UNK N   1      32.333  12.094  -3.702  0.00  0.00    -0.393 OA
HETATM   60  H   UNK N   1      31.953  12.514  -4.490  0.00  0.00     0.210 HD
ENDBRANCH  54  59
ENDBRANCH  50  51
ENDBRANCH  48  50
ENDBRANCH  13  48
BRANCH  35  61
HETATM   61  O   UNK N   1      22.723  12.341   1.348  0.00  0.00    -0.388 OA
HETATM   62  H   UNK N   1      21.842  11.954   1.234  0.00  0.00     0.210 HD
ENDBRANCH  35  61
BRANCH  19  63
HETATM   63  O   UNK N   1      30.803  16.462   4.799  0.00  0.00    -0.359 OA
HETATM   64  H   UNK N   1      30.566  17.000   4.028  0.00  0.00     0.213 HD
ENDBRANCH  19  63
BRANCH  36  65
HETATM   65  O   UNK N   1      22.936  15.695   2.831  0.00  0.00    -0.380 OA
HETATM   66  C   UNK N   1      22.319  15.444   4.071  0.00  0.00     0.202 C 
ENDBRANCH  36  65
BRANCH  25  67
HETATM   67  O   UNK N   1      27.242  19.389   4.732  0.00  0.00    -0.386 OA
HETATM   68  C   UNK N   1      27.444  20.218   5.837  0.00  0.00     0.202 C 
ENDBRANCH  25  67
TORSDOF 9
ENDMDL
MODEL 9
REMARK VINA RESULT:      -8.6      1.439      1.963
REMARK  9 active torsions:
REMARK  status: ('A' for Active; 'I' for Inactive)
REMARK    1  A    between atoms: C_13  and  C_18 
REMARK    2  A    between atoms: C_16  and  C_21 
REMARK    3  A    between atoms: C_18  and  C_16 
REMARK    4  A    between atoms: C_23  and  O_61 
REMARK    5  A    between atoms: C_24  and  O_62 
REMARK    6  A    between atoms: C_28  and  O_64 
REMARK    7  A    between atoms: C_34  and  O_35 
REMARK    8  A    between atoms: C_46  and  O_49 
REMARK    9  A    between atoms: C_47  and  O_48 
ROOT
HETATM    1  C   UNK N   1      20.640  12.545   0.515  0.00  0.00     0.035 C 
HETATM    2  C   UNK N   1      21.226  12.661   1.930  0.00  0.00     0.187 C 
HETATM    3  C   UNK N   1      19.232  13.110   0.437  0.00  0.00     0.004 C 
HETATM    4  N   UNK N   1      21.097  14.063   2.399  0.00  0.00    -0.331 N 
HETATM    5  C   UNK N   1      19.270  14.570   0.850  0.00  0.00     0.020 C 
HETATM    6  C   UNK N   1      19.774  14.655   2.283  0.00  0.00     0.127 C 
HETATM    7  C   UNK N   1      22.626  12.108   1.789  0.00  0.00     0.282 C 
HETATM    8  O   UNK N   1      23.435  12.685   1.073  0.00  0.00    -0.263 OA
HETATM    9  O   UNK N   1      23.188  14.261   3.228  0.00  0.00    -0.264 OA
HETATM   10  C   UNK N   1      22.131  14.803   2.951  0.00  0.00     0.296 C 
HETATM   11  C   UNK N   1      22.020  16.286   3.215  0.00  0.00     0.278 C 
HETATM   12  O   UNK N   1      21.037  16.905   2.835  0.00  0.00    -0.281 OA
HETATM   13  C   UNK N   1      24.125  10.230   2.153  0.00  0.00     0.142 C 
HETATM   14  C   UNK N   1      25.257  10.987   2.854  0.00  0.00     0.112 C 
HETATM   15  O   UNK N   1      22.925  10.899   2.335  0.00  0.00    -0.314 OA
HETATM   16  O   UNK N   1      26.378  11.398   0.812  0.00  0.00    -0.297 OA
HETATM   17  C   UNK N   1      26.105  11.817   1.928  0.00  0.00     0.136 C 
HETATM   18  O   UNK N   1      24.356  16.692   3.132  0.00  0.00    -0.343 OA
HETATM   19  C   UNK N   1      23.181  17.042   3.860  0.00  0.00     0.238 C 
HETATM   20  C   UNK N   1      25.531  17.394   3.522  0.00  0.00     0.128 C 
HETATM   21  C   UNK N   1      25.341  18.908   3.408  0.00  0.00     0.033 C 
HETATM   22  C   UNK N   1      22.939  18.581   3.813  0.00  0.00     0.053 C 
HETATM   23  C   UNK N   1      24.171  19.343   4.265  0.00  0.00     0.013 C 
HETATM   24  C   UNK N   1      26.060  16.967   4.904  0.00  0.00     0.068 C 
HETATM   25  C   UNK N   1      27.435  17.588   5.187  0.00  0.00     0.151 C 
HETATM   26  C   UNK N   1      28.542  15.747   3.746  0.00  0.00     0.046 C 
HETATM   27  C   UNK N   1      28.596  16.623   4.948  0.00  0.00    -0.055 C 
HETATM   28  C   UNK N   1      29.736  16.589   5.670  0.00  0.00     0.005 C 
HETATM   29  C   UNK N   1      21.748  19.030   4.645  0.00  0.00     0.016 C 
HETATM   30  C   UNK N   1      26.819  13.032   2.430  0.00  0.00     0.074 C 
HETATM   31  C   UNK N   1      26.202  13.641   3.684  0.00  0.00     0.022 C 
HETATM   32  C   UNK N   1      28.271  12.675   2.596  0.00  0.00    -0.010 C 
HETATM   33  C   UNK N   1      28.766  11.896   3.574  0.00  0.00    -0.056 C 
HETATM   34  C   UNK N   1      27.911  11.359   4.683  0.00  0.00     0.046 C 
HETATM   35  C   UNK N   1      30.210  11.523   3.518  0.00  0.00     0.183 C 
HETATM   36  C   UNK N   1      31.030  12.194   4.636  0.00  0.00     0.223 C 
HETATM   37  C   UNK N   1      32.498  11.794   4.667  0.00  0.00     0.162 C 
HETATM   38  C   UNK N   1      30.023  17.467   6.815  0.00  0.00     0.000 C 
HETATM   39  C   UNK N   1      31.210  17.558   7.438  0.00  0.00    -0.000 C 
HETATM   40  C   UNK N   1      33.417  12.414   5.689  0.00  0.00     0.055 C 
HETATM   41  C   UNK N   1      33.665  13.870   5.326  0.00  0.00     0.020 C 
HETATM   42  O   UNK N   1      32.925  10.961   3.880  0.00  0.00    -0.295 OA
HETATM   43  C   UNK N   1      32.436  16.765   7.183  0.00  0.00    -0.004 C 
HETATM   44  C   UNK N   1      32.450  15.494   6.761  0.00  0.00    -0.022 C 
HETATM   45  C   UNK N   1      33.744  14.735   6.565  0.00  0.00     0.005 C 
HETATM   46  C   UNK N   1      34.762  11.703   5.766  0.00  0.00     0.018 C 
HETATM   47  C   UNK N   1      34.967  15.636   6.459  0.00  0.00     0.014 C 
ENDROOT
BRANCH  13  48
HETATM   48  C   UNK N   1      23.999   8.823   2.759  0.00  0.00     0.012 C 
HETATM   49  C   UNK N   1      25.103   7.899   2.264  0.00  0.00     0.012 C 
BRANCH  48  50
HETATM   50  C   UNK N   1      23.850   8.781   4.291  0.00  0.00     0.011 C 
BRANCH  50  51
HETATM   51  C   UNK N   1      22.440   8.747   4.884  0.00  0.00    -0.012 C 
HETATM   52  C   UNK N   1      22.084  10.197   5.211  0.00  0.00     0.039 C 
HETATM   53  C   UNK N   1      20.633  10.334   5.687  0.00  0.00     0.150 C 
HETATM   54  C   UNK N   1      19.646   9.749   4.667  0.00  0.00     0.147 C 
HETATM   55  C   UNK N   1      20.005   8.291   4.386  0.00  0.00     0.035 C 
HETATM   56  C   UNK N   1      21.441   8.182   3.868  0.00  0.00     0.007 C 
BRANCH  53  57
HETATM   57  O   UNK N   1      20.312  11.651   6.092  0.00  0.00    -0.388 OA
HETATM   58  C   UNK N   1      21.402  12.498   5.828  0.00  0.00     0.202 C 
ENDBRANCH  53  57
BRANCH  54  59
HETATM   59  O   UNK N   1      18.345   9.821   5.164  0.00  0.00    -0.393 OA
HETATM   60  H   UNK N   1      17.673  10.467   5.431  0.00  0.00     0.210 HD
ENDBRANCH  54  59
ENDBRANCH  50  51
ENDBRANCH  48  50
ENDBRANCH  13  48
BRANCH  35  61
HETATM   61  O   UNK N   1      30.332  10.131   3.558  0.00  0.00    -0.388 OA
HETATM   62  H   UNK N   1      30.498   9.625   4.368  0.00  0.00     0.210 HD
ENDBRANCH  35  61
BRANCH  19  63
HETATM   63  O   UNK N   1      23.292  16.609   5.187  0.00  0.00    -0.359 OA
HETATM   64  H   UNK N   1      23.704  16.346   6.025  0.00  0.00     0.213 HD
ENDBRANCH  19  63
BRANCH  36  65
HETATM   65  O   UNK N   1      30.842  13.596   4.664  0.00  0.00    -0.380 OA
HETATM   66  C   UNK N   1      31.319  14.155   3.464  0.00  0.00     0.202 C 
ENDBRANCH  36  65
BRANCH  25  67
HETATM   67  O   UNK N   1      27.437  18.180   6.453  0.00  0.00    -0.386 OA
HETATM   68  C   UNK N   1      27.423  19.555   6.207  0.00  0.00     0.202 C 
ENDBRANCH  25  67
TORSDOF 9
ENDMDL
