REMARK  3 active torsions:
REMARK  status: ('A' for Active; 'I' for Inactive)
REMARK    1  A    between atoms: C_3  and  O_21 
REMARK    2  A    between atoms: C_3  and  C_22 
REMARK    3  A    between atoms: O_21  and  C_26 
ROOT
HETATM    1  C   UNK N   1       1.967  -0.042   1.715  0.00  0.00     0.009 C 
HETATM    2  C   UNK N   1       0.458  -2.269   0.102  0.00  0.00     0.014 C 
HETATM    3  C   UNK N   1       2.867   1.978   0.778  0.00  0.00     0.138 C 
HETATM    4  C   UNK N   1       0.622   1.955  -0.578  0.00  0.00     0.013 C 
HETATM    5  C   UNK N   1       2.196   1.438   2.025  0.00  0.00     0.048 C 
HETATM    6  C   UNK N   1      -1.982  -0.520  -0.227  0.00  0.00    -0.016 C 
HETATM    7  C   UNK N   1      -0.477   1.489   0.367  0.00  0.00     0.007 C 
HETATM    8  C   UNK N   1      -0.829  -2.878  -0.457  0.00  0.00     0.012 C 
HETATM    9  C   UNK N   1      -2.064  -2.044  -0.134  0.00  0.00    -0.064 C 
HETATM   10  C   UNK N   1      -3.134   0.122   0.566  0.00  0.00     0.022 C 
HETATM   11  C   UNK N   1      -3.271  -2.644  -0.125  0.00  0.00     0.054 C 
HETATM   12  C   UNK N   1      -4.512  -0.383   0.144  0.00  0.00     0.084 C 
HETATM   13  C   UNK N   1       0.559  -0.792  -0.273  0.00  0.00    -0.004 C 
HETATM   14  C   UNK N   1      -0.642  -0.045   0.379  0.00  0.00     0.002 C 
HETATM   15  C   UNK N   1       2.017   1.306  -0.345  0.00  0.00    -0.001 C 
HETATM   16  C   UNK N   1       2.664   1.367  -1.724  0.00  0.00     0.019 C 
HETATM   17  C   UNK N   1       1.885  -0.152   0.181  0.00  0.00     0.002 C 
HETATM   18  O   UNK N   1      -5.596  -2.452  -0.135  0.00  0.00    -0.293 OA
HETATM   19  C   UNK N   1      -4.528  -1.873  -0.028  0.00  0.00     0.149 C 
HETATM   20  C   UNK N   1      -2.083  -0.101  -1.694  0.00  0.00     0.020 C 
HETATM   21  C   UNK N   1      -0.935  -4.323   0.009  0.00  0.00     0.015 C 
ENDROOT
BRANCH   3  22
HETATM   22  O   UNK N   1       4.171   1.464   0.828  0.00  0.00    -0.302 OA
BRANCH  22  23
HETATM   23  C   UNK N   1       5.126   1.519  -0.134  0.00  0.00     0.256 C 
HETATM   24  C   UNK N   1       6.027   2.700  -0.256  0.00  0.00     0.126 C 
HETATM   25  O   UNK N   1       5.364   0.523  -0.799  0.00  0.00    -0.266 OA
ENDBRANCH  22  23
ENDBRANCH   3  22
BRANCH   3  26
HETATM   26  C   UNK N   1       2.848   3.507   0.789  0.00  0.00     0.158 C 
HETATM   27  C   UNK N   1       1.564   4.265   0.926  0.00  0.00     0.094 C 
HETATM   28  O   UNK N   1       3.886   4.143   0.750  0.00  0.00    -0.295 OA
ENDBRANCH   3  26
TORSDOF 3
