MODEL 1
REMARK VINA RESULT:      -7.1      0.000      0.000
REMARK  3 active torsions:
REMARK  status: ('A' for Active; 'I' for Inactive)
REMARK    1  A    between atoms: C_9  and  C_11 
REMARK    2  A    between atoms: C_10  and  O_21 
REMARK       I    between atoms: C_11  and  N_12 
REMARK    3  A    between atoms: N_12  and  C_13 
ROOT
HETATM    1  C   UNK N   1      21.565  14.049   8.989  0.00  0.00     0.023 A 
HETATM    2  C   UNK N   1      20.613  13.701   9.965  0.00  0.00     0.016 A 
HETATM    3  C   UNK N   1      20.844  12.643  10.850  0.00  0.00     0.001 A 
HETATM    4  C   UNK N   1      22.035  11.921  10.775  0.00  0.00     0.002 A 
HETATM    5  C   UNK N   1      22.985  12.246   9.807  0.00  0.00     0.026 A 
HETATM    6  C   UNK N   1      22.745  13.302   8.922  0.00  0.00     0.093 A 
HETATM    7  S   UNK N   1      23.896  13.675   7.666  0.00  0.00     0.266 S 
HETATM    8  N   UNK N   1      23.417  15.145   6.869  0.00  0.00    -0.268 N 
HETATM    9  C   UNK N   1      22.109  15.722   7.106  0.00  0.00     0.146 C 
HETATM   10  C   UNK N   1      21.257  15.205   8.076  0.00  0.00     0.110 C 
HETATM   11  C   UNK N   1      24.347  15.697   5.911  0.00  0.00     0.170 C 
HETATM   12  O   UNK N   1      25.360  13.873   8.093  0.00  0.00    -0.200 OA
HETATM   13  O   UNK N   1      23.941  12.629   6.544  0.00  0.00    -0.200 OA
ENDROOT
BRANCH   9  14
HETATM   14  C   UNK N   1      21.664  16.925   6.280  0.00  0.00     0.277 C 
HETATM   15  N   UNK N   1      21.395  16.796   4.951  0.00  0.00    -0.308 N 
HETATM   16  H   UNK N   1      21.509  15.898   4.565  0.00  0.00     0.170 HD
HETATM   17  O   UNK N   1      21.544  18.018   6.813  0.00  0.00    -0.266 OA
BRANCH  15  18
HETATM   18  C   UNK N   1      20.965  17.820   4.056  0.00  0.00     0.107 A 
HETATM   19  N   UNK N   1      21.749  18.922   3.897  0.00  0.00    -0.352 N 
HETATM   20  C   UNK N   1      21.406  19.935   3.056  0.00  0.00     0.089 A 
ATOM     21  HN  UNK N   1      22.619  18.991   4.425  1.00  0.00     0.166 HD
HETATM   22  C   UNK N   1      20.220  19.866   2.324  0.00  0.00     0.017 A 
HETATM   23  C   UNK N   1      19.396  18.750   2.465  0.00  0.00     0.005 A 
HETATM   24  C   UNK N   1      19.765  17.722   3.332  0.00  0.00     0.048 A 
ENDBRANCH  15  18
ENDBRANCH   9  14
BRANCH  10  25
HETATM   25  O   UNK N   1      20.046  15.773   8.255  0.00  0.00    -0.357 OA
HETATM   26  H   UNK N   1      19.634  15.743   9.096  0.00  0.00     0.217 HD
ENDBRANCH  10  25
TORSDOF 3
ENDMDL
MODEL 2
REMARK VINA RESULT:      -6.9     12.941     15.417
REMARK  3 active torsions:
REMARK  status: ('A' for Active; 'I' for Inactive)
REMARK    1  A    between atoms: C_9  and  C_11 
REMARK    2  A    between atoms: C_10  and  O_21 
REMARK       I    between atoms: C_11  and  N_12 
REMARK    3  A    between atoms: N_12  and  C_13 
ROOT
HETATM    1  C   UNK N   1      34.529  16.175   8.930  0.00  0.00     0.023 A 
HETATM    2  C   UNK N   1      34.179  17.537   8.974  0.00  0.00     0.016 A 
HETATM    3  C   UNK N   1      33.826  18.227   7.811  0.00  0.00     0.001 A 
HETATM    4  C   UNK N   1      33.813  17.562   6.585  0.00  0.00     0.002 A 
HETATM    5  C   UNK N   1      34.167  16.215   6.521  0.00  0.00     0.026 A 
HETATM    6  C   UNK N   1      34.523  15.532   7.688  0.00  0.00     0.093 A 
HETATM    7  S   UNK N   1      35.030  13.865   7.611  0.00  0.00     0.266 S 
HETATM    8  N   UNK N   1      35.211  13.246   9.226  0.00  0.00    -0.268 N 
HETATM    9  C   UNK N   1      35.191  14.140  10.367  0.00  0.00     0.146 C 
HETATM   10  C   UNK N   1      34.888  15.490  10.221  0.00  0.00     0.110 C 
HETATM   11  C   UNK N   1      35.464  11.830   9.355  0.00  0.00     0.170 C 
HETATM   12  O   UNK N   1      34.103  12.884   6.875  0.00  0.00    -0.200 OA
HETATM   13  O   UNK N   1      36.412  13.672   6.971  0.00  0.00    -0.200 OA
ENDROOT
BRANCH   9  14
HETATM   14  C   UNK N   1      35.502  13.587  11.754  0.00  0.00     0.277 C 
HETATM   15  N   UNK N   1      34.562  12.892  12.454  0.00  0.00    -0.308 N 
HETATM   16  H   UNK N   1      33.687  12.777  12.019  0.00  0.00     0.170 HD
HETATM   17  O   UNK N   1      36.607  13.765  12.246  0.00  0.00    -0.266 OA
BRANCH  15  18
HETATM   18  C   UNK N   1      34.707  12.313  13.749  0.00  0.00     0.107 A 
HETATM   19  N   UNK N   1      35.363  13.016  14.712  0.00  0.00    -0.352 N 
HETATM   20  C   UNK N   1      35.533  12.529  15.971  0.00  0.00     0.089 A 
ATOM     21  HN  UNK N   1      35.740  13.936  14.483  1.00  0.00     0.166 HD
HETATM   22  C   UNK N   1      35.029  11.272  16.310  0.00  0.00     0.017 A 
HETATM   23  C   UNK N   1      34.352  10.528  15.345  0.00  0.00     0.005 A 
HETATM   24  C   UNK N   1      34.188  11.045  14.060  0.00  0.00     0.048 A 
ENDBRANCH  15  18
ENDBRANCH   9  14
BRANCH  10  25
HETATM   25  O   UNK N   1      34.889  16.284  11.313  0.00  0.00    -0.357 OA
HETATM   26  H   UNK N   1      34.955  17.214  11.216  0.00  0.00     0.217 HD
ENDBRANCH  10  25
TORSDOF 3
ENDMDL
MODEL 3
REMARK VINA RESULT:      -6.9     12.261     15.415
REMARK  3 active torsions:
REMARK  status: ('A' for Active; 'I' for Inactive)
REMARK    1  A    between atoms: C_9  and  C_11 
REMARK    2  A    between atoms: C_10  and  O_21 
REMARK       I    between atoms: C_11  and  N_12 
REMARK    3  A    between atoms: N_12  and  C_13 
ROOT
HETATM    1  C   UNK N   1      33.970  16.365   7.380  0.00  0.00     0.023 A 
HETATM    2  C   UNK N   1      32.944  17.316   7.232  0.00  0.00     0.016 A 
HETATM    3  C   UNK N   1      32.303  17.498   6.003  0.00  0.00     0.001 A 
HETATM    4  C   UNK N   1      32.677  16.728   4.902  0.00  0.00     0.002 A 
HETATM    5  C   UNK N   1      33.701  15.788   5.028  0.00  0.00     0.026 A 
HETATM    6  C   UNK N   1      34.340  15.614   6.259  0.00  0.00     0.093 A 
HETATM    7  S   UNK N   1      35.664  14.489   6.411  0.00  0.00     0.266 S 
HETATM    8  N   UNK N   1      36.110  14.353   8.086  0.00  0.00    -0.268 N 
HETATM    9  C   UNK N   1      35.587  15.281   9.069  0.00  0.00     0.146 C 
HETATM   10  C   UNK N   1      34.610  16.212   8.733  0.00  0.00     0.110 C 
HETATM   11  C   UNK N   1      37.080  13.336   8.420  0.00  0.00     0.170 C 
HETATM   12  O   UNK N   1      35.426  13.055   5.910  0.00  0.00    -0.200 OA
HETATM   13  O   UNK N   1      36.948  14.953   5.710  0.00  0.00    -0.200 OA
ENDROOT
BRANCH   9  14
HETATM   14  C   UNK N   1      36.113  15.228  10.500  0.00  0.00     0.277 C 
HETATM   15  N   UNK N   1      35.797  14.188  11.321  0.00  0.00    -0.308 N 
HETATM   16  H   UNK N   1      35.216  13.490  10.941  0.00  0.00     0.170 HD
HETATM   17  O   UNK N   1      36.827  16.127  10.918  0.00  0.00    -0.266 OA
BRANCH  15  18
HETATM   18  C   UNK N   1      36.216  13.998  12.670  0.00  0.00     0.107 A 
HETATM   19  N   UNK N   1      36.392  15.092  13.462  0.00  0.00    -0.352 N 
HETATM   20  C   UNK N   1      36.784  14.986  14.761  0.00  0.00     0.089 A 
ATOM     21  HN  UNK N   1      36.226  16.018  13.069  1.00  0.00     0.166 HD
HETATM   22  C   UNK N   1      37.020  13.730  15.321  0.00  0.00     0.017 A 
HETATM   23  C   UNK N   1      36.848  12.591  14.536  0.00  0.00     0.005 A 
HETATM   24  C   UNK N   1      36.446  12.720  13.206  0.00  0.00     0.048 A 
ENDBRANCH  15  18
ENDBRANCH   9  14
BRANCH  10  25
HETATM   25  O   UNK N   1      34.159  17.061   9.681  0.00  0.00    -0.357 OA
HETATM   26  H   UNK N   1      34.658  17.821   9.906  0.00  0.00     0.217 HD
ENDBRANCH  10  25
TORSDOF 3
ENDMDL
MODEL 4
REMARK VINA RESULT:      -6.8      6.192      8.458
REMARK  3 active torsions:
REMARK  status: ('A' for Active; 'I' for Inactive)
REMARK    1  A    between atoms: C_9  and  C_11 
REMARK    2  A    between atoms: C_10  and  O_21 
REMARK       I    between atoms: C_11  and  N_12 
REMARK    3  A    between atoms: N_12  and  C_13 
ROOT
HETATM    1  C   UNK N   1      31.425  17.366   5.940  0.00  0.00     0.023 A 
HETATM    2  C   UNK N   1      32.473  17.283   5.005  0.00  0.00     0.016 A 
HETATM    3  C   UNK N   1      33.803  17.174   5.423  0.00  0.00     0.001 A 
HETATM    4  C   UNK N   1      34.104  17.140   6.784  0.00  0.00     0.002 A 
HETATM    5  C   UNK N   1      33.078  17.231   7.725  0.00  0.00     0.026 A 
HETATM    6  C   UNK N   1      31.751  17.345   7.300  0.00  0.00     0.093 A 
HETATM    7  S   UNK N   1      30.467  17.525   8.467  0.00  0.00     0.266 S 
HETATM    8  N   UNK N   1      28.935  17.441   7.650  0.00  0.00    -0.268 N 
HETATM    9  C   UNK N   1      28.864  17.493   6.203  0.00  0.00     0.146 C 
HETATM   10  C   UNK N   1      30.016  17.470   5.423  0.00  0.00     0.110 C 
HETATM   11  C   UNK N   1      27.756  17.402   8.482  0.00  0.00     0.170 C 
HETATM   12  O   UNK N   1      30.406  16.495   9.606  0.00  0.00    -0.200 OA
HETATM   13  O   UNK N   1      30.455  18.895   9.160  0.00  0.00    -0.200 OA
ENDROOT
BRANCH   9  14
HETATM   14  C   UNK N   1      27.500  17.568   5.524  0.00  0.00     0.277 C 
HETATM   15  N   UNK N   1      26.840  18.755   5.416  0.00  0.00    -0.308 N 
HETATM   16  H   UNK N   1      27.288  19.543   5.800  0.00  0.00     0.170 HD
HETATM   17  O   UNK N   1      26.991  16.554   5.070  0.00  0.00    -0.266 OA
BRANCH  15  18
HETATM   18  C   UNK N   1      25.571  18.982   4.807  0.00  0.00     0.107 A 
HETATM   19  N   UNK N   1      24.503  18.246   5.222  0.00  0.00    -0.352 N 
HETATM   20  C   UNK N   1      23.262  18.412   4.691  0.00  0.00     0.089 A 
ATOM     21  HN  UNK N   1      24.639  17.548   5.954  1.00  0.00     0.166 HD
HETATM   22  C   UNK N   1      23.051  19.360   3.688  0.00  0.00     0.017 A 
HETATM   23  C   UNK N   1      24.124  20.129   3.242  0.00  0.00     0.005 A 
HETATM   24  C   UNK N   1      25.389  19.943   3.799  0.00  0.00     0.048 A 
ENDBRANCH  15  18
ENDBRANCH   9  14
BRANCH  10  25
HETATM   25  O   UNK N   1      29.900  17.529   4.079  0.00  0.00    -0.357 OA
HETATM   26  H   UNK N   1      29.056  17.632   3.686  0.00  0.00     0.217 HD
ENDBRANCH  10  25
TORSDOF 3
ENDMDL
MODEL 5
REMARK VINA RESULT:      -6.7      8.291     11.808
REMARK  3 active torsions:
REMARK  status: ('A' for Active; 'I' for Inactive)
REMARK    1  A    between atoms: C_9  and  C_11 
REMARK    2  A    between atoms: C_10  and  O_21 
REMARK       I    between atoms: C_11  and  N_12 
REMARK    3  A    between atoms: N_12  and  C_13 
ROOT
HETATM    1  C   UNK N   1      29.726  16.950   5.257  0.00  0.00     0.023 A 
HETATM    2  C   UNK N   1      29.801  16.465   3.939  0.00  0.00     0.016 A 
HETATM    3  C   UNK N   1      28.684  16.491   3.098  0.00  0.00     0.001 A 
HETATM    4  C   UNK N   1      27.475  17.009   3.563  0.00  0.00     0.002 A 
HETATM    5  C   UNK N   1      27.381  17.484   4.871  0.00  0.00     0.026 A 
HETATM    6  C   UNK N   1      28.501  17.451   5.707  0.00  0.00     0.093 A 
HETATM    7  S   UNK N   1      28.377  17.982   7.364  0.00  0.00     0.266 S 
HETATM    8  N   UNK N   1      29.962  18.008   8.078  0.00  0.00    -0.268 N 
HETATM    9  C   UNK N   1      31.088  17.398   7.399  0.00  0.00     0.146 C 
HETATM   10  C   UNK N   1      30.969  16.903   6.105  0.00  0.00     0.110 C 
HETATM   11  C   UNK N   1      30.072  18.584   9.397  0.00  0.00     0.170 C 
HETATM   12  O   UNK N   1      27.770  19.373   7.611  0.00  0.00    -0.200 OA
HETATM   13  O   UNK N   1      27.572  17.027   8.257  0.00  0.00    -0.200 OA
ENDROOT
BRANCH   9  14
HETATM   14  C   UNK N   1      32.431  17.305   8.116  0.00  0.00     0.277 C 
HETATM   15  N   UNK N   1      32.852  16.128   8.658  0.00  0.00    -0.308 N 
HETATM   16  H   UNK N   1      32.245  15.359   8.562  0.00  0.00     0.170 HD
HETATM   17  O   UNK N   1      33.141  18.295   8.208  0.00  0.00    -0.266 OA
BRANCH  15  18
HETATM   18  C   UNK N   1      34.077  15.886   9.347  0.00  0.00     0.107 A 
HETATM   19  N   UNK N   1      34.501  16.794  10.268  0.00  0.00    -0.352 N 
HETATM   20  C   UNK N   1      35.655  16.627  10.968  0.00  0.00     0.089 A 
ATOM     21  HN  UNK N   1      33.936  17.627  10.438  1.00  0.00     0.166 HD
HETATM   22  C   UNK N   1      36.446  15.497  10.754  0.00  0.00     0.017 A 
HETATM   23  C   UNK N   1      36.039  14.548   9.817  0.00  0.00     0.005 A 
HETATM   24  C   UNK N   1      34.852  14.738   9.109  0.00  0.00     0.048 A 
ENDBRANCH  15  18
ENDBRANCH   9  14
BRANCH  10  25
HETATM   25  O   UNK N   1      32.044  16.337   5.516  0.00  0.00    -0.357 OA
HETATM   26  H   UNK N   1      32.596  16.848   4.957  0.00  0.00     0.217 HD
ENDBRANCH  10  25
TORSDOF 3
ENDMDL
MODEL 6
REMARK VINA RESULT:      -6.7     12.353     14.915
REMARK  3 active torsions:
REMARK  status: ('A' for Active; 'I' for Inactive)
REMARK    1  A    between atoms: C_9  and  C_11 
REMARK    2  A    between atoms: C_10  and  O_21 
REMARK       I    between atoms: C_11  and  N_12 
REMARK    3  A    between atoms: N_12  and  C_13 
ROOT
HETATM    1  C   UNK N   1      33.991  15.378   6.497  0.00  0.00     0.023 A 
HETATM    2  C   UNK N   1      33.706  14.687   5.306  0.00  0.00     0.016 A 
HETATM    3  C   UNK N   1      33.286  15.370   4.160  0.00  0.00     0.001 A 
HETATM    4  C   UNK N   1      33.150  16.758   4.188  0.00  0.00     0.002 A 
HETATM    5  C   UNK N   1      33.418  17.458   5.365  0.00  0.00     0.026 A 
HETATM    6  C   UNK N   1      33.833  16.768   6.508  0.00  0.00     0.093 A 
HETATM    7  S   UNK N   1      34.107  17.625   8.001  0.00  0.00     0.266 S 
HETATM    8  N   UNK N   1      34.799  16.537   9.168  0.00  0.00    -0.268 N 
HETATM    9  C   UNK N   1      34.833  15.110   8.918  0.00  0.00     0.146 C 
HETATM   10  C   UNK N   1      34.448  14.582   7.690  0.00  0.00     0.110 C 
HETATM   11  C   UNK N   1      35.249  17.117  10.411  0.00  0.00     0.170 C 
HETATM   12  O   UNK N   1      35.039  18.847   7.947  0.00  0.00    -0.200 OA
HETATM   13  O   UNK N   1      32.819  18.129   8.666  0.00  0.00    -0.200 OA
ENDROOT
BRANCH   9  14
HETATM   14  C   UNK N   1      35.307  14.170  10.022  0.00  0.00     0.277 C 
HETATM   15  N   UNK N   1      34.627  14.077  11.199  0.00  0.00    -0.308 N 
HETATM   16  H   UNK N   1      33.829  14.646  11.290  0.00  0.00     0.170 HD
HETATM   17  O   UNK N   1      36.309  13.490   9.853  0.00  0.00    -0.266 OA
BRANCH  15  18
HETATM   18  C   UNK N   1      34.942  13.245  12.313  0.00  0.00     0.107 A 
HETATM   19  N   UNK N   1      34.581  11.932  12.273  0.00  0.00    -0.352 N 
HETATM   20  C   UNK N   1      34.854  11.078  13.296  0.00  0.00     0.089 A 
ATOM     21  HN  UNK N   1      34.091  11.579  11.451  1.00  0.00     0.166 HD
HETATM   22  C   UNK N   1      35.523  11.538  14.432  0.00  0.00     0.017 A 
HETATM   23  C   UNK N   1      35.905  12.876  14.503  0.00  0.00     0.005 A 
HETATM   24  C   UNK N   1      35.616  13.736  13.443  0.00  0.00     0.048 A 
ENDBRANCH  15  18
ENDBRANCH   9  14
BRANCH  10  25
HETATM   25  O   UNK N   1      34.491  13.246   7.507  0.00  0.00    -0.357 OA
HETATM   26  H   UNK N   1      35.116  12.728   7.976  0.00  0.00     0.217 HD
ENDBRANCH  10  25
TORSDOF 3
ENDMDL
MODEL 7
REMARK VINA RESULT:      -6.6      8.776     12.245
REMARK  3 active torsions:
REMARK  status: ('A' for Active; 'I' for Inactive)
REMARK    1  A    between atoms: C_9  and  C_11 
REMARK    2  A    between atoms: C_10  and  O_21 
REMARK       I    between atoms: C_11  and  N_12 
REMARK    3  A    between atoms: N_12  and  C_13 
ROOT
HETATM    1  C   UNK N   1      29.754  17.603   7.360  0.00  0.00     0.023 A 
HETATM    2  C   UNK N   1      28.919  18.472   8.086  0.00  0.00     0.016 A 
HETATM    3  C   UNK N   1      27.971  19.268   7.436  0.00  0.00     0.001 A 
HETATM    4  C   UNK N   1      27.841  19.204   6.049  0.00  0.00     0.002 A 
HETATM    5  C   UNK N   1      28.669  18.356   5.313  0.00  0.00     0.026 A 
HETATM    6  C   UNK N   1      29.617  17.566   5.969  0.00  0.00     0.093 A 
HETATM    7  S   UNK N   1      30.701  16.552   5.053  0.00  0.00     0.266 S 
HETATM    8  N   UNK N   1      31.615  15.555   6.146  0.00  0.00    -0.268 N 
HETATM    9  C   UNK N   1      31.596  15.813   7.573  0.00  0.00     0.146 C 
HETATM   10  C   UNK N   1      30.745  16.766   8.123  0.00  0.00     0.110 C 
HETATM   11  C   UNK N   1      32.443  14.531   5.555  0.00  0.00     0.170 C 
HETATM   12  O   UNK N   1      30.068  15.598   4.026  0.00  0.00    -0.200 OA
HETATM   13  O   UNK N   1      31.764  17.336   4.272  0.00  0.00    -0.200 OA
ENDROOT
BRANCH   9  14
HETATM   14  C   UNK N   1      32.523  15.018   8.487  0.00  0.00     0.277 C 
HETATM   15  N   UNK N   1      33.618  15.603   9.048  0.00  0.00    -0.308 N 
HETATM   16  H   UNK N   1      33.773  16.549   8.825  0.00  0.00     0.170 HD
HETATM   17  O   UNK N   1      32.283  13.843   8.723  0.00  0.00    -0.266 OA
BRANCH  15  18
HETATM   18  C   UNK N   1      34.567  14.995   9.922  0.00  0.00     0.107 A 
HETATM   19  N   UNK N   1      34.124  14.431  11.079  0.00  0.00    -0.352 N 
HETATM   20  C   UNK N   1      34.970  13.828  11.957  0.00  0.00     0.089 A 
ATOM     21  HN  UNK N   1      33.128  14.462  11.294  1.00  0.00     0.166 HD
HETATM   22  C   UNK N   1      36.338  13.774  11.686  0.00  0.00     0.017 A 
HETATM   23  C   UNK N   1      36.823  14.342  10.510  0.00  0.00     0.005 A 
HETATM   24  C   UNK N   1      35.939  14.956   9.621  0.00  0.00     0.048 A 
ENDBRANCH  15  18
ENDBRANCH   9  14
BRANCH  10  25
HETATM   25  O   UNK N   1      30.769  16.976   9.456  0.00  0.00    -0.357 OA
HETATM   26  H   UNK N   1      30.794  16.247  10.045  0.00  0.00     0.217 HD
ENDBRANCH  10  25
TORSDOF 3
ENDMDL
MODEL 8
REMARK VINA RESULT:      -6.6      2.813      7.576
REMARK  3 active torsions:
REMARK  status: ('A' for Active; 'I' for Inactive)
REMARK    1  A    between atoms: C_9  and  C_11 
REMARK    2  A    between atoms: C_10  and  O_21 
REMARK       I    between atoms: C_11  and  N_12 
REMARK    3  A    between atoms: N_12  and  C_13 
ROOT
HETATM    1  C   UNK N   1      24.269  18.294   4.308  0.00  0.00     0.023 A 
HETATM    2  C   UNK N   1      25.636  18.596   4.171  0.00  0.00     0.016 A 
HETATM    3  C   UNK N   1      26.055  19.736   3.478  0.00  0.00     0.001 A 
HETATM    4  C   UNK N   1      25.111  20.595   2.917  0.00  0.00     0.002 A 
HETATM    5  C   UNK N   1      23.752  20.305   3.035  0.00  0.00     0.026 A 
HETATM    6  C   UNK N   1      23.340  19.161   3.725  0.00  0.00     0.093 A 
HETATM    7  S   UNK N   1      21.647  18.755   3.822  0.00  0.00     0.266 S 
HETATM    8  N   UNK N   1      21.442  17.406   4.900  0.00  0.00    -0.268 N 
HETATM    9  C   UNK N   1      22.589  16.648   5.362  0.00  0.00     0.146 C 
HETATM   10  C   UNK N   1      23.887  17.057   5.076  0.00  0.00     0.110 C 
HETATM   11  C   UNK N   1      20.086  17.039   5.232  0.00  0.00     0.170 C 
HETATM   12  O   UNK N   1      20.690  19.852   4.317  0.00  0.00    -0.200 OA
HETATM   13  O   UNK N   1      21.054  18.273   2.491  0.00  0.00    -0.200 OA
ENDROOT
BRANCH   9  14
HETATM   14  C   UNK N   1      22.365  15.383   6.184  0.00  0.00     0.277 C 
HETATM   15  N   UNK N   1      22.250  15.444   7.540  0.00  0.00    -0.308 N 
HETATM   16  H   UNK N   1      22.323  16.337   7.947  0.00  0.00     0.170 HD
HETATM   17  O   UNK N   1      22.286  14.299   5.623  0.00  0.00    -0.266 OA
BRANCH  15  18
HETATM   18  C   UNK N   1      22.033  14.356   8.436  0.00  0.00     0.107 A 
HETATM   19  N   UNK N   1      22.893  13.300   8.404  0.00  0.00    -0.352 N 
HETATM   20  C   UNK N   1      22.752  12.231   9.233  0.00  0.00     0.089 A 
ATOM     21  HN  UNK N   1      23.665  13.311   7.738  1.00  0.00     0.166 HD
HETATM   22  C   UNK N   1      21.702  12.191  10.152  0.00  0.00     0.017 A 
HETATM   23  C   UNK N   1      20.805  13.256  10.208  0.00  0.00     0.005 A 
HETATM   24  C   UNK N   1      20.967  14.344   9.350  0.00  0.00     0.048 A 
ENDBRANCH  15  18
ENDBRANCH   9  14
BRANCH  10  25
HETATM   25  O   UNK N   1      24.922  16.314   5.522  0.00  0.00    -0.357 OA
HETATM   26  H   UNK N   1      25.015  16.142   6.438  0.00  0.00     0.217 HD
ENDBRANCH  10  25
TORSDOF 3
ENDMDL
MODEL 9
REMARK VINA RESULT:      -6.6      5.223      7.138
REMARK  3 active torsions:
REMARK  status: ('A' for Active; 'I' for Inactive)
REMARK    1  A    between atoms: C_9  and  C_11 
REMARK    2  A    between atoms: C_10  and  O_21 
REMARK       I    between atoms: C_11  and  N_12 
REMARK    3  A    between atoms: N_12  and  C_13 
ROOT
HETATM    1  C   UNK N   1      29.658  17.419   7.028  0.00  0.00     0.023 A 
HETATM    2  C   UNK N   1      30.061  17.923   8.278  0.00  0.00     0.016 A 
HETATM    3  C   UNK N   1      31.414  17.987   8.626  0.00  0.00     0.001 A 
HETATM    4  C   UNK N   1      32.385  17.551   7.725  0.00  0.00     0.002 A 
HETATM    5  C   UNK N   1      32.002  17.038   6.486  0.00  0.00     0.026 A 
HETATM    6  C   UNK N   1      30.648  16.974   6.146  0.00  0.00     0.093 A 
HETATM    7  S   UNK N   1      30.155  16.274   4.627  0.00  0.00     0.266 S 
HETATM    8  N   UNK N   1      28.446  16.518   4.411  0.00  0.00    -0.268 N 
HETATM    9  C   UNK N   1      27.622  16.987   5.507  0.00  0.00     0.146 C 
HETATM   10  C   UNK N   1      28.187  17.389   6.713  0.00  0.00     0.110 C 
HETATM   11  C   UNK N   1      27.895  16.152   3.128  0.00  0.00     0.170 C 
HETATM   12  O   UNK N   1      30.831  16.813   3.355  0.00  0.00    -0.200 OA
HETATM   13  O   UNK N   1      30.333  14.751   4.564  0.00  0.00    -0.200 OA
ENDROOT
BRANCH   9  14
HETATM   14  C   UNK N   1      26.109  17.048   5.330  0.00  0.00     0.277 C 
HETATM   15  N   UNK N   1      25.485  18.228   5.056  0.00  0.00    -0.308 N 
HETATM   16  H   UNK N   1      26.062  19.023   4.986  0.00  0.00     0.170 HD
HETATM   17  O   UNK N   1      25.443  16.028   5.433  0.00  0.00    -0.266 OA
BRANCH  15  18
HETATM   18  C   UNK N   1      24.089  18.439   4.859  0.00  0.00     0.107 A 
HETATM   19  N   UNK N   1      23.215  17.939   5.775  0.00  0.00    -0.352 N 
HETATM   20  C   UNK N   1      21.870  18.107   5.655  0.00  0.00     0.089 A 
ATOM     21  HN  UNK N   1      23.579  17.422   6.575  1.00  0.00     0.166 HD
HETATM   22  C   UNK N   1      21.347  18.809   4.568  0.00  0.00     0.017 A 
HETATM   23  C   UNK N   1      22.216  19.333   3.613  0.00  0.00     0.005 A 
HETATM   24  C   UNK N   1      23.592  19.150   3.754  0.00  0.00     0.048 A 
ENDBRANCH  15  18
ENDBRANCH   9  14
BRANCH  10  25
HETATM   25  O   UNK N   1      27.377  17.812   7.708  0.00  0.00    -0.357 OA
HETATM   26  H   UNK N   1      26.541  17.410   7.834  0.00  0.00     0.217 HD
ENDBRANCH  10  25
TORSDOF 3
ENDMDL
