MODEL 1
REMARK VINA RESULT:      -6.2      0.000      0.000
REMARK  17 active torsions:
REMARK  status: ('A' for Active; 'I' for Inactive)
REMARK    1  A    between atoms: C_3  and  O_18 
REMARK    2  A    between atoms: C_9  and  C_19 
REMARK    3  A    between atoms: C_15  and  O_40 
REMARK    4  A    between atoms: C_19  and  C_20 
REMARK    5  A    between atoms: C_20  and  C_21 
REMARK    6  A    between atoms: C_21  and  C_22 
REMARK    7  A    between atoms: C_22  and  C_23 
REMARK    8  A    between atoms: C_23  and  C_24 
REMARK    9  A    between atoms: C_24  and  C_25 
REMARK   10  A    between atoms: C_25  and  C_26 
REMARK   11  A    between atoms: C_26  and  C_27 
REMARK   12  A    between atoms: C_27  and  S_28 
REMARK   13  A    between atoms: S_28  and  C_30 
REMARK   14  A    between atoms: C_30  and  C_31 
REMARK   15  A    between atoms: C_31  and  C_32 
REMARK   16  A    between atoms: C_32  and  C_33 
REMARK   17  A    between atoms: C_33  and  C_34 
ROOT
HETATM    1  C   UNK N   1      25.550  23.189  -6.220  0.00  0.00     0.011 A 
HETATM    2  C   UNK N   1      25.347  22.122  -7.098  0.00  0.00     0.037 A 
HETATM    3  C   UNK N   1      25.386  22.334  -8.476  0.00  0.00     0.066 A 
HETATM    4  C   UNK N   1      25.608  23.618  -8.979  0.00  0.00     0.044 A 
HETATM    5  C   UNK N   1      25.815  24.693  -8.107  0.00  0.00    -0.048 A 
HETATM    6  C   UNK N   1      25.801  24.481  -6.712  0.00  0.00    -0.047 A 
HETATM    7  C   UNK N   1      26.049  25.606  -5.727  0.00  0.00     0.024 C 
HETATM    8  C   UNK N   1      25.986  26.064  -8.682  0.00  0.00     0.044 C 
HETATM    9  C   UNK N   1      26.913  26.924  -7.845  0.00  0.00    -0.005 C 
HETATM   10  C   UNK N   1      26.413  26.984  -6.383  0.00  0.00     0.003 C 
HETATM   11  C   UNK N   1      27.244  26.238  -3.535  0.00  0.00     0.013 C 
HETATM   12  C   UNK N   1      27.102  25.197  -4.676  0.00  0.00     0.010 C 
HETATM   13  C   UNK N   1      27.332  27.828  -5.467  0.00  0.00     0.001 C 
HETATM   14  C   UNK N   1      26.971  27.680  -4.001  0.00  0.00    -0.014 C 
HETATM   15  C   UNK N   1      27.914  28.711  -3.400  0.00  0.00     0.126 C 
HETATM   16  C   UNK N   1      27.354  29.331  -5.698  0.00  0.00     0.008 C 
HETATM   17  C   UNK N   1      27.822  29.908  -4.350  0.00  0.00     0.033 C 
HETATM   18  C   UNK N   1      25.506  28.057  -3.731  0.00  0.00     0.018 C 
ENDROOT
BRANCH   9  19
HETATM   19  C   UNK N   1      28.367  26.499  -8.047  0.00  0.00     0.005 C 
BRANCH  19  20
HETATM   20  C   UNK N   1      29.085  27.505  -8.936  0.00  0.00     0.000 C 
BRANCH  20  21
HETATM   21  C   UNK N   1      30.496  27.768  -8.426  0.00  0.00     0.000 C 
BRANCH  21  22
HETATM   22  C   UNK N   1      30.549  29.053  -7.614  0.00  0.00     0.000 C 
BRANCH  22  23
HETATM   23  C   UNK N   1      30.910  28.790  -6.158  0.00  0.00     0.000 C 
BRANCH  23  24
HETATM   24  C   UNK N   1      31.443  27.379  -5.962  0.00  0.00     0.000 C 
BRANCH  24  25
HETATM   25  C   UNK N   1      30.831  26.706  -4.741  0.00  0.00     0.001 C 
BRANCH  25  26
HETATM   26  C   UNK N   1      31.372  25.299  -4.534  0.00  0.00     0.012 C 
BRANCH  26  27
HETATM   27  C   UNK N   1      30.581  24.527  -3.476  0.00  0.00     0.108 C 
BRANCH  27  28
HETATM   28  S   UNK N   1      31.271  22.890  -3.000  0.00  0.00     0.014 S 
HETATM   29  O   UNK N   1      30.579  22.862  -1.627  0.00  0.00    -0.258 OA
BRANCH  28  30
HETATM   30  C   UNK N   1      29.963  21.941  -3.842  0.00  0.00     0.109 C 
BRANCH  30  31
HETATM   31  C   UNK N   1      30.534  21.141  -4.994  0.00  0.00     0.019 C 
BRANCH  31  32
HETATM   32  C   UNK N   1      30.702  22.041  -6.210  0.00  0.00     0.090 C 
BRANCH  32  33
HETATM   33  C   UNK N   1      29.370  22.385  -6.877  0.00  0.00     0.339 C 
HETATM   34  F   UNK N   1      28.381  21.539  -6.403  0.00  0.00    -0.196 F 
HETATM   35  F   UNK N   1      29.042  23.681  -6.521  0.00  0.00    -0.196 F 
BRANCH  33  36
HETATM   36  C   UNK N   1      29.440  22.298  -8.407  0.00  0.00     0.454 C 
HETATM   37  F   UNK N   1      28.553  21.334  -8.851  0.00  0.00    -0.165 F 
HETATM   38  F   UNK N   1      30.713  21.949  -8.823  0.00  0.00    -0.165 F 
HETATM   39  F   UNK N   1      29.097  23.515  -8.967  0.00  0.00    -0.165 F 
ENDBRANCH  33  36
ENDBRANCH  32  33
ENDBRANCH  31  32
ENDBRANCH  30  31
ENDBRANCH  28  30
ENDBRANCH  27  28
ENDBRANCH  26  27
ENDBRANCH  25  26
ENDBRANCH  24  25
ENDBRANCH  23  24
ENDBRANCH  22  23
ENDBRANCH  21  22
ENDBRANCH  20  21
ENDBRANCH  19  20
ENDBRANCH   9  19
BRANCH   3  40
HETATM   40  O   UNK N   1      25.202  21.305  -9.318  0.00  0.00    -0.361 OA
HETATM   41  H   UNK N   1      24.347  21.101  -9.640  0.00  0.00     0.217 HD
ENDBRANCH   3  40
BRANCH  15  42
HETATM   42  O   UNK N   1      27.588  29.052  -2.086  0.00  0.00    -0.395 OA
HETATM   43  H   UNK N   1      27.983  28.573  -1.342  0.00  0.00     0.210 HD
ENDBRANCH  15  42
TORSDOF 17
ENDMDL
MODEL 2
REMARK VINA RESULT:      -6.2      1.735      5.225
REMARK  17 active torsions:
REMARK  status: ('A' for Active; 'I' for Inactive)
REMARK    1  A    between atoms: C_3  and  O_18 
REMARK    2  A    between atoms: C_9  and  C_19 
REMARK    3  A    between atoms: C_15  and  O_40 
REMARK    4  A    between atoms: C_19  and  C_20 
REMARK    5  A    between atoms: C_20  and  C_21 
REMARK    6  A    between atoms: C_21  and  C_22 
REMARK    7  A    between atoms: C_22  and  C_23 
REMARK    8  A    between atoms: C_23  and  C_24 
REMARK    9  A    between atoms: C_24  and  C_25 
REMARK   10  A    between atoms: C_25  and  C_26 
REMARK   11  A    between atoms: C_26  and  C_27 
REMARK   12  A    between atoms: C_27  and  S_28 
REMARK   13  A    between atoms: S_28  and  C_30 
REMARK   14  A    between atoms: C_30  and  C_31 
REMARK   15  A    between atoms: C_31  and  C_32 
REMARK   16  A    between atoms: C_32  and  C_33 
REMARK   17  A    between atoms: C_33  and  C_34 
ROOT
HETATM    1  C   UNK N   1      27.963  29.039  -5.940  0.00  0.00     0.011 A 
HETATM    2  C   UNK N   1      27.802  29.691  -4.715  0.00  0.00     0.037 A 
HETATM    3  C   UNK N   1      26.752  29.336  -3.869  0.00  0.00     0.066 A 
HETATM    4  C   UNK N   1      25.848  28.343  -4.254  0.00  0.00     0.044 A 
HETATM    5  C   UNK N   1      26.003  27.684  -5.478  0.00  0.00    -0.048 A 
HETATM    6  C   UNK N   1      27.078  28.020  -6.329  0.00  0.00    -0.047 A 
HETATM    7  C   UNK N   1      27.305  27.315  -7.651  0.00  0.00     0.024 C 
HETATM    8  C   UNK N   1      24.979  26.671  -5.885  0.00  0.00     0.044 C 
HETATM    9  C   UNK N   1      25.578  25.552  -6.715  0.00  0.00    -0.005 C 
HETATM   10  C   UNK N   1      26.318  26.132  -7.942  0.00  0.00     0.003 C 
HETATM   11  C   UNK N   1      29.100  26.309  -9.199  0.00  0.00     0.013 C 
HETATM   12  C   UNK N   1      28.773  26.858  -7.786  0.00  0.00     0.010 C 
HETATM   13  C   UNK N   1      26.977  25.039  -8.819  0.00  0.00     0.001 C 
HETATM   14  C   UNK N   1      27.895  25.627  -9.873  0.00  0.00    -0.014 C 
HETATM   15  C   UNK N   1      28.250  24.362 -10.638  0.00  0.00     0.126 C 
HETATM   16  C   UNK N   1      26.050  24.121  -9.599  0.00  0.00     0.008 C 
HETATM   17  C   UNK N   1      26.924  23.607 -10.758  0.00  0.00     0.033 C 
HETATM   18  C   UNK N   1      27.160  26.627 -10.780  0.00  0.00     0.018 C 
ENDROOT
BRANCH   9  19
HETATM   19  C   UNK N   1      26.381  24.600  -5.828  0.00  0.00     0.005 C 
BRANCH  19  20
HETATM   20  C   UNK N   1      25.856  24.651  -4.399  0.00  0.00     0.000 C 
BRANCH  20  21
HETATM   21  C   UNK N   1      26.987  24.929  -3.417  0.00  0.00     0.000 C 
BRANCH  21  22
HETATM   22  C   UNK N   1      28.342  24.765  -4.089  0.00  0.00     0.000 C 
BRANCH  22  23
HETATM   23  C   UNK N   1      29.185  26.029  -3.982  0.00  0.00     0.000 C 
BRANCH  23  24
HETATM   24  C   UNK N   1      30.646  25.703  -3.709  0.00  0.00     0.000 C 
BRANCH  24  25
HETATM   25  C   UNK N   1      31.440  25.538  -4.997  0.00  0.00     0.001 C 
BRANCH  25  26
HETATM   26  C   UNK N   1      32.071  24.157  -5.106  0.00  0.00     0.012 C 
BRANCH  26  27
HETATM   27  C   UNK N   1      31.534  23.193  -4.046  0.00  0.00     0.108 C 
BRANCH  27  28
HETATM   28  S   UNK N   1      32.631  21.777  -3.628  0.00  0.00     0.014 S 
HETATM   29  O   UNK N   1      32.091  21.625  -2.195  0.00  0.00    -0.258 OA
BRANCH  28  30
HETATM   30  C   UNK N   1      31.513  20.525  -4.338  0.00  0.00     0.109 C 
BRANCH  30  31
HETATM   31  C   UNK N   1      31.760  20.364  -5.824  0.00  0.00     0.019 C 
BRANCH  31  32
HETATM   32  C   UNK N   1      30.431  20.209  -6.550  0.00  0.00     0.090 C 
BRANCH  32  33
HETATM   33  C   UNK N   1      30.129  21.383  -7.482  0.00  0.00     0.339 C 
HETATM   34  F   UNK N   1      31.288  22.108  -7.706  0.00  0.00    -0.196 F 
HETATM   35  F   UNK N   1      29.699  20.864  -8.689  0.00  0.00    -0.196 F 
BRANCH  33  36
HETATM   36  C   UNK N   1      29.037  22.306  -6.926  0.00  0.00     0.454 C 
HETATM   37  F   UNK N   1      29.423  23.624  -7.095  0.00  0.00    -0.165 F 
HETATM   38  F   UNK N   1      28.836  22.077  -5.577  0.00  0.00    -0.165 F 
HETATM   39  F   UNK N   1      27.850  22.097  -7.605  0.00  0.00    -0.165 F 
ENDBRANCH  33  36
ENDBRANCH  32  33
ENDBRANCH  31  32
ENDBRANCH  30  31
ENDBRANCH  28  30
ENDBRANCH  27  28
ENDBRANCH  26  27
ENDBRANCH  25  26
ENDBRANCH  24  25
ENDBRANCH  23  24
ENDBRANCH  22  23
ENDBRANCH  21  22
ENDBRANCH  20  21
ENDBRANCH  19  20
ENDBRANCH   9  19
BRANCH   3  40
HETATM   40  O   UNK N   1      26.605  29.956  -2.686  0.00  0.00    -0.361 OA
HETATM   41  H   UNK N   1      26.696  30.885  -2.622  0.00  0.00     0.217 HD
ENDBRANCH   3  40
BRANCH  15  42
HETATM   42  O   UNK N   1      28.827  24.619 -11.884  0.00  0.00    -0.395 OA
HETATM   43  H   UNK N   1      29.769  24.839 -11.953  0.00  0.00     0.210 HD
ENDBRANCH  15  42
TORSDOF 17
ENDMDL
MODEL 3
REMARK VINA RESULT:      -5.8     12.470     16.987
REMARK  17 active torsions:
REMARK  status: ('A' for Active; 'I' for Inactive)
REMARK    1  A    between atoms: C_3  and  O_18 
REMARK    2  A    between atoms: C_9  and  C_19 
REMARK    3  A    between atoms: C_15  and  O_40 
REMARK    4  A    between atoms: C_19  and  C_20 
REMARK    5  A    between atoms: C_20  and  C_21 
REMARK    6  A    between atoms: C_21  and  C_22 
REMARK    7  A    between atoms: C_22  and  C_23 
REMARK    8  A    between atoms: C_23  and  C_24 
REMARK    9  A    between atoms: C_24  and  C_25 
REMARK   10  A    between atoms: C_25  and  C_26 
REMARK   11  A    between atoms: C_26  and  C_27 
REMARK   12  A    between atoms: C_27  and  S_28 
REMARK   13  A    between atoms: S_28  and  C_30 
REMARK   14  A    between atoms: C_30  and  C_31 
REMARK   15  A    between atoms: C_31  and  C_32 
REMARK   16  A    between atoms: C_32  and  C_33 
REMARK   17  A    between atoms: C_33  and  C_34 
ROOT
HETATM    1  C   UNK N   1      35.215  14.440   8.739  0.00  0.00     0.011 A 
HETATM    2  C   UNK N   1      35.852  14.516   9.979  0.00  0.00     0.037 A 
HETATM    3  C   UNK N   1      35.877  15.723  10.678  0.00  0.00     0.066 A 
HETATM    4  C   UNK N   1      35.283  16.861  10.128  0.00  0.00     0.044 A 
HETATM    5  C   UNK N   1      34.641  16.794   8.887  0.00  0.00    -0.048 A 
HETATM    6  C   UNK N   1      34.590  15.570   8.185  0.00  0.00    -0.047 A 
HETATM    7  C   UNK N   1      33.882  15.439   6.852  0.00  0.00     0.024 C 
HETATM    8  C   UNK N   1      34.072  18.047   8.301  0.00  0.00     0.044 C 
HETATM    9  C   UNK N   1      32.832  17.780   7.470  0.00  0.00    -0.005 C 
HETATM   10  C   UNK N   1      33.138  16.734   6.374  0.00  0.00     0.003 C 
HETATM   11  C   UNK N   1      32.336  13.931   5.448  0.00  0.00     0.013 C 
HETATM   12  C   UNK N   1      32.933  14.222   6.850  0.00  0.00     0.010 C 
HETATM   13  C   UNK N   1      31.902  16.396   5.504  0.00  0.00     0.001 C 
HETATM   14  C   UNK N   1      32.148  15.202   4.600  0.00  0.00    -0.014 C 
HETATM   15  C   UNK N   1      30.858  15.222   3.795  0.00  0.00     0.126 C 
HETATM   16  C   UNK N   1      31.396  17.479   4.565  0.00  0.00     0.008 C 
HETATM   17  C   UNK N   1      30.631  16.702   3.478  0.00  0.00     0.033 C 
HETATM   18  C   UNK N   1      33.366  15.416   3.687  0.00  0.00     0.018 C 
ENDROOT
BRANCH   9  19
HETATM   19  C   UNK N   1      31.635  17.485   8.373  0.00  0.00     0.005 C 
BRANCH  19  20
HETATM   20  C   UNK N   1      30.980  18.788   8.813  0.00  0.00     0.000 C 
BRANCH  20  21
HETATM   21  C   UNK N   1      29.776  18.515   9.704  0.00  0.00     0.000 C 
BRANCH  21  22
HETATM   22  C   UNK N   1      29.101  17.207   9.319  0.00  0.00     0.000 C 
BRANCH  22  23
HETATM   23  C   UNK N   1      27.731  17.438   8.697  0.00  0.00     0.000 C 
BRANCH  23  24
HETATM   24  C   UNK N   1      27.805  17.458   7.177  0.00  0.00     0.000 C 
BRANCH  24  25
HETATM   25  C   UNK N   1      28.592  16.274   6.633  0.00  0.00     0.001 C 
BRANCH  25  26
HETATM   26  C   UNK N   1      27.734  15.373   5.756  0.00  0.00     0.012 C 
BRANCH  26  27
HETATM   27  C   UNK N   1      26.239  15.586   5.999  0.00  0.00     0.108 C 
BRANCH  27  28
HETATM   28  S   UNK N   1      25.129  15.109   4.612  0.00  0.00     0.014 S 
HETATM   29  O   UNK N   1      23.914  15.878   5.160  0.00  0.00    -0.258 OA
BRANCH  28  30
HETATM   30  C   UNK N   1      25.681  16.465   3.526  0.00  0.00     0.109 C 
BRANCH  30  31
HETATM   31  C   UNK N   1      25.498  17.807   4.203  0.00  0.00     0.019 C 
BRANCH  31  32
HETATM   32  C   UNK N   1      26.561  18.779   3.709  0.00  0.00     0.090 C 
BRANCH  32  33
HETATM   33  C   UNK N   1      26.249  20.230   4.076  0.00  0.00     0.339 C 
HETATM   34  F   UNK N   1      26.631  21.063   3.038  0.00  0.00    -0.196 F 
HETATM   35  F   UNK N   1      24.880  20.339   4.241  0.00  0.00    -0.196 F 
BRANCH  33  36
HETATM   36  C   UNK N   1      26.938  20.667   5.375  0.00  0.00     0.454 C 
HETATM   37  F   UNK N   1      28.206  20.117   5.427  0.00  0.00    -0.165 F 
HETATM   38  F   UNK N   1      26.227  20.236   6.481  0.00  0.00    -0.165 F 
HETATM   39  F   UNK N   1      27.045  22.045   5.413  0.00  0.00    -0.165 F 
ENDBRANCH  33  36
ENDBRANCH  32  33
ENDBRANCH  31  32
ENDBRANCH  30  31
ENDBRANCH  28  30
ENDBRANCH  27  28
ENDBRANCH  26  27
ENDBRANCH  25  26
ENDBRANCH  24  25
ENDBRANCH  23  24
ENDBRANCH  22  23
ENDBRANCH  21  22
ENDBRANCH  20  21
ENDBRANCH  19  20
ENDBRANCH   9  19
BRANCH   3  40
HETATM   40  O   UNK N   1      36.480  15.791  11.876  0.00  0.00    -0.361 OA
HETATM   41  H   UNK N   1      37.404  15.661  11.952  0.00  0.00     0.217 HD
ENDBRANCH   3  40
BRANCH  15  42
HETATM   42  O   UNK N   1      30.921  14.437   2.641  0.00  0.00    -0.395 OA
HETATM   43  H   UNK N   1      31.777  14.148   2.289  0.00  0.00     0.210 HD
ENDBRANCH  15  42
TORSDOF 17
ENDMDL
MODEL 4
REMARK VINA RESULT:      -5.7      2.434      5.733
REMARK  17 active torsions:
REMARK  status: ('A' for Active; 'I' for Inactive)
REMARK    1  A    between atoms: C_3  and  O_18 
REMARK    2  A    between atoms: C_9  and  C_19 
REMARK    3  A    between atoms: C_15  and  O_40 
REMARK    4  A    between atoms: C_19  and  C_20 
REMARK    5  A    between atoms: C_20  and  C_21 
REMARK    6  A    between atoms: C_21  and  C_22 
REMARK    7  A    between atoms: C_22  and  C_23 
REMARK    8  A    between atoms: C_23  and  C_24 
REMARK    9  A    between atoms: C_24  and  C_25 
REMARK   10  A    between atoms: C_25  and  C_26 
REMARK   11  A    between atoms: C_26  and  C_27 
REMARK   12  A    between atoms: C_27  and  S_28 
REMARK   13  A    between atoms: S_28  and  C_30 
REMARK   14  A    between atoms: C_30  and  C_31 
REMARK   15  A    between atoms: C_31  and  C_32 
REMARK   16  A    between atoms: C_32  and  C_33 
REMARK   17  A    between atoms: C_33  and  C_34 
ROOT
HETATM    1  C   UNK N   1      32.908  22.583  -5.300  0.00  0.00     0.011 A 
HETATM    2  C   UNK N   1      32.967  21.193  -5.168  0.00  0.00     0.037 A 
HETATM    3  C   UNK N   1      32.160  20.547  -4.232  0.00  0.00     0.066 A 
HETATM    4  C   UNK N   1      31.308  21.290  -3.412  0.00  0.00     0.044 A 
HETATM    5  C   UNK N   1      31.241  22.681  -3.539  0.00  0.00    -0.048 A 
HETATM    6  C   UNK N   1      32.037  23.341  -4.501  0.00  0.00    -0.047 A 
HETATM    7  C   UNK N   1      31.978  24.842  -4.697  0.00  0.00     0.024 C 
HETATM    8  C   UNK N   1      30.365  23.449  -2.600  0.00  0.00     0.044 C 
HETATM    9  C   UNK N   1      29.778  24.689  -3.248  0.00  0.00    -0.005 C 
HETATM   10  C   UNK N   1      30.905  25.578  -3.821  0.00  0.00     0.003 C 
HETATM   11  C   UNK N   1      31.947  26.718  -6.461  0.00  0.00     0.013 C 
HETATM   12  C   UNK N   1      31.814  25.197  -6.190  0.00  0.00     0.010 C 
HETATM   13  C   UNK N   1      30.370  26.851  -4.522  0.00  0.00     0.001 C 
HETATM   14  C   UNK N   1      31.456  27.583  -5.286  0.00  0.00    -0.014 C 
HETATM   15  C   UNK N   1      30.680  28.819  -5.712  0.00  0.00     0.126 C 
HETATM   16  C   UNK N   1      29.746  27.920  -3.640  0.00  0.00     0.008 C 
HETATM   17  C   UNK N   1      29.876  29.210  -4.468  0.00  0.00     0.033 C 
HETATM   18  C   UNK N   1      32.637  27.965  -4.379  0.00  0.00     0.018 C 
ENDROOT
BRANCH   9  19
HETATM   19  C   UNK N   1      28.657  24.308  -4.214  0.00  0.00     0.005 C 
BRANCH  19  20
HETATM   20  C   UNK N   1      27.321  24.292  -3.483  0.00  0.00     0.000 C 
BRANCH  20  21
HETATM   21  C   UNK N   1      26.375  25.335  -4.063  0.00  0.00     0.000 C 
BRANCH  21  22
HETATM   22  C   UNK N   1      26.332  26.577  -3.186  0.00  0.00     0.000 C 
BRANCH  22  23
HETATM   23  C   UNK N   1      26.021  27.830  -3.993  0.00  0.00     0.000 C 
BRANCH  23  24
HETATM   24  C   UNK N   1      25.911  27.523  -5.479  0.00  0.00     0.000 C 
BRANCH  24  25
HETATM   25  C   UNK N   1      27.049  28.150  -6.273  0.00  0.00     0.001 C 
BRANCH  25  26
HETATM   26  C   UNK N   1      27.470  27.280  -7.449  0.00  0.00     0.012 C 
BRANCH  26  27
HETATM   27  C   UNK N   1      26.450  26.180  -7.747  0.00  0.00     0.108 C 
BRANCH  27  28
HETATM   28  S   UNK N   1      26.587  25.392  -9.404  0.00  0.00     0.014 S 
HETATM   29  O   UNK N   1      28.121  25.491  -9.457  0.00  0.00    -0.258 OA
BRANCH  28  30
HETATM   30  C   UNK N   1      26.573  23.692  -8.747  0.00  0.00     0.109 C 
BRANCH  30  31
HETATM   31  C   UNK N   1      27.965  23.265  -8.328  0.00  0.00     0.019 C 
BRANCH  31  32
HETATM   32  C   UNK N   1      27.874  22.057  -7.406  0.00  0.00     0.090 C 
BRANCH  32  33
HETATM   33  C   UNK N   1      29.246  21.547  -6.965  0.00  0.00     0.339 C 
HETATM   34  F   UNK N   1      30.213  22.489  -7.275  0.00  0.00    -0.196 F 
HETATM   35  F   UNK N   1      29.216  21.388  -5.592  0.00  0.00    -0.196 F 
BRANCH  33  36
HETATM   36  C   UNK N   1      29.606  20.202  -7.609  0.00  0.00     0.454 C 
HETATM   37  F   UNK N   1      28.469  19.420  -7.699  0.00  0.00    -0.165 F 
HETATM   38  F   UNK N   1      30.544  19.526  -6.849  0.00  0.00    -0.165 F 
HETATM   39  F   UNK N   1      30.111  20.405  -8.880  0.00  0.00    -0.165 F 
ENDBRANCH  33  36
ENDBRANCH  32  33
ENDBRANCH  31  32
ENDBRANCH  30  31
ENDBRANCH  28  30
ENDBRANCH  27  28
ENDBRANCH  26  27
ENDBRANCH  25  26
ENDBRANCH  24  25
ENDBRANCH  23  24
ENDBRANCH  22  23
ENDBRANCH  21  22
ENDBRANCH  20  21
ENDBRANCH  19  20
ENDBRANCH   9  19
BRANCH   3  40
HETATM   40  O   UNK N   1      32.209  19.210  -4.114  0.00  0.00    -0.361 OA
HETATM   41  H   UNK N   1      31.604  18.669  -4.582  0.00  0.00     0.217 HD
ENDBRANCH   3  40
BRANCH  15  42
HETATM   42  O   UNK N   1      31.502  29.856  -6.158  0.00  0.00    -0.395 OA
HETATM   43  H   UNK N   1      31.165  30.515  -6.784  0.00  0.00     0.210 HD
ENDBRANCH  15  42
TORSDOF 17
ENDMDL
MODEL 5
REMARK VINA RESULT:      -5.7     12.449     15.821
REMARK  17 active torsions:
REMARK  status: ('A' for Active; 'I' for Inactive)
REMARK    1  A    between atoms: C_3  and  O_18 
REMARK    2  A    between atoms: C_9  and  C_19 
REMARK    3  A    between atoms: C_15  and  O_40 
REMARK    4  A    between atoms: C_19  and  C_20 
REMARK    5  A    between atoms: C_20  and  C_21 
REMARK    6  A    between atoms: C_21  and  C_22 
REMARK    7  A    between atoms: C_22  and  C_23 
REMARK    8  A    between atoms: C_23  and  C_24 
REMARK    9  A    between atoms: C_24  and  C_25 
REMARK   10  A    between atoms: C_25  and  C_26 
REMARK   11  A    between atoms: C_26  and  C_27 
REMARK   12  A    between atoms: C_27  and  S_28 
REMARK   13  A    between atoms: S_28  and  C_30 
REMARK   14  A    between atoms: C_30  and  C_31 
REMARK   15  A    between atoms: C_31  and  C_32 
REMARK   16  A    between atoms: C_32  and  C_33 
REMARK   17  A    between atoms: C_33  and  C_34 
ROOT
HETATM    1  C   UNK N   1      28.922  15.102   2.676  0.00  0.00     0.011 A 
HETATM    2  C   UNK N   1      27.774  14.951   1.896  0.00  0.00     0.037 A 
HETATM    3  C   UNK N   1      26.539  15.381   2.381  0.00  0.00     0.066 A 
HETATM    4  C   UNK N   1      26.447  15.945   3.656  0.00  0.00     0.044 A 
HETATM    5  C   UNK N   1      27.592  16.102   4.443  0.00  0.00    -0.048 A 
HETATM    6  C   UNK N   1      28.849  15.691   3.949  0.00  0.00    -0.047 A 
HETATM    7  C   UNK N   1      30.123  15.867   4.752  0.00  0.00     0.024 C 
HETATM    8  C   UNK N   1      27.445  16.651   5.827  0.00  0.00     0.044 C 
HETATM    9  C   UNK N   1      28.653  17.464   6.253  0.00  0.00    -0.005 C 
HETATM   10  C   UNK N   1      29.941  16.621   6.114  0.00  0.00     0.003 C 
HETATM   11  C   UNK N   1      32.603  16.545   4.610  0.00  0.00     0.013 C 
HETATM   12  C   UNK N   1      31.227  16.525   3.897  0.00  0.00     0.010 C 
HETATM   13  C   UNK N   1      31.218  17.404   6.510  0.00  0.00     0.001 C 
HETATM   14  C   UNK N   1      32.485  16.656   6.141  0.00  0.00    -0.014 C 
HETATM   15  C   UNK N   1      33.517  17.575   6.775  0.00  0.00     0.126 C 
HETATM   16  C   UNK N   1      31.397  17.745   7.980  0.00  0.00     0.008 C 
HETATM   17  C   UNK N   1      32.916  17.942   8.134  0.00  0.00     0.033 C 
HETATM   18  C   UNK N   1      32.532  15.259   6.780  0.00  0.00     0.018 C 
ENDROOT
BRANCH   9  19
HETATM   19  C   UNK N   1      28.655  18.824   5.556  0.00  0.00     0.005 C 
BRANCH  19  20
HETATM   20  C   UNK N   1      27.376  19.582   5.888  0.00  0.00     0.000 C 
BRANCH  20  21
HETATM   21  C   UNK N   1      26.968  20.487   4.732  0.00  0.00     0.000 C 
BRANCH  21  22
HETATM   22  C   UNK N   1      26.395  19.673   3.581  0.00  0.00     0.000 C 
BRANCH  22  23
HETATM   23  C   UNK N   1      25.275  20.415   2.865  0.00  0.00     0.000 C 
BRANCH  23  24
HETATM   24  C   UNK N   1      23.907  19.976   3.365  0.00  0.00     0.000 C 
BRANCH  24  25
HETATM   25  C   UNK N   1      23.968  18.630   4.074  0.00  0.00     0.001 C 
BRANCH  25  26
HETATM   26  C   UNK N   1      22.626  17.911   4.049  0.00  0.00     0.012 C 
BRANCH  26  27
HETATM   27  C   UNK N   1      21.873  18.050   5.374  0.00  0.00     0.108 C 
BRANCH  27  28
HETATM   28  S   UNK N   1      21.786  16.529   6.405  0.00  0.00     0.014 S 
HETATM   29  O   UNK N   1      20.274  16.333   6.203  0.00  0.00    -0.258 OA
BRANCH  28  30
HETATM   30  C   UNK N   1      22.261  15.415   5.043  0.00  0.00     0.109 C 
BRANCH  30  31
HETATM   31  C   UNK N   1      23.514  14.640   5.393  0.00  0.00     0.019 C 
BRANCH  31  32
HETATM   32  C   UNK N   1      24.116  15.192   6.678  0.00  0.00     0.090 C 
BRANCH  32  33
HETATM   33  C   UNK N   1      25.121  14.233   7.318  0.00  0.00     0.339 C 
HETATM   34  F   UNK N   1      25.836  13.581   6.326  0.00  0.00    -0.196 F 
HETATM   35  F   UNK N   1      26.004  14.987   8.069  0.00  0.00    -0.196 F 
BRANCH  33  36
HETATM   36  C   UNK N   1      24.447  13.205   8.235  0.00  0.00     0.454 C 
HETATM   37  F   UNK N   1      25.180  13.083   9.402  0.00  0.00    -0.165 F 
HETATM   38  F   UNK N   1      24.384  11.964   7.625  0.00  0.00    -0.165 F 
HETATM   39  F   UNK N   1      23.167  13.621   8.552  0.00  0.00    -0.165 F 
ENDBRANCH  33  36
ENDBRANCH  32  33
ENDBRANCH  31  32
ENDBRANCH  30  31
ENDBRANCH  28  30
ENDBRANCH  27  28
ENDBRANCH  26  27
ENDBRANCH  25  26
ENDBRANCH  24  25
ENDBRANCH  23  24
ENDBRANCH  22  23
ENDBRANCH  21  22
ENDBRANCH  20  21
ENDBRANCH  19  20
ENDBRANCH   9  19
BRANCH   3  40
HETATM   40  O   UNK N   1      25.438  15.246   1.625  0.00  0.00    -0.361 OA
HETATM   41  H   UNK N   1      25.386  15.652   0.783  0.00  0.00     0.217 HD
ENDBRANCH   3  40
BRANCH  15  42
HETATM   42  O   UNK N   1      34.777  16.984   6.895  0.00  0.00    -0.395 OA
HETATM   43  H   UNK N   1      35.558  17.409   6.508  0.00  0.00     0.210 HD
ENDBRANCH  15  42
TORSDOF 17
ENDMDL
MODEL 6
REMARK VINA RESULT:      -5.7     13.350     16.508
REMARK  17 active torsions:
REMARK  status: ('A' for Active; 'I' for Inactive)
REMARK    1  A    between atoms: C_3  and  O_18 
REMARK    2  A    between atoms: C_9  and  C_19 
REMARK    3  A    between atoms: C_15  and  O_40 
REMARK    4  A    between atoms: C_19  and  C_20 
REMARK    5  A    between atoms: C_20  and  C_21 
REMARK    6  A    between atoms: C_21  and  C_22 
REMARK    7  A    between atoms: C_22  and  C_23 
REMARK    8  A    between atoms: C_23  and  C_24 
REMARK    9  A    between atoms: C_24  and  C_25 
REMARK   10  A    between atoms: C_25  and  C_26 
REMARK   11  A    between atoms: C_26  and  C_27 
REMARK   12  A    between atoms: C_27  and  S_28 
REMARK   13  A    between atoms: S_28  and  C_30 
REMARK   14  A    between atoms: C_30  and  C_31 
REMARK   15  A    between atoms: C_31  and  C_32 
REMARK   16  A    between atoms: C_32  and  C_33 
REMARK   17  A    between atoms: C_33  and  C_34 
ROOT
HETATM    1  C   UNK N   1      28.919  15.104   2.703  0.00  0.00     0.011 A 
HETATM    2  C   UNK N   1      27.773  14.941   1.920  0.00  0.00     0.037 A 
HETATM    3  C   UNK N   1      26.530  15.341   2.410  0.00  0.00     0.066 A 
HETATM    4  C   UNK N   1      26.427  15.887   3.692  0.00  0.00     0.044 A 
HETATM    5  C   UNK N   1      27.569  16.056   4.482  0.00  0.00    -0.048 A 
HETATM    6  C   UNK N   1      28.834  15.675   3.983  0.00  0.00    -0.047 A 
HETATM    7  C   UNK N   1      30.104  15.865   4.788  0.00  0.00     0.024 C 
HETATM    8  C   UNK N   1      27.411  16.584   5.873  0.00  0.00     0.044 C 
HETATM    9  C   UNK N   1      28.603  17.414   6.309  0.00  0.00    -0.005 C 
HETATM   10  C   UNK N   1      29.907  16.598   6.161  0.00  0.00     0.003 C 
HETATM   11  C   UNK N   1      32.571  16.592   4.657  0.00  0.00     0.013 C 
HETATM   12  C   UNK N   1      31.195  16.555   3.943  0.00  0.00     0.010 C 
HETATM   13  C   UNK N   1      31.168  17.400   6.566  0.00  0.00     0.001 C 
HETATM   14  C   UNK N   1      32.450  16.682   6.189  0.00  0.00    -0.014 C 
HETATM   15  C   UNK N   1      33.464  17.612   6.835  0.00  0.00     0.126 C 
HETATM   16  C   UNK N   1      31.341  17.725   8.041  0.00  0.00     0.008 C 
HETATM   17  C   UNK N   1      32.855  17.949   8.199  0.00  0.00     0.033 C 
HETATM   18  C   UNK N   1      32.523  15.278   6.810  0.00  0.00     0.018 C 
ENDROOT
BRANCH   9  19
HETATM   19  C   UNK N   1      28.579  18.783   5.630  0.00  0.00     0.005 C 
BRANCH  19  20
HETATM   20  C   UNK N   1      27.550  19.681   6.304  0.00  0.00     0.000 C 
BRANCH  20  21
HETATM   21  C   UNK N   1      26.843  20.558   5.278  0.00  0.00     0.000 C 
BRANCH  21  22
HETATM   22  C   UNK N   1      27.062  20.029   3.869  0.00  0.00     0.000 C 
BRANCH  22  23
HETATM   23  C   UNK N   1      25.767  19.526   3.244  0.00  0.00     0.000 C 
BRANCH  23  24
HETATM   24  C   UNK N   1      24.578  19.757   4.165  0.00  0.00     0.000 C 
BRANCH  24  25
HETATM   25  C   UNK N   1      23.767  18.486   4.373  0.00  0.00     0.001 C 
BRANCH  25  26
HETATM   26  C   UNK N   1      22.406  18.560   3.696  0.00  0.00     0.012 C 
BRANCH  26  27
HETATM   27  C   UNK N   1      21.264  18.225   4.658  0.00  0.00     0.108 C 
BRANCH  27  28
HETATM   28  S   UNK N   1      21.770  17.734   6.356  0.00  0.00     0.014 S 
HETATM   29  O   UNK N   1      20.937  18.824   7.051  0.00  0.00    -0.258 OA
BRANCH  28  30
HETATM   30  C   UNK N   1      20.488  16.448   6.513  0.00  0.00     0.109 C 
BRANCH  30  31
HETATM   31  C   UNK N   1      20.051  16.295   7.955  0.00  0.00     0.019 C 
BRANCH  31  32
HETATM   32  C   UNK N   1      21.091  15.491   8.723  0.00  0.00     0.090 C 
BRANCH  32  33
HETATM   33  C   UNK N   1      20.662  14.043   8.958  0.00  0.00     0.339 C 
HETATM   34  F   UNK N   1      19.592  14.013   9.837  0.00  0.00    -0.196 F 
HETATM   35  F   UNK N   1      20.245  13.524   7.745  0.00  0.00    -0.196 F 
BRANCH  33  36
HETATM   36  C   UNK N   1      21.804  13.173   9.498  0.00  0.00     0.454 C 
HETATM   37  F   UNK N   1      22.321  12.407   8.470  0.00  0.00    -0.165 F 
HETATM   38  F   UNK N   1      21.351  12.325  10.493  0.00  0.00    -0.165 F 
HETATM   39  F   UNK N   1      22.808  13.976  10.008  0.00  0.00    -0.165 F 
ENDBRANCH  33  36
ENDBRANCH  32  33
ENDBRANCH  31  32
ENDBRANCH  30  31
ENDBRANCH  28  30
ENDBRANCH  27  28
ENDBRANCH  26  27
ENDBRANCH  25  26
ENDBRANCH  24  25
ENDBRANCH  23  24
ENDBRANCH  22  23
ENDBRANCH  21  22
ENDBRANCH  20  21
ENDBRANCH  19  20
ENDBRANCH   9  19
BRANCH   3  40
HETATM   40  O   UNK N   1      25.432  15.195   1.652  0.00  0.00    -0.361 OA
HETATM   41  H   UNK N   1      24.704  14.692   1.960  0.00  0.00     0.217 HD
ENDBRANCH   3  40
BRANCH  15  42
HETATM   42  O   UNK N   1      34.735  17.044   6.948  0.00  0.00    -0.395 OA
HETATM   43  H   UNK N   1      35.291  17.234   7.719  0.00  0.00     0.210 HD
ENDBRANCH  15  42
TORSDOF 17
ENDMDL
MODEL 7
REMARK VINA RESULT:      -5.7      1.895      5.503
REMARK  17 active torsions:
REMARK  status: ('A' for Active; 'I' for Inactive)
REMARK    1  A    between atoms: C_3  and  O_18 
REMARK    2  A    between atoms: C_9  and  C_19 
REMARK    3  A    between atoms: C_15  and  O_40 
REMARK    4  A    between atoms: C_19  and  C_20 
REMARK    5  A    between atoms: C_20  and  C_21 
REMARK    6  A    between atoms: C_21  and  C_22 
REMARK    7  A    between atoms: C_22  and  C_23 
REMARK    8  A    between atoms: C_23  and  C_24 
REMARK    9  A    between atoms: C_24  and  C_25 
REMARK   10  A    between atoms: C_25  and  C_26 
REMARK   11  A    between atoms: C_26  and  C_27 
REMARK   12  A    between atoms: C_27  and  S_28 
REMARK   13  A    between atoms: S_28  and  C_30 
REMARK   14  A    between atoms: C_30  and  C_31 
REMARK   15  A    between atoms: C_31  and  C_32 
REMARK   16  A    between atoms: C_32  and  C_33 
REMARK   17  A    between atoms: C_33  and  C_34 
ROOT
HETATM    1  C   UNK N   1      27.897  28.327  -7.100  0.00  0.00     0.011 A 
HETATM    2  C   UNK N   1      27.967  29.290  -6.091  0.00  0.00     0.037 A 
HETATM    3  C   UNK N   1      27.137  29.193  -4.974  0.00  0.00     0.066 A 
HETATM    4  C   UNK N   1      26.220  28.144  -4.875  0.00  0.00     0.044 A 
HETATM    5  C   UNK N   1      26.144  27.174  -5.880  0.00  0.00    -0.048 A 
HETATM    6  C   UNK N   1      26.998  27.252  -7.001  0.00  0.00    -0.047 A 
HETATM    7  C   UNK N   1      26.974  26.210  -8.101  0.00  0.00     0.024 C 
HETATM    8  C   UNK N   1      25.106  26.102  -5.769  0.00  0.00     0.044 C 
HETATM    9  C   UNK N   1      25.569  24.791  -6.376  0.00  0.00    -0.005 C 
HETATM   10  C   UNK N   1      26.004  25.006  -7.844  0.00  0.00     0.003 C 
HETATM   11  C   UNK N   1      28.448  24.798  -9.671  0.00  0.00     0.013 C 
HETATM   12  C   UNK N   1      28.401  25.715  -8.422  0.00  0.00     0.010 C 
HETATM   13  C   UNK N   1      26.514  23.706  -8.515  0.00  0.00     0.001 C 
HETATM   14  C   UNK N   1      27.161  23.974  -9.861  0.00  0.00    -0.014 C 
HETATM   15  C   UNK N   1      27.405  22.544 -10.315  0.00  0.00     0.126 C 
HETATM   16  C   UNK N   1      25.488  22.622  -8.801  0.00  0.00     0.008 C 
HETATM   17  C   UNK N   1      26.121  21.801  -9.939  0.00  0.00     0.033 C 
HETATM   18  C   UNK N   1      26.205  24.698 -10.822  0.00  0.00     0.018 C 
ENDROOT
BRANCH   9  19
HETATM   19  C   UNK N   1      26.583  24.107  -5.461  0.00  0.00     0.005 C 
BRANCH  19  20
HETATM   20  C   UNK N   1      26.141  24.228  -4.009  0.00  0.00     0.000 C 
BRANCH  20  21
HETATM   21  C   UNK N   1      27.313  24.613  -3.116  0.00  0.00     0.000 C 
BRANCH  21  22
HETATM   22  C   UNK N   1      28.545  23.786  -3.451  0.00  0.00     0.000 C 
BRANCH  22  23
HETATM   23  C   UNK N   1      29.728  24.662  -3.842  0.00  0.00     0.000 C 
BRANCH  23  24
HETATM   24  C   UNK N   1      29.306  26.111  -4.039  0.00  0.00     0.000 C 
BRANCH  24  25
HETATM   25  C   UNK N   1      30.402  26.935  -4.702  0.00  0.00     0.001 C 
BRANCH  25  26
HETATM   26  C   UNK N   1      30.998  26.224  -5.908  0.00  0.00     0.012 C 
BRANCH  26  27
HETATM   27  C   UNK N   1      32.505  26.004  -5.761  0.00  0.00     0.108 C 
BRANCH  27  28
HETATM   28  S   UNK N   1      33.117  24.334  -6.231  0.00  0.00     0.014 S 
HETATM   29  O   UNK N   1      32.855  23.716  -4.848  0.00  0.00    -0.258 OA
BRANCH  28  30
HETATM   30  C   UNK N   1      31.522  23.799  -6.934  0.00  0.00     0.109 C 
BRANCH  30  31
HETATM   31  C   UNK N   1      31.586  22.351  -7.374  0.00  0.00     0.019 C 
BRANCH  31  32
HETATM   32  C   UNK N   1      30.272  21.958  -8.034  0.00  0.00     0.090 C 
BRANCH  32  33
HETATM   33  C   UNK N   1      29.419  21.046  -7.151  0.00  0.00     0.339 C 
HETATM   34  F   UNK N   1      30.179  20.585  -6.089  0.00  0.00    -0.196 F 
HETATM   35  F   UNK N   1      28.377  21.802  -6.646  0.00  0.00    -0.196 F 
BRANCH  33  36
HETATM   36  C   UNK N   1      28.834  19.859  -7.928  0.00  0.00     0.454 C 
HETATM   37  F   UNK N   1      29.342  18.681  -7.412  0.00  0.00    -0.165 F 
HETATM   38  F   UNK N   1      29.169  19.932  -9.268  0.00  0.00    -0.165 F 
HETATM   39  F   UNK N   1      27.457  19.845  -7.804  0.00  0.00    -0.165 F 
ENDBRANCH  33  36
ENDBRANCH  32  33
ENDBRANCH  31  32
ENDBRANCH  30  31
ENDBRANCH  28  30
ENDBRANCH  27  28
ENDBRANCH  26  27
ENDBRANCH  25  26
ENDBRANCH  24  25
ENDBRANCH  23  24
ENDBRANCH  22  23
ENDBRANCH  21  22
ENDBRANCH  20  21
ENDBRANCH  19  20
ENDBRANCH   9  19
BRANCH   3  40
HETATM   40  O   UNK N   1      27.214  30.113  -3.999  0.00  0.00    -0.361 OA
HETATM   41  H   UNK N   1      28.027  30.535  -3.807  0.00  0.00     0.217 HD
ENDBRANCH   3  40
BRANCH  15  42
HETATM   42  O   UNK N   1      27.694  22.444 -11.678  0.00  0.00    -0.395 OA
HETATM   43  H   UNK N   1      28.561  22.127 -11.974  0.00  0.00     0.210 HD
ENDBRANCH  15  42
TORSDOF 17
ENDMDL
MODEL 8
REMARK VINA RESULT:      -5.6     14.252     17.847
REMARK  17 active torsions:
REMARK  status: ('A' for Active; 'I' for Inactive)
REMARK    1  A    between atoms: C_3  and  O_18 
REMARK    2  A    between atoms: C_9  and  C_19 
REMARK    3  A    between atoms: C_15  and  O_40 
REMARK    4  A    between atoms: C_19  and  C_20 
REMARK    5  A    between atoms: C_20  and  C_21 
REMARK    6  A    between atoms: C_21  and  C_22 
REMARK    7  A    between atoms: C_22  and  C_23 
REMARK    8  A    between atoms: C_23  and  C_24 
REMARK    9  A    between atoms: C_24  and  C_25 
REMARK   10  A    between atoms: C_25  and  C_26 
REMARK   11  A    between atoms: C_26  and  C_27 
REMARK   12  A    between atoms: C_27  and  S_28 
REMARK   13  A    between atoms: S_28  and  C_30 
REMARK   14  A    between atoms: C_30  and  C_31 
REMARK   15  A    between atoms: C_31  and  C_32 
REMARK   16  A    between atoms: C_32  and  C_33 
REMARK   17  A    between atoms: C_33  and  C_34 
ROOT
HETATM    1  C   UNK N   1      27.439  19.886   6.354  0.00  0.00     0.011 A 
HETATM    2  C   UNK N   1      26.326  20.434   5.713  0.00  0.00     0.037 A 
HETATM    3  C   UNK N   1      25.900  19.916   4.490  0.00  0.00     0.066 A 
HETATM    4  C   UNK N   1      26.598  18.862   3.896  0.00  0.00     0.044 A 
HETATM    5  C   UNK N   1      27.712  18.305   4.532  0.00  0.00    -0.048 A 
HETATM    6  C   UNK N   1      28.135  18.808   5.782  0.00  0.00    -0.047 A 
HETATM    7  C   UNK N   1      29.318  18.219   6.524  0.00  0.00     0.024 C 
HETATM    8  C   UNK N   1      28.472  17.220   3.836  0.00  0.00     0.044 C 
HETATM    9  C   UNK N   1      29.076  16.227   4.810  0.00  0.00    -0.005 C 
HETATM   10  C   UNK N   1      29.961  16.962   5.844  0.00  0.00     0.003 C 
HETATM   11  C   UNK N   1      30.185  17.512   8.844  0.00  0.00     0.013 C 
HETATM   12  C   UNK N   1      28.955  17.928   7.996  0.00  0.00     0.010 C 
HETATM   13  C   UNK N   1      30.588  16.004   6.887  0.00  0.00     0.001 C 
HETATM   14  C   UNK N   1      31.248  16.755   8.028  0.00  0.00    -0.014 C 
HETATM   15  C   UNK N   1      31.880  15.587   8.769  0.00  0.00     0.126 C 
HETATM   16  C   UNK N   1      31.663  15.048   6.395  0.00  0.00     0.008 C 
HETATM   17  C   UNK N   1      32.466  14.706   7.663  0.00  0.00     0.033 C 
HETATM   18  C   UNK N   1      32.325  17.729   7.525  0.00  0.00     0.018 C 
ENDROOT
BRANCH   9  19
HETATM   19  C   UNK N   1      27.994  15.307   5.376  0.00  0.00     0.005 C 
BRANCH  19  20
HETATM   20  C   UNK N   1      28.094  13.930   4.735  0.00  0.00     0.000 C 
BRANCH  20  21
HETATM   21  C   UNK N   1      26.921  13.052   5.153  0.00  0.00     0.000 C 
BRANCH  21  22
HETATM   22  C   UNK N   1      26.009  13.790   6.121  0.00  0.00     0.000 C 
BRANCH  22  23
HETATM   23  C   UNK N   1      24.538  13.574   5.792  0.00  0.00     0.000 C 
BRANCH  23  24
HETATM   24  C   UNK N   1      23.654  14.599   6.487  0.00  0.00     0.000 C 
BRANCH  24  25
HETATM   25  C   UNK N   1      23.967  16.017   6.032  0.00  0.00     0.001 C 
BRANCH  25  26
HETATM   26  C   UNK N   1      22.704  16.804   5.709  0.00  0.00     0.012 C 
BRANCH  26  27
HETATM   27  C   UNK N   1      21.443  15.945   5.828  0.00  0.00     0.108 C 
BRANCH  27  28
HETATM   28  S   UNK N   1      20.101  16.640   6.875  0.00  0.00     0.014 S 
HETATM   29  O   UNK N   1      19.147  15.454   6.652  0.00  0.00    -0.258 OA
BRANCH  28  30
HETATM   30  C   UNK N   1      20.788  15.983   8.430  0.00  0.00     0.109 C 
BRANCH  30  31
HETATM   31  C   UNK N   1      20.573  14.487   8.526  0.00  0.00     0.019 C 
BRANCH  31  32
HETATM   32  C   UNK N   1      21.068  13.983   9.874  0.00  0.00     0.090 C 
BRANCH  32  33
HETATM   33  C   UNK N   1      22.260  13.034   9.747  0.00  0.00     0.339 C 
HETATM   34  F   UNK N   1      22.186  12.356   8.541  0.00  0.00    -0.196 F 
HETATM   35  F   UNK N   1      23.411  13.799   9.747  0.00  0.00    -0.196 F 
BRANCH  33  36
HETATM   36  C   UNK N   1      22.335  12.030  10.904  0.00  0.00     0.454 C 
HETATM   37  F   UNK N   1      23.254  12.476  11.837  0.00  0.00    -0.165 F 
HETATM   38  F   UNK N   1      22.736  10.785  10.454  0.00  0.00    -0.165 F 
HETATM   39  F   UNK N   1      21.098  11.917  11.513  0.00  0.00    -0.165 F 
ENDBRANCH  33  36
ENDBRANCH  32  33
ENDBRANCH  31  32
ENDBRANCH  30  31
ENDBRANCH  28  30
ENDBRANCH  27  28
ENDBRANCH  26  27
ENDBRANCH  25  26
ENDBRANCH  24  25
ENDBRANCH  23  24
ENDBRANCH  22  23
ENDBRANCH  21  22
ENDBRANCH  20  21
ENDBRANCH  19  20
ENDBRANCH   9  19
BRANCH   3  40
HETATM   40  O   UNK N   1      24.823  20.437   3.880  0.00  0.00    -0.361 OA
HETATM   41  H   UNK N   1      23.963  20.129   4.088  0.00  0.00     0.217 HD
ENDBRANCH   3  40
BRANCH  15  42
HETATM   42  O   UNK N   1      32.845  15.985   9.697  0.00  0.00    -0.395 OA
HETATM   43  H   UNK N   1      32.663  15.934  10.648  0.00  0.00     0.210 HD
ENDBRANCH  15  42
TORSDOF 17
ENDMDL
MODEL 9
REMARK VINA RESULT:      -5.5     13.877     16.935
REMARK  17 active torsions:
REMARK  status: ('A' for Active; 'I' for Inactive)
REMARK    1  A    between atoms: C_3  and  O_18 
REMARK    2  A    between atoms: C_9  and  C_19 
REMARK    3  A    between atoms: C_15  and  O_40 
REMARK    4  A    between atoms: C_19  and  C_20 
REMARK    5  A    between atoms: C_20  and  C_21 
REMARK    6  A    between atoms: C_21  and  C_22 
REMARK    7  A    between atoms: C_22  and  C_23 
REMARK    8  A    between atoms: C_23  and  C_24 
REMARK    9  A    between atoms: C_24  and  C_25 
REMARK   10  A    between atoms: C_25  and  C_26 
REMARK   11  A    between atoms: C_26  and  C_27 
REMARK   12  A    between atoms: C_27  and  S_28 
REMARK   13  A    between atoms: S_28  and  C_30 
REMARK   14  A    between atoms: C_30  and  C_31 
REMARK   15  A    between atoms: C_31  and  C_32 
REMARK   16  A    between atoms: C_32  and  C_33 
REMARK   17  A    between atoms: C_33  and  C_34 
ROOT
HETATM    1  C   UNK N   1      23.691  13.323   3.957  0.00  0.00     0.011 A 
HETATM    2  C   UNK N   1      23.366  13.783   2.679  0.00  0.00     0.037 A 
HETATM    3  C   UNK N   1      22.048  14.123   2.374  0.00  0.00     0.066 A 
HETATM    4  C   UNK N   1      21.049  13.985   3.340  0.00  0.00     0.044 A 
HETATM    5  C   UNK N   1      21.366  13.527   4.623  0.00  0.00    -0.048 A 
HETATM    6  C   UNK N   1      22.702  13.204   4.947  0.00  0.00    -0.047 A 
HETATM    7  C   UNK N   1      23.100  12.733   6.331  0.00  0.00     0.024 C 
HETATM    8  C   UNK N   1      20.260  13.332   5.612  0.00  0.00     0.044 C 
HETATM    9  C   UNK N   1      20.709  13.601   7.035  0.00  0.00    -0.005 C 
HETATM   10  C   UNK N   1      21.937  12.729   7.383  0.00  0.00     0.003 C 
HETATM   11  C   UNK N   1      24.883  12.948   8.177  0.00  0.00     0.013 C 
HETATM   12  C   UNK N   1      24.317  13.525   6.854  0.00  0.00     0.010 C 
HETATM   13  C   UNK N   1      22.463  12.976   8.819  0.00  0.00     0.001 C 
HETATM   14  C   UNK N   1      23.800  12.302   9.062  0.00  0.00    -0.014 C 
HETATM   15  C   UNK N   1      23.964  12.589  10.546  0.00  0.00     0.126 C 
HETATM   16  C   UNK N   1      21.590  12.503   9.970  0.00  0.00     0.008 C 
HETATM   17  C   UNK N   1      22.577  12.329  11.138  0.00  0.00     0.033 C 
HETATM   18  C   UNK N   1      23.736  10.789   8.801  0.00  0.00     0.018 C 
ENDROOT
BRANCH   9  19
HETATM   19  C   UNK N   1      20.855  15.103   7.275  0.00  0.00     0.005 C 
BRANCH  19  20
HETATM   20  C   UNK N   1      19.841  15.866   6.434  0.00  0.00     0.000 C 
BRANCH  20  21
HETATM   21  C   UNK N   1      20.530  16.929   5.588  0.00  0.00     0.000 C 
BRANCH  21  22
HETATM   22  C   UNK N   1      21.948  17.178   6.079  0.00  0.00     0.000 C 
BRANCH  22  23
HETATM   23  C   UNK N   1      22.985  16.811   5.026  0.00  0.00     0.000 C 
BRANCH  23  24
HETATM   24  C   UNK N   1      24.344  16.538   5.653  0.00  0.00     0.000 C 
BRANCH  24  25
HETATM   25  C   UNK N   1      25.464  16.587   4.623  0.00  0.00     0.001 C 
BRANCH  25  26
HETATM   26  C   UNK N   1      26.466  17.693   4.923  0.00  0.00     0.012 C 
BRANCH  26  27
HETATM   27  C   UNK N   1      25.783  19.039   5.171  0.00  0.00     0.108 C 
BRANCH  27  28
HETATM   28  S   UNK N   1      26.523  20.482   4.303  0.00  0.00     0.014 S 
HETATM   29  O   UNK N   1      27.562  19.644   3.540  0.00  0.00    -0.258 OA
BRANCH  28  30
HETATM   30  C   UNK N   1      25.301  20.468   2.951  0.00  0.00     0.109 C 
BRANCH  30  31
HETATM   31  C   UNK N   1      24.044  19.734   3.368  0.00  0.00     0.019 C 
BRANCH  31  32
HETATM   32  C   UNK N   1      22.820  20.503   2.892  0.00  0.00     0.090 C 
BRANCH  32  33
HETATM   33  C   UNK N   1      21.533  19.684   2.990  0.00  0.00     0.339 C 
HETATM   34  F   UNK N   1      21.832  18.336   2.882  0.00  0.00    -0.196 F 
HETATM   35  F   UNK N   1      20.983  19.910   4.239  0.00  0.00    -0.196 F 
BRANCH  33  36
HETATM   36  C   UNK N   1      20.505  20.076   1.921  0.00  0.00     0.454 C 
HETATM   37  F   UNK N   1      19.238  19.738   2.359  0.00  0.00    -0.165 F 
HETATM   38  F   UNK N   1      20.750  19.412   0.732  0.00  0.00    -0.165 F 
HETATM   39  F   UNK N   1      20.553  21.440   1.698  0.00  0.00    -0.165 F 
ENDBRANCH  33  36
ENDBRANCH  32  33
ENDBRANCH  31  32
ENDBRANCH  30  31
ENDBRANCH  28  30
ENDBRANCH  27  28
ENDBRANCH  26  27
ENDBRANCH  25  26
ENDBRANCH  24  25
ENDBRANCH  23  24
ENDBRANCH  22  23
ENDBRANCH  21  22
ENDBRANCH  20  21
ENDBRANCH  19  20
ENDBRANCH   9  19
BRANCH   3  40
HETATM   40  O   UNK N   1      21.739  14.575   1.148  0.00  0.00    -0.361 OA
HETATM   41  H   UNK N   1      21.534  15.479   1.012  0.00  0.00     0.217 HD
ENDBRANCH   3  40
BRANCH  15  42
HETATM   42  O   UNK N   1      24.952  11.807  11.149  0.00  0.00    -0.395 OA
HETATM   43  H   UNK N   1      24.763  11.322  11.967  0.00  0.00     0.210 HD
ENDBRANCH  15  42
TORSDOF 17
ENDMDL
