MODEL 1
REMARK VINA RESULT:      -7.9      0.000      0.000
REMARK  12 active torsions:
REMARK  status: ('A' for Active; 'I' for Inactive)
REMARK    1  A    between atoms: C_6  and  C_3 
REMARK    2  A    between atoms: C_10  and  C_3 
REMARK    3  A    between atoms: C_12  and  C_6 
REMARK    4  A    between atoms: C_8  and  C_7 
REMARK    5  A    between atoms: C_13  and  C_7 
REMARK    6  A    between atoms: C_14  and  C_8 
REMARK    7  A    between atoms: C_17  and  C_11 
REMARK    8  A    between atoms: C_19  and  C_13 
REMARK    9  A    between atoms: C_13  and  N_24 
REMARK   10  A    between atoms: O_29  and  C_14 
REMARK       I    between atoms: N_24  and  C_17 
REMARK   11  A    between atoms: O_31  and  C_18 
REMARK   12  A    between atoms: O_33  and  C_19 
ROOT
HETATM    1  C   UNK N   1      27.973  18.850   4.037  0.00  0.00     0.008 A 
HETATM    2  C   UNK N   1      27.055  16.692   3.438  0.00  0.00     0.008 A 
HETATM    3  C   UNK N   1      26.714  19.434   3.891  0.00  0.00     0.017 A 
HETATM    4  C   UNK N   1      25.796  17.270   3.320  0.00  0.00     0.017 A 
HETATM    5  C   UNK N   1      28.138  17.477   3.830  0.00  0.00    -0.058 A 
HETATM    6  C   UNK N   1      25.618  18.642   3.531  0.00  0.00     0.032 A 
ENDROOT
BRANCH   5   7
HETATM    7  C   UNK N   1      29.415  16.832   4.215  0.00  0.00     0.043 C 
BRANCH   7   8
HETATM    8  C   UNK N   1      29.743  17.020   5.674  0.00  0.00     0.045 C 
BRANCH   8   9
HETATM    9  C   UNK N   1      31.215  17.221   5.777  0.00  0.00    -0.024 A 
HETATM   10  C   UNK N   1      32.090  17.422   4.714  0.00  0.00     0.098 A 
HETATM   11  N   UNK N   1      33.353  17.567   5.190  0.00  0.00    -0.350 N 
HETATM   12  C   UNK N   1      33.257  17.453   6.528  0.00  0.00     0.136 A 
HETATM   13  H   UNK N   1      34.171  17.722   4.665  0.00  0.00     0.166 HD
HETATM   14  C   UNK N   1      31.978  17.240   6.923  0.00  0.00     0.067 A 
HETATM   15  N   UNK N   1      34.280  17.540   7.410  0.00  0.00    -0.176 N 
HETATM   16  C   UNK N   1      31.693  17.095   8.279  0.00  0.00     0.170 A 
HETATM   17  N   UNK N   1      32.722  17.179   9.167  0.00  0.00    -0.170 N 
HETATM   18  C   UNK N   1      34.007  17.402   8.744  0.00  0.00     0.679 A 
ATOM     19  HN  UNK N   1      32.534  17.074  10.164  1.00  0.00     0.186 HD
HETATM   20  N   UNK N   1      34.951  17.489   9.599  0.00  0.00    -0.234 N 
HETATM   21  H   UNK N   1      35.864  17.719   9.309  0.00  0.00     0.174 HD
ATOM     22  HN  UNK N   1      34.759  17.319  10.587  1.00  0.00     0.174 HD
HETATM   23  H   UNK N   1      35.201  17.698   7.099  0.00  0.00     0.186 HD
BRANCH  16  24
HETATM   24  O   UNK N   1      30.442  16.881   8.716  0.00  0.00    -0.345 OA
HETATM   25  H   UNK N   1      29.759  16.638   8.123  0.00  0.00     0.219 HD
ENDBRANCH  16  24
ENDBRANCH   8   9
ENDBRANCH   7   8
ENDBRANCH   5   7
BRANCH   6  26
HETATM   26  C   UNK N   1      24.288  19.099   3.911  0.00  0.00     0.252 C 
HETATM   27  N   UNK N   1      23.288  18.244   4.247  0.00  0.00    -0.343 N 
HETATM   28  H   UNK N   1      23.470  17.278   4.297  0.00  0.00     0.163 HD
HETATM   29  O   UNK N   1      24.095  20.305   3.918  0.00  0.00    -0.268 OA
BRANCH  27  30
HETATM   30  C   UNK N   1      21.952  18.742   4.532  0.00  0.00     0.183 C 
BRANCH  30  31
HETATM   31  C   UNK N   1      21.069  18.510   3.311  0.00  0.00     0.046 C 
BRANCH  31  32
HETATM   32  C   UNK N   1      20.329  19.784   2.935  0.00  0.00     0.112 C 
BRANCH  32  33
HETATM   33  C   UNK N   1      21.220  20.677   2.142  0.00  0.00     0.139 C 
HETATM   34  O   UNK N   1      21.388  20.467   0.953  0.00  0.00    -0.650 OA
BRANCH  33  35
HETATM   35  O   UNK N   1      21.824  21.729   2.730  0.00  0.00    -0.776 OA
HETATM   36  H   UNK N   1      21.922  22.540   2.271  0.00  0.00     0.167 HD
ENDBRANCH  33  35
ENDBRANCH  32  33
ENDBRANCH  31  32
ENDBRANCH  30  31
BRANCH  30  37
HETATM   37  C   UNK N   1      21.419  18.126   5.801  0.00  0.00     0.163 C 
HETATM   38  O   UNK N   1      21.089  18.850   6.728  0.00  0.00    -0.648 OA
BRANCH  37  39
HETATM   39  O   UNK N   1      21.264  16.793   5.914  0.00  0.00    -0.775 OA
HETATM   40  H   UNK N   1      20.583  16.291   6.319  0.00  0.00     0.167 HD
ENDBRANCH  37  39
ENDBRANCH  30  37
ENDBRANCH  27  30
ENDBRANCH   6  26
TORSDOF 12
ENDMDL
MODEL 2
REMARK VINA RESULT:      -7.8      2.533     11.187
REMARK  12 active torsions:
REMARK  status: ('A' for Active; 'I' for Inactive)
REMARK    1  A    between atoms: C_6  and  C_3 
REMARK    2  A    between atoms: C_10  and  C_3 
REMARK    3  A    between atoms: C_12  and  C_6 
REMARK    4  A    between atoms: C_8  and  C_7 
REMARK    5  A    between atoms: C_13  and  C_7 
REMARK    6  A    between atoms: C_14  and  C_8 
REMARK    7  A    between atoms: C_17  and  C_11 
REMARK    8  A    between atoms: C_19  and  C_13 
REMARK    9  A    between atoms: C_13  and  N_24 
REMARK   10  A    between atoms: O_29  and  C_14 
REMARK       I    between atoms: N_24  and  C_17 
REMARK   11  A    between atoms: O_31  and  C_18 
REMARK   12  A    between atoms: O_33  and  C_19 
ROOT
HETATM    1  C   UNK N   1      27.491  18.801   6.429  0.00  0.00     0.008 A 
HETATM    2  C   UNK N   1      28.637  17.295   4.920  0.00  0.00     0.008 A 
HETATM    3  C   UNK N   1      28.413  18.505   7.434  0.00  0.00     0.017 A 
HETATM    4  C   UNK N   1      29.571  17.023   5.914  0.00  0.00     0.017 A 
HETATM    5  C   UNK N   1      27.617  18.210   5.167  0.00  0.00    -0.058 A 
HETATM    6  C   UNK N   1      29.459  17.613   7.178  0.00  0.00     0.032 A 
ENDROOT
BRANCH   5   7
HETATM    7  C   UNK N   1      26.783  18.707   4.046  0.00  0.00     0.043 C 
BRANCH   7   8
HETATM    8  C   UNK N   1      25.619  19.541   4.515  0.00  0.00     0.045 C 
BRANCH   8   9
HETATM    9  C   UNK N   1      24.393  18.707   4.386  0.00  0.00    -0.024 A 
HETATM   10  C   UNK N   1      24.221  17.421   4.891  0.00  0.00     0.098 A 
HETATM   11  N   UNK N   1      22.976  16.976   4.579  0.00  0.00    -0.350 N 
HETATM   12  C   UNK N   1      22.391  17.974   3.890  0.00  0.00     0.136 A 
HETATM   13  H   UNK N   1      22.583  16.105   4.810  0.00  0.00     0.166 HD
HETATM   14  C   UNK N   1      23.219  19.039   3.749  0.00  0.00     0.067 A 
HETATM   15  N   UNK N   1      21.135  17.964   3.387  0.00  0.00    -0.176 N 
HETATM   16  C   UNK N   1      22.777  20.164   3.058  0.00  0.00     0.170 A 
HETATM   17  N   UNK N   1      21.513  20.154   2.548  0.00  0.00    -0.170 N 
HETATM   18  C   UNK N   1      20.692  19.068   2.710  0.00  0.00     0.679 A 
ATOM     19  HN  UNK N   1      21.172  20.968   2.037  1.00  0.00     0.186 HD
HETATM   20  N   UNK N   1      19.509  19.089   2.232  0.00  0.00    -0.234 N 
HETATM   21  H   UNK N   1      18.890  18.343   2.405  0.00  0.00     0.174 HD
ATOM     22  HN  UNK N   1      19.203  19.884   1.670  1.00  0.00     0.174 HD
HETATM   23  H   UNK N   1      20.552  17.179   3.505  0.00  0.00     0.186 HD
BRANCH  16  24
HETATM   24  O   UNK N   1      23.561  21.241   2.891  0.00  0.00    -0.345 OA
HETATM   25  H   UNK N   1      24.181  21.282   2.190  0.00  0.00     0.219 HD
ENDBRANCH  16  24
ENDBRANCH   8   9
ENDBRANCH   7   8
ENDBRANCH   5   7
BRANCH   6  26
HETATM   26  C   UNK N   1      30.672  17.730   7.977  0.00  0.00     0.252 C 
HETATM   27  N   UNK N   1      31.902  17.423   7.491  0.00  0.00    -0.343 N 
HETATM   28  H   UNK N   1      32.001  17.166   6.546  0.00  0.00     0.163 HD
HETATM   29  O   UNK N   1      30.545  18.123   9.127  0.00  0.00    -0.268 OA
BRANCH  27  30
HETATM   30  C   UNK N   1      33.071  17.470   8.353  0.00  0.00     0.183 C 
BRANCH  30  31
HETATM   31  C   UNK N   1      33.409  16.054   8.803  0.00  0.00     0.046 C 
BRANCH  31  32
HETATM   32  C   UNK N   1      34.899  15.920   9.082  0.00  0.00     0.112 C 
BRANCH  32  33
HETATM   33  C   UNK N   1      35.201  16.378  10.468  0.00  0.00     0.139 C 
HETATM   34  O   UNK N   1      35.931  17.338  10.643  0.00  0.00    -0.650 OA
BRANCH  33  35
HETATM   35  O   UNK N   1      34.653  15.748  11.525  0.00  0.00    -0.776 OA
HETATM   36  H   UNK N   1      33.755  15.480  11.508  0.00  0.00     0.167 HD
ENDBRANCH  33  35
ENDBRANCH  32  33
ENDBRANCH  31  32
ENDBRANCH  30  31
BRANCH  30  37
HETATM   37  C   UNK N   1      34.208  18.182   7.662  0.00  0.00     0.163 C 
HETATM   38  O   UNK N   1      34.428  17.959   6.481  0.00  0.00    -0.648 OA
BRANCH  37  39
HETATM   39  O   UNK N   1      34.960  19.087   8.317  0.00  0.00    -0.775 OA
HETATM   40  H   UNK N   1      35.214  19.129   9.218  0.00  0.00     0.167 HD
ENDBRANCH  37  39
ENDBRANCH  30  37
ENDBRANCH  27  30
ENDBRANCH   6  26
TORSDOF 12
ENDMDL
MODEL 3
REMARK VINA RESULT:      -7.7      2.424     10.846
REMARK  12 active torsions:
REMARK  status: ('A' for Active; 'I' for Inactive)
REMARK    1  A    between atoms: C_6  and  C_3 
REMARK    2  A    between atoms: C_10  and  C_3 
REMARK    3  A    between atoms: C_12  and  C_6 
REMARK    4  A    between atoms: C_8  and  C_7 
REMARK    5  A    between atoms: C_13  and  C_7 
REMARK    6  A    between atoms: C_14  and  C_8 
REMARK    7  A    between atoms: C_17  and  C_11 
REMARK    8  A    between atoms: C_19  and  C_13 
REMARK    9  A    between atoms: C_13  and  N_24 
REMARK   10  A    between atoms: O_29  and  C_14 
REMARK       I    between atoms: N_24  and  C_17 
REMARK   11  A    between atoms: O_31  and  C_18 
REMARK   12  A    between atoms: O_33  and  C_19 
ROOT
HETATM    1  C   UNK N   1      27.003  18.126   5.590  0.00  0.00     0.008 A 
HETATM    2  C   UNK N   1      27.587  17.057   3.498  0.00  0.00     0.008 A 
HETATM    3  C   UNK N   1      28.112  17.543   6.205  0.00  0.00     0.017 A 
HETATM    4  C   UNK N   1      28.707  16.499   4.106  0.00  0.00     0.017 A 
HETATM    5  C   UNK N   1      26.754  17.898   4.232  0.00  0.00    -0.058 A 
HETATM    6  C   UNK N   1      28.969  16.726   5.462  0.00  0.00     0.032 A 
ENDROOT
BRANCH   5   7
HETATM    7  C   UNK N   1      25.721  18.703   3.537  0.00  0.00     0.043 C 
BRANCH   7   8
HETATM    8  C   UNK N   1      24.738  19.331   4.491  0.00  0.00     0.045 C 
BRANCH   8   9
HETATM    9  C   UNK N   1      23.488  18.524   4.436  0.00  0.00    -0.024 A 
HETATM   10  C   UNK N   1      23.285  17.287   5.039  0.00  0.00     0.098 A 
HETATM   11  N   UNK N   1      22.025  16.854   4.773  0.00  0.00    -0.350 N 
HETATM   12  C   UNK N   1      21.461  17.813   4.014  0.00  0.00     0.136 A 
HETATM   13  H   UNK N   1      21.611  16.015   5.073  0.00  0.00     0.166 HD
HETATM   14  C   UNK N   1      22.316  18.839   3.785  0.00  0.00     0.067 A 
HETATM   15  N   UNK N   1      20.200  17.800   3.523  0.00  0.00    -0.176 N 
HETATM   16  C   UNK N   1      21.899  19.921   3.012  0.00  0.00     0.170 A 
HETATM   17  N   UNK N   1      20.631  19.907   2.515  0.00  0.00    -0.170 N 
HETATM   18  C   UNK N   1      19.782  18.860   2.766  0.00  0.00     0.679 A 
ATOM     19  HN  UNK N   1      20.307  20.689   1.945  1.00  0.00     0.186 HD
HETATM   20  N   UNK N   1      18.594  18.879   2.298  0.00  0.00    -0.234 N 
HETATM   21  H   UNK N   1      17.957  18.166   2.532  0.00  0.00     0.174 HD
ATOM     22  HN  UNK N   1      18.305  19.636   1.678  1.00  0.00     0.174 HD
HETATM   23  H   UNK N   1      19.597  17.043   3.705  0.00  0.00     0.186 HD
BRANCH  16  24
HETATM   24  O   UNK N   1      22.711  20.959   2.757  0.00  0.00    -0.345 OA
HETATM   25  H   UNK N   1      23.094  21.453   3.455  0.00  0.00     0.219 HD
ENDBRANCH  16  24
ENDBRANCH   8   9
ENDBRANCH   7   8
ENDBRANCH   5   7
BRANCH   6  26
HETATM   26  C   UNK N   1      30.348  16.588   5.914  0.00  0.00     0.252 C 
HETATM   27  N   UNK N   1      30.671  16.277   7.195  0.00  0.00    -0.343 N 
HETATM   28  H   UNK N   1      29.957  16.077   7.843  0.00  0.00     0.163 HD
HETATM   29  O   UNK N   1      31.226  16.765   5.083  0.00  0.00    -0.268 OA
BRANCH  27  30
HETATM   30  C   UNK N   1      32.061  16.238   7.620  0.00  0.00     0.183 C 
BRANCH  30  31
HETATM   31  C   UNK N   1      32.476  17.631   8.078  0.00  0.00     0.046 C 
BRANCH  31  32
HETATM   32  C   UNK N   1      33.829  18.007   7.495  0.00  0.00     0.112 C 
BRANCH  32  33
HETATM   33  C   UNK N   1      34.808  18.250   8.593  0.00  0.00     0.139 C 
HETATM   34  O   UNK N   1      35.027  17.376   9.415  0.00  0.00    -0.650 OA
BRANCH  33  35
HETATM   35  O   UNK N   1      35.468  19.422   8.666  0.00  0.00    -0.776 OA
HETATM   36  H   UNK N   1      36.355  19.452   8.964  0.00  0.00     0.167 HD
ENDBRANCH  33  35
ENDBRANCH  32  33
ENDBRANCH  31  32
ENDBRANCH  30  31
BRANCH  30  37
HETATM   37  C   UNK N   1      32.266  15.164   8.659  0.00  0.00     0.163 C 
HETATM   38  O   UNK N   1      32.171  13.989   8.337  0.00  0.00    -0.648 OA
BRANCH  37  39
HETATM   39  O   UNK N   1      32.590  15.479   9.928  0.00  0.00    -0.775 OA
HETATM   40  H   UNK N   1      32.187  15.232  10.737  0.00  0.00     0.167 HD
ENDBRANCH  37  39
ENDBRANCH  30  37
ENDBRANCH  27  30
ENDBRANCH   6  26
TORSDOF 12
ENDMDL
MODEL 4
REMARK VINA RESULT:      -7.6      2.187      3.527
REMARK  12 active torsions:
REMARK  status: ('A' for Active; 'I' for Inactive)
REMARK    1  A    between atoms: C_6  and  C_3 
REMARK    2  A    between atoms: C_10  and  C_3 
REMARK    3  A    between atoms: C_12  and  C_6 
REMARK    4  A    between atoms: C_8  and  C_7 
REMARK    5  A    between atoms: C_13  and  C_7 
REMARK    6  A    between atoms: C_14  and  C_8 
REMARK    7  A    between atoms: C_17  and  C_11 
REMARK    8  A    between atoms: C_19  and  C_13 
REMARK    9  A    between atoms: C_13  and  N_24 
REMARK   10  A    between atoms: O_29  and  C_14 
REMARK       I    between atoms: N_24  and  C_17 
REMARK   11  A    between atoms: O_31  and  C_18 
REMARK   12  A    between atoms: O_33  and  C_19 
ROOT
HETATM    1  C   UNK N   1      25.196  16.443   5.314  0.00  0.00     0.008 A 
HETATM    2  C   UNK N   1      25.326  18.763   4.637  0.00  0.00     0.008 A 
HETATM    3  C   UNK N   1      23.803  16.495   5.250  0.00  0.00     0.017 A 
HETATM    4  C   UNK N   1      23.938  18.806   4.548  0.00  0.00     0.017 A 
HETATM    5  C   UNK N   1      25.956  17.571   4.988  0.00  0.00    -0.058 A 
HETATM    6  C   UNK N   1      23.169  17.681   4.865  0.00  0.00     0.032 A 
ENDROOT
BRANCH   5   7
HETATM    7  C   UNK N   1      27.424  17.438   4.830  0.00  0.00     0.043 C 
BRANCH   7   8
HETATM    8  C   UNK N   1      28.169  18.668   5.282  0.00  0.00     0.045 C 
BRANCH   8   9
HETATM    9  C   UNK N   1      28.552  18.457   6.705  0.00  0.00    -0.024 A 
HETATM   10  C   UNK N   1      27.875  18.951   7.816  0.00  0.00     0.098 A 
HETATM   11  N   UNK N   1      28.515  18.558   8.947  0.00  0.00    -0.350 N 
HETATM   12  C   UNK N   1      29.573  17.832   8.537  0.00  0.00     0.136 A 
HETATM   13  H   UNK N   1      28.259  18.760   9.875  0.00  0.00     0.166 HD
HETATM   14  C   UNK N   1      29.632  17.751   7.185  0.00  0.00     0.067 A 
HETATM   15  N   UNK N   1      30.487  17.235   9.337  0.00  0.00    -0.176 N 
HETATM   16  C   UNK N   1      30.668  17.039   6.584  0.00  0.00     0.170 A 
HETATM   17  N   UNK N   1      31.590  16.440   7.389  0.00  0.00    -0.170 N 
HETATM   18  C   UNK N   1      31.506  16.531   8.754  0.00  0.00     0.679 A 
ATOM     19  HN  UNK N   1      32.357  15.915   6.968  1.00  0.00     0.186 HD
HETATM   20  N   UNK N   1      32.377  15.949   9.484  0.00  0.00    -0.234 N 
HETATM   21  H   UNK N   1      32.283  15.950  10.464  0.00  0.00     0.174 HD
ATOM     22  HN  UNK N   1      33.173  15.482   9.050  1.00  0.00     0.174 HD
HETATM   23  H   UNK N   1      30.422  17.307  10.316  0.00  0.00     0.186 HD
BRANCH  16  24
HETATM   24  O   UNK N   1      30.767  16.933   5.250  0.00  0.00    -0.345 OA
HETATM   25  H   UNK N   1      31.430  17.397   4.778  0.00  0.00     0.219 HD
ENDBRANCH  16  24
ENDBRANCH   8   9
ENDBRANCH   7   8
ENDBRANCH   5   7
BRANCH   6  26
HETATM   26  C   UNK N   1      21.838  17.588   4.279  0.00  0.00     0.252 C 
HETATM   27  N   UNK N   1      21.557  18.029   3.026  0.00  0.00    -0.343 N 
HETATM   28  H   UNK N   1      22.282  18.374   2.457  0.00  0.00     0.163 HD
HETATM   29  O   UNK N   1      20.961  17.088   4.967  0.00  0.00    -0.268 OA
BRANCH  27  30
HETATM   30  C   UNK N   1      20.195  17.996   2.518  0.00  0.00     0.183 C 
BRANCH  30  31
HETATM   31  C   UNK N   1      19.673  19.425   2.416  0.00  0.00     0.046 C 
BRANCH  31  32
HETATM   32  C   UNK N   1      20.827  20.413   2.334  0.00  0.00     0.112 C 
BRANCH  32  33
HETATM   33  C   UNK N   1      20.799  21.122   1.024  0.00  0.00     0.139 C 
HETATM   34  O   UNK N   1      21.127  20.533   0.008  0.00  0.00    -0.650 OA
BRANCH  33  35
HETATM   35  O   UNK N   1      20.392  22.405   0.955  0.00  0.00    -0.776 OA
HETATM   36  H   UNK N   1      19.532  22.648   1.236  0.00  0.00     0.167 HD
ENDBRANCH  33  35
ENDBRANCH  32  33
ENDBRANCH  31  32
ENDBRANCH  30  31
BRANCH  30  37
HETATM   37  C   UNK N   1      20.133  17.227   1.222  0.00  0.00     0.163 C 
HETATM   38  O   UNK N   1      19.859  16.037   1.241  0.00  0.00    -0.648 OA
BRANCH  37  39
HETATM   39  O   UNK N   1      20.338  17.841   0.040  0.00  0.00    -0.775 OA
HETATM   40  H   UNK N   1      19.729  18.097  -0.625  0.00  0.00     0.167 HD
ENDBRANCH  37  39
ENDBRANCH  30  37
ENDBRANCH  27  30
ENDBRANCH   6  26
TORSDOF 12
ENDMDL
MODEL 5
REMARK VINA RESULT:      -7.6      2.860     10.163
REMARK  12 active torsions:
REMARK  status: ('A' for Active; 'I' for Inactive)
REMARK    1  A    between atoms: C_6  and  C_3 
REMARK    2  A    between atoms: C_10  and  C_3 
REMARK    3  A    between atoms: C_12  and  C_6 
REMARK    4  A    between atoms: C_8  and  C_7 
REMARK    5  A    between atoms: C_13  and  C_7 
REMARK    6  A    between atoms: C_14  and  C_8 
REMARK    7  A    between atoms: C_17  and  C_11 
REMARK    8  A    between atoms: C_19  and  C_13 
REMARK    9  A    between atoms: C_13  and  N_24 
REMARK   10  A    between atoms: O_29  and  C_14 
REMARK       I    between atoms: N_24  and  C_17 
REMARK   11  A    between atoms: O_31  and  C_18 
REMARK   12  A    between atoms: O_33  and  C_19 
ROOT
HETATM    1  C   UNK N   1      25.595  18.098   3.200  0.00  0.00     0.008 A 
HETATM    2  C   UNK N   1      26.614  20.211   3.797  0.00  0.00     0.008 A 
HETATM    3  C   UNK N   1      26.468  17.427   4.058  0.00  0.00     0.017 A 
HETATM    4  C   UNK N   1      27.464  19.544   4.672  0.00  0.00     0.017 A 
HETATM    5  C   UNK N   1      25.656  19.491   3.086  0.00  0.00    -0.058 A 
HETATM    6  C   UNK N   1      27.407  18.151   4.799  0.00  0.00     0.032 A 
ENDROOT
BRANCH   5   7
HETATM    7  C   UNK N   1      24.580  20.209   2.362  0.00  0.00     0.043 C 
BRANCH   7   8
HETATM    8  C   UNK N   1      23.495  20.706   3.281  0.00  0.00     0.045 C 
BRANCH   8   9
HETATM    9  C   UNK N   1      22.215  20.093   2.830  0.00  0.00    -0.024 A 
HETATM   10  C   UNK N   1      21.446  20.507   1.747  0.00  0.00     0.098 A 
HETATM   11  N   UNK N   1      20.350  19.713   1.640  0.00  0.00    -0.350 N 
HETATM   12  C   UNK N   1      20.441  18.823   2.646  0.00  0.00     0.136 A 
HETATM   13  H   UNK N   1      19.635  19.775   0.967  0.00  0.00     0.166 HD
HETATM   14  C   UNK N   1      21.556  19.022   3.392  0.00  0.00     0.067 A 
HETATM   15  N   UNK N   1      19.560  17.832   2.916  0.00  0.00    -0.176 N 
HETATM   16  C   UNK N   1      21.811  18.192   4.481  0.00  0.00     0.170 A 
HETATM   17  N   UNK N   1      20.923  17.196   4.755  0.00  0.00    -0.170 N 
HETATM   18  C   UNK N   1      19.806  17.010   3.982  0.00  0.00     0.679 A 
ATOM     19  HN  UNK N   1      21.091  16.578   5.549  1.00  0.00     0.186 HD
HETATM   20  N   UNK N   1      18.996  16.061   4.254  0.00  0.00    -0.234 N 
HETATM   21  H   UNK N   1      18.230  15.878   3.663  0.00  0.00     0.174 HD
ATOM     22  HN  UNK N   1      19.143  15.491   5.087  1.00  0.00     0.174 HD
HETATM   23  H   UNK N   1      18.759  17.707   2.358  0.00  0.00     0.186 HD
BRANCH  16  24
HETATM   24  O   UNK N   1      22.901  18.352   5.248  0.00  0.00    -0.345 OA
HETATM   25  H   UNK N   1      22.902  18.958   5.962  0.00  0.00     0.219 HD
ENDBRANCH  16  24
ENDBRANCH   8   9
ENDBRANCH   7   8
ENDBRANCH   5   7
BRANCH   6  26
HETATM   26  C   UNK N   1      27.901  17.567   6.039  0.00  0.00     0.252 C 
HETATM   27  N   UNK N   1      28.774  18.211   6.856  0.00  0.00    -0.343 N 
HETATM   28  H   UNK N   1      29.048  19.133   6.645  0.00  0.00     0.163 HD
HETATM   29  O   UNK N   1      27.495  16.452   6.329  0.00  0.00    -0.268 OA
BRANCH  27  30
HETATM   30  C   UNK N   1      29.307  17.553   8.037  0.00  0.00     0.183 C 
BRANCH  30  31
HETATM   31  C   UNK N   1      30.829  17.579   7.971  0.00  0.00     0.046 C 
BRANCH  31  32
HETATM   32  C   UNK N   1      31.383  16.174   7.788  0.00  0.00     0.112 C 
BRANCH  32  33
HETATM   33  C   UNK N   1      32.204  15.791   8.971  0.00  0.00     0.139 C 
HETATM   34  O   UNK N   1      33.420  15.872   8.917  0.00  0.00    -0.650 OA
BRANCH  33  35
HETATM   35  O   UNK N   1      31.608  15.377  10.106  0.00  0.00    -0.776 OA
HETATM   36  H   UNK N   1      31.894  15.695  10.939  0.00  0.00     0.167 HD
ENDBRANCH  33  35
ENDBRANCH  32  33
ENDBRANCH  31  32
ENDBRANCH  30  31
BRANCH  30  37
HETATM   37  C   UNK N   1      28.737  18.171   9.289  0.00  0.00     0.163 C 
HETATM   38  O   UNK N   1      29.494  18.593  10.150  0.00  0.00    -0.648 OA
BRANCH  37  39
HETATM   39  O   UNK N   1      27.406  18.299   9.456  0.00  0.00    -0.775 OA
HETATM   40  H   UNK N   1      26.848  17.998  10.146  0.00  0.00     0.167 HD
ENDBRANCH  37  39
ENDBRANCH  30  37
ENDBRANCH  27  30
ENDBRANCH   6  26
TORSDOF 12
ENDMDL
MODEL 6
REMARK VINA RESULT:      -7.4      4.451     12.231
REMARK  12 active torsions:
REMARK  status: ('A' for Active; 'I' for Inactive)
REMARK    1  A    between atoms: C_6  and  C_3 
REMARK    2  A    between atoms: C_10  and  C_3 
REMARK    3  A    between atoms: C_12  and  C_6 
REMARK    4  A    between atoms: C_8  and  C_7 
REMARK    5  A    between atoms: C_13  and  C_7 
REMARK    6  A    between atoms: C_14  and  C_8 
REMARK    7  A    between atoms: C_17  and  C_11 
REMARK    8  A    between atoms: C_19  and  C_13 
REMARK    9  A    between atoms: C_13  and  N_24 
REMARK   10  A    between atoms: O_29  and  C_14 
REMARK       I    between atoms: N_24  and  C_17 
REMARK   11  A    between atoms: O_31  and  C_18 
REMARK   12  A    between atoms: O_33  and  C_19 
ROOT
HETATM    1  C   UNK N   1      32.175  16.032   8.828  0.00  0.00     0.008 A 
HETATM    2  C   UNK N   1      33.301  18.131   8.399  0.00  0.00     0.008 A 
HETATM    3  C   UNK N   1      33.403  15.417   9.079  0.00  0.00     0.017 A 
HETATM    4  C   UNK N   1      34.521  17.524   8.677  0.00  0.00     0.017 A 
HETATM    5  C   UNK N   1      32.125  17.392   8.508  0.00  0.00    -0.058 A 
HETATM    6  C   UNK N   1      34.583  16.164   9.004  0.00  0.00     0.032 A 
ENDROOT
BRANCH   5   7
HETATM    7  C   UNK N   1      30.814  18.084   8.477  0.00  0.00     0.043 C 
BRANCH   7   8
HETATM    8  C   UNK N   1      29.703  17.198   7.976  0.00  0.00     0.045 C 
BRANCH   8   9
HETATM    9  C   UNK N   1      29.506  17.504   6.533  0.00  0.00    -0.024 A 
HETATM   10  C   UNK N   1      30.217  16.949   5.473  0.00  0.00     0.098 A 
HETATM   11  N   UNK N   1      29.763  17.467   4.303  0.00  0.00    -0.350 N 
HETATM   12  C   UNK N   1      28.785  18.330   4.638  0.00  0.00     0.136 A 
HETATM   13  H   UNK N   1      30.081  17.254   3.397  0.00  0.00     0.166 HD
HETATM   14  C   UNK N   1      28.602  18.383   5.980  0.00  0.00     0.067 A 
HETATM   15  N   UNK N   1      28.047  19.070   3.778  0.00  0.00    -0.176 N 
HETATM   16  C   UNK N   1      27.630  19.231   6.507  0.00  0.00     0.170 A 
HETATM   17  N   UNK N   1      26.888  19.978   5.642  0.00  0.00    -0.170 N 
HETATM   18  C   UNK N   1      27.088  19.902   4.288  0.00  0.00     0.679 A 
ATOM     19  HN  UNK N   1      26.172  20.606   6.008  1.00  0.00     0.186 HD
HETATM   20  N   UNK N   1      26.370  20.604   3.500  0.00  0.00    -0.234 N 
HETATM   21  H   UNK N   1      26.459  20.503   2.524  0.00  0.00     0.174 HD
ATOM     22  HN  UNK N   1      25.702  21.274   3.882  1.00  0.00     0.174 HD
HETATM   23  H   UNK N   1      28.198  19.012   2.807  0.00  0.00     0.186 HD
BRANCH  16  24
HETATM   24  O   UNK N   1      27.413  19.318   7.829  0.00  0.00    -0.345 OA
HETATM   25  H   UNK N   1      26.598  19.636   8.164  0.00  0.00     0.219 HD
ENDBRANCH  16  24
ENDBRANCH   8   9
ENDBRANCH   7   8
ENDBRANCH   5   7
BRANCH   6  26
HETATM   26  C   UNK N   1      35.734  15.708   9.772  0.00  0.00     0.252 C 
HETATM   27  N   UNK N   1      36.239  14.452   9.659  0.00  0.00    -0.343 N 
HETATM   28  H   UNK N   1      35.859  13.833   8.995  0.00  0.00     0.163 HD
HETATM   29  O   UNK N   1      36.244  16.510  10.539  0.00  0.00    -0.268 OA
BRANCH  27  30
HETATM   30  C   UNK N   1      37.333  14.015  10.511  0.00  0.00     0.183 C 
BRANCH  30  31
HETATM   31  C   UNK N   1      36.828  12.911  11.433  0.00  0.00     0.046 C 
BRANCH  31  32
HETATM   32  C   UNK N   1      36.615  13.444  12.841  0.00  0.00     0.112 C 
BRANCH  32  33
HETATM   33  C   UNK N   1      35.159  13.500  13.151  0.00  0.00     0.139 C 
HETATM   34  O   UNK N   1      34.777  13.351  14.299  0.00  0.00    -0.650 OA
BRANCH  33  35
HETATM   35  O   UNK N   1      34.265  13.738  12.171  0.00  0.00    -0.776 OA
HETATM   36  H   UNK N   1      33.546  13.155  12.030  0.00  0.00     0.167 HD
ENDBRANCH  33  35
ENDBRANCH  32  33
ENDBRANCH  31  32
ENDBRANCH  30  31
BRANCH  30  37
HETATM   37  C   UNK N   1      38.526  13.620   9.676  0.00  0.00     0.163 C 
HETATM   38  O   UNK N   1      39.393  12.911  10.164  0.00  0.00    -0.648 OA
BRANCH  37  39
HETATM   39  O   UNK N   1      38.631  14.005   8.390  0.00  0.00    -0.775 OA
HETATM   40  H   UNK N   1      39.354  13.948   7.795  0.00  0.00     0.167 HD
ENDBRANCH  37  39
ENDBRANCH  30  37
ENDBRANCH  27  30
ENDBRANCH   6  26
TORSDOF 12
ENDMDL
MODEL 7
REMARK VINA RESULT:      -7.4      5.831      8.299
REMARK  12 active torsions:
REMARK  status: ('A' for Active; 'I' for Inactive)
REMARK    1  A    between atoms: C_6  and  C_3 
REMARK    2  A    between atoms: C_10  and  C_3 
REMARK    3  A    between atoms: C_12  and  C_6 
REMARK    4  A    between atoms: C_8  and  C_7 
REMARK    5  A    between atoms: C_13  and  C_7 
REMARK    6  A    between atoms: C_14  and  C_8 
REMARK    7  A    between atoms: C_17  and  C_11 
REMARK    8  A    between atoms: C_19  and  C_13 
REMARK    9  A    between atoms: C_13  and  N_24 
REMARK   10  A    between atoms: O_29  and  C_14 
REMARK       I    between atoms: N_24  and  C_17 
REMARK   11  A    between atoms: O_31  and  C_18 
REMARK   12  A    between atoms: O_33  and  C_19 
ROOT
HETATM    1  C   UNK N   1      22.239  15.806   6.778  0.00  0.00     0.008 A 
HETATM    2  C   UNK N   1      20.003  15.461   5.919  0.00  0.00     0.008 A 
HETATM    3  C   UNK N   1      22.434  16.849   5.871  0.00  0.00     0.017 A 
HETATM    4  C   UNK N   1      20.188  16.519   5.035  0.00  0.00     0.017 A 
HETATM    5  C   UNK N   1      21.017  15.127   6.814  0.00  0.00    -0.058 A 
HETATM    6  C   UNK N   1      21.405  17.209   4.995  0.00  0.00     0.032 A 
ENDROOT
BRANCH   5   7
HETATM    7  C   UNK N   1      20.738  14.191   7.929  0.00  0.00     0.043 C 
BRANCH   7   8
HETATM    8  C   UNK N   1      21.331  12.825   7.700  0.00  0.00     0.045 C 
BRANCH   8   9
HETATM    9  C   UNK N   1      22.526  12.705   8.580  0.00  0.00    -0.024 A 
HETATM   10  C   UNK N   1      23.854  12.810   8.178  0.00  0.00     0.098 A 
HETATM   11  N   UNK N   1      24.667  12.646   9.253  0.00  0.00    -0.350 N 
HETATM   12  C   UNK N   1      23.850  12.442  10.304  0.00  0.00     0.136 A 
HETATM   13  H   UNK N   1      25.650  12.672   9.263  0.00  0.00     0.166 HD
HETATM   14  C   UNK N   1      22.545  12.467   9.936  0.00  0.00     0.067 A 
HETATM   15  N   UNK N   1      24.236  12.239  11.585  0.00  0.00    -0.176 N 
HETATM   16  C   UNK N   1      21.557  12.270  10.899  0.00  0.00     0.170 A 
HETATM   17  N   UNK N   1      21.945  12.062  12.188  0.00  0.00    -0.170 N 
HETATM   18  C   UNK N   1      23.271  12.048  12.536  0.00  0.00     0.679 A 
ATOM     19  HN  UNK N   1      21.236  11.914  12.907  1.00  0.00     0.186 HD
HETATM   20  N   UNK N   1      23.606  11.863  13.754  0.00  0.00    -0.234 N 
HETATM   21  H   UNK N   1      24.551  11.922  14.023  0.00  0.00     0.174 HD
ATOM     22  HN  UNK N   1      22.890  11.654  14.451  1.00  0.00     0.174 HD
HETATM   23  H   UNK N   1      25.190  12.227  11.827  0.00  0.00     0.186 HD
BRANCH  16  24
HETATM   24  O   UNK N   1      20.252  12.285  10.582  0.00  0.00    -0.345 OA
HETATM   25  H   UNK N   1      19.650  11.698  10.994  0.00  0.00     0.219 HD
ENDBRANCH  16  24
ENDBRANCH   8   9
ENDBRANCH   7   8
ENDBRANCH   5   7
BRANCH   6  26
HETATM   26  C   UNK N   1      21.390  18.571   4.477  0.00  0.00     0.252 C 
HETATM   27  N   UNK N   1      21.812  18.884   3.225  0.00  0.00    -0.343 N 
HETATM   28  H   UNK N   1      22.087  18.165   2.610  0.00  0.00     0.163 HD
HETATM   29  O   UNK N   1      20.975  19.445   5.223  0.00  0.00    -0.268 OA
BRANCH  27  30
HETATM   30  C   UNK N   1      21.861  20.268   2.784  0.00  0.00     0.183 C 
BRANCH  30  31
HETATM   31  C   UNK N   1      23.317  20.664   2.566  0.00  0.00     0.046 C 
BRANCH  31  32
HETATM   32  C   UNK N   1      24.235  19.852   3.467  0.00  0.00     0.112 C 
BRANCH  32  33
HETATM   33  C   UNK N   1      25.659  20.166   3.162  0.00  0.00     0.139 C 
HETATM   34  O   UNK N   1      25.928  21.012   2.326  0.00  0.00    -0.650 OA
BRANCH  33  35
HETATM   35  O   UNK N   1      26.649  19.535   3.822  0.00  0.00    -0.776 OA
HETATM   36  H   UNK N   1      26.670  18.599   3.871  0.00  0.00     0.167 HD
ENDBRANCH  33  35
ENDBRANCH  32  33
ENDBRANCH  31  32
ENDBRANCH  30  31
BRANCH  30  37
HETATM   37  C   UNK N   1      20.983  20.469   1.574  0.00  0.00     0.163 C 
HETATM   38  O   UNK N   1      20.779  21.600   1.161  0.00  0.00    -0.648 OA
BRANCH  37  39
HETATM   39  O   UNK N   1      20.452  19.418   0.920  0.00  0.00    -0.775 OA
HETATM   40  H   UNK N   1      19.702  18.893   1.120  0.00  0.00     0.167 HD
ENDBRANCH  37  39
ENDBRANCH  30  37
ENDBRANCH  27  30
ENDBRANCH   6  26
TORSDOF 12
ENDMDL
MODEL 8
REMARK VINA RESULT:      -7.3      7.920     13.252
REMARK  12 active torsions:
REMARK  status: ('A' for Active; 'I' for Inactive)
REMARK    1  A    between atoms: C_6  and  C_3 
REMARK    2  A    between atoms: C_10  and  C_3 
REMARK    3  A    between atoms: C_12  and  C_6 
REMARK    4  A    between atoms: C_8  and  C_7 
REMARK    5  A    between atoms: C_13  and  C_7 
REMARK    6  A    between atoms: C_14  and  C_8 
REMARK    7  A    between atoms: C_17  and  C_11 
REMARK    8  A    between atoms: C_19  and  C_13 
REMARK    9  A    between atoms: C_13  and  N_24 
REMARK   10  A    between atoms: O_29  and  C_14 
REMARK       I    between atoms: N_24  and  C_17 
REMARK   11  A    between atoms: O_31  and  C_18 
REMARK   12  A    between atoms: O_33  and  C_19 
ROOT
HETATM    1  C   UNK N   1      36.134  14.503  13.605  0.00  0.00     0.008 A 
HETATM    2  C   UNK N   1      36.990  12.542  12.474  0.00  0.00     0.008 A 
HETATM    3  C   UNK N   1      36.051  15.178  12.386  0.00  0.00     0.017 A 
HETATM    4  C   UNK N   1      36.882  13.207  11.257  0.00  0.00     0.017 A 
HETATM    5  C   UNK N   1      36.584  13.179  13.644  0.00  0.00    -0.058 A 
HETATM    6  C   UNK N   1      36.426  14.529  11.206  0.00  0.00     0.032 A 
ENDROOT
BRANCH   5   7
HETATM    7  C   UNK N   1      36.443  12.400  14.897  0.00  0.00     0.043 C 
BRANCH   7   8
HETATM    8  C   UNK N   1      35.050  12.467  15.468  0.00  0.00     0.045 C 
BRANCH   8   9
HETATM    9  C   UNK N   1      35.178  12.781  16.918  0.00  0.00    -0.024 A 
HETATM   10  C   UNK N   1      35.331  14.049  17.470  0.00  0.00     0.098 A 
HETATM   11  N   UNK N   1      35.414  13.947  18.822  0.00  0.00    -0.350 N 
HETATM   12  C   UNK N   1      35.316  12.633  19.097  0.00  0.00     0.136 A 
HETATM   13  H   UNK N   1      35.523  14.681  19.467  0.00  0.00     0.166 HD
HETATM   14  C   UNK N   1      35.175  11.893  17.970  0.00  0.00     0.067 A 
HETATM   15  N   UNK N   1      35.344  12.073  20.329  0.00  0.00    -0.176 N 
HETATM   16  C   UNK N   1      35.062  10.508  18.067  0.00  0.00     0.170 A 
HETATM   17  N   UNK N   1      35.093   9.944  19.307  0.00  0.00    -0.170 N 
HETATM   18  C   UNK N   1      35.230  10.713  20.433  0.00  0.00     0.679 A 
ATOM     19  HN  UNK N   1      35.014   8.931  19.399  1.00  0.00     0.186 HD
HETATM   20  N   UNK N   1      35.243  10.159  21.583  0.00  0.00    -0.234 N 
HETATM   21  H   UNK N   1      35.270  10.710  22.399  0.00  0.00     0.174 HD
ATOM     22  HN  UNK N   1      35.227   9.142  21.657  1.00  0.00     0.174 HD
HETATM   23  H   UNK N   1      35.445  12.632  21.133  0.00  0.00     0.186 HD
BRANCH  16  24
HETATM   24  O   UNK N   1      34.922   9.735  16.978  0.00  0.00    -0.345 OA
HETATM   25  H   UNK N   1      34.811  10.114  16.129  0.00  0.00     0.219 HD
ENDBRANCH  16  24
ENDBRANCH   8   9
ENDBRANCH   7   8
ENDBRANCH   5   7
BRANCH   6  26
HETATM   26  C   UNK N   1      35.843  14.993   9.953  0.00  0.00     0.252 C 
HETATM   27  N   UNK N   1      34.847  15.914   9.906  0.00  0.00    -0.343 N 
HETATM   28  H   UNK N   1      34.535  16.338  10.738  0.00  0.00     0.163 HD
HETATM   29  O   UNK N   1      36.290  14.515   8.921  0.00  0.00    -0.268 OA
BRANCH  27  30
HETATM   30  C   UNK N   1      34.236  16.279   8.638  0.00  0.00     0.183 C 
BRANCH  30  31
HETATM   31  C   UNK N   1      32.726  16.098   8.749  0.00  0.00     0.046 C 
BRANCH  31  32
HETATM   32  C   UNK N   1      32.185  15.354   7.537  0.00  0.00     0.112 C 
BRANCH  32  33
HETATM   33  C   UNK N   1      31.330  16.261   6.721  0.00  0.00     0.139 C 
HETATM   34  O   UNK N   1      31.796  17.297   6.277  0.00  0.00    -0.650 OA
BRANCH  33  35
HETATM   35  O   UNK N   1      30.052  15.930   6.453  0.00  0.00    -0.776 OA
HETATM   36  H   UNK N   1      29.560  16.405   5.813  0.00  0.00     0.167 HD
ENDBRANCH  33  35
ENDBRANCH  32  33
ENDBRANCH  31  32
ENDBRANCH  30  31
BRANCH  30  37
HETATM   37  C   UNK N   1      34.658  17.668   8.229  0.00  0.00     0.163 C 
HETATM   38  O   UNK N   1      35.195  18.399   9.047  0.00  0.00    -0.648 OA
BRANCH  37  39
HETATM   39  O   UNK N   1      34.489  18.101   6.964  0.00  0.00    -0.775 OA
HETATM   40  H   UNK N   1      34.218  18.937   6.639  0.00  0.00     0.167 HD
ENDBRANCH  37  39
ENDBRANCH  30  37
ENDBRANCH  27  30
ENDBRANCH   6  26
TORSDOF 12
ENDMDL
MODEL 9
REMARK VINA RESULT:      -7.3      3.388     10.233
REMARK  12 active torsions:
REMARK  status: ('A' for Active; 'I' for Inactive)
REMARK    1  A    between atoms: C_6  and  C_3 
REMARK    2  A    between atoms: C_10  and  C_3 
REMARK    3  A    between atoms: C_12  and  C_6 
REMARK    4  A    between atoms: C_8  and  C_7 
REMARK    5  A    between atoms: C_13  and  C_7 
REMARK    6  A    between atoms: C_14  and  C_8 
REMARK    7  A    between atoms: C_17  and  C_11 
REMARK    8  A    between atoms: C_19  and  C_13 
REMARK    9  A    between atoms: C_13  and  N_24 
REMARK   10  A    between atoms: O_29  and  C_14 
REMARK       I    between atoms: N_24  and  C_17 
REMARK   11  A    between atoms: O_31  and  C_18 
REMARK   12  A    between atoms: O_33  and  C_19 
ROOT
HETATM    1  C   UNK N   1      24.071  18.619   4.040  0.00  0.00     0.008 A 
HETATM    2  C   UNK N   1      25.007  20.522   2.874  0.00  0.00     0.008 A 
HETATM    3  C   UNK N   1      25.351  18.219   4.428  0.00  0.00     0.017 A 
HETATM    4  C   UNK N   1      26.279  20.138   3.285  0.00  0.00     0.017 A 
HETATM    5  C   UNK N   1      23.900  19.781   3.280  0.00  0.00    -0.058 A 
HETATM    6  C   UNK N   1      26.461  18.981   4.051  0.00  0.00     0.032 A 
ENDROOT
BRANCH   5   7
HETATM    7  C   UNK N   1      22.535  20.322   3.077  0.00  0.00     0.043 C 
BRANCH   7   8
HETATM    8  C   UNK N   1      21.470  19.457   3.700  0.00  0.00     0.045 C 
BRANCH   8   9
HETATM    9  C   UNK N   1      20.863  18.644   2.610  0.00  0.00    -0.024 A 
HETATM   10  C   UNK N   1      20.547  19.094   1.332  0.00  0.00     0.098 A 
HETATM   11  N   UNK N   1      20.011  18.075   0.613  0.00  0.00    -0.350 N 
HETATM   12  C   UNK N   1      19.995  17.012   1.439  0.00  0.00     0.136 A 
HETATM   13  H   UNK N   1      19.698  18.106  -0.319  0.00  0.00     0.166 HD
HETATM   14  C   UNK N   1      20.500  17.317   2.659  0.00  0.00     0.067 A 
HETATM   15  N   UNK N   1      19.546  15.772   1.133  0.00  0.00    -0.176 N 
HETATM   16  C   UNK N   1      20.558  16.334   3.644  0.00  0.00     0.170 A 
HETATM   17  N   UNK N   1      20.103  15.086   3.338  0.00  0.00    -0.170 N 
HETATM   18  C   UNK N   1      19.603  14.800   2.094  0.00  0.00     0.679 A 
ATOM     19  HN  UNK N   1      20.135  14.353   4.046  1.00  0.00     0.186 HD
HETATM   20  N   UNK N   1      19.195  13.619   1.830  0.00  0.00    -0.234 N 
HETATM   21  H   UNK N   1      18.900  13.388   0.919  0.00  0.00     0.174 HD
ATOM     22  HN  UNK N   1      19.174  12.913   2.566  1.00  0.00     0.174 HD
HETATM   23  H   UNK N   1      19.185  15.574   0.238  0.00  0.00     0.186 HD
BRANCH  16  24
HETATM   24  O   UNK N   1      21.049  16.590   4.868  0.00  0.00    -0.345 OA
HETATM   25  H   UNK N   1      20.538  17.049   5.504  0.00  0.00     0.219 HD
ENDBRANCH  16  24
ENDBRANCH   8   9
ENDBRANCH   7   8
ENDBRANCH   5   7
BRANCH   6  26
HETATM   26  C   UNK N   1      27.661  18.900   4.874  0.00  0.00     0.252 C 
HETATM   27  N   UNK N   1      28.510  17.841   4.831  0.00  0.00    -0.343 N 
HETATM   28  H   UNK N   1      28.354  17.118   4.180  0.00  0.00     0.163 HD
HETATM   29  O   UNK N   1      27.885  19.838   5.624  0.00  0.00    -0.268 OA
BRANCH  27  30
HETATM   30  C   UNK N   1      29.645  17.764   5.735  0.00  0.00     0.183 C 
BRANCH  30  31
HETATM   31  C   UNK N   1      29.279  16.866   6.910  0.00  0.00     0.046 C 
BRANCH  31  32
HETATM   32  C   UNK N   1      29.463  17.604   8.227  0.00  0.00     0.112 C 
BRANCH  32  33
HETATM   33  C   UNK N   1      28.135  17.930   8.819  0.00  0.00     0.139 C 
HETATM   34  O   UNK N   1      27.605  17.147   9.589  0.00  0.00    -0.650 OA
BRANCH  33  35
HETATM   35  O   UNK N   1      27.529  19.097   8.524  0.00  0.00    -0.776 OA
HETATM   36  H   UNK N   1      27.902  19.682   7.895  0.00  0.00     0.167 HD
ENDBRANCH  33  35
ENDBRANCH  32  33
ENDBRANCH  31  32
ENDBRANCH  30  31
BRANCH  30  37
HETATM   37  C   UNK N   1      30.883  17.328   4.992  0.00  0.00     0.163 C 
HETATM   38  O   UNK N   1      31.462  16.308   5.334  0.00  0.00    -0.648 OA
BRANCH  37  39
HETATM   39  O   UNK N   1      31.339  18.025   3.933  0.00  0.00    -0.775 OA
HETATM   40  H   UNK N   1      31.530  18.938   3.842  0.00  0.00     0.167 HD
ENDBRANCH  37  39
ENDBRANCH  30  37
ENDBRANCH  27  30
ENDBRANCH   6  26
TORSDOF 12
ENDMDL
