MODEL 1
REMARK VINA RESULT:      -7.7      0.000      0.000
REMARK  8 active torsions:
REMARK  status: ('A' for Active; 'I' for Inactive)
REMARK    1  A    between atoms: C_1  and  O_30 
REMARK    2  A    between atoms: C_11  and  C_8 
REMARK    3  A    between atoms: C_15  and  O_38 
REMARK    4  A    between atoms: C_28  and  C_17 
REMARK    5  A    between atoms: C_18  and  O_40 
REMARK    6  A    between atoms: C_20  and  O_41 
REMARK    7  A    between atoms: C_23  and  C_49 
REMARK    8  A    between atoms: C_27  and  O_43 
ROOT
HETATM    1  C   UNK N   1      31.389  11.439   4.307  0.00  0.00     0.238 C 
HETATM    2  C   UNK N   1      30.223  10.835   3.535  0.00  0.00     0.278 C 
HETATM    3  C   UNK N   1      28.840  10.908   4.026  0.00  0.00     0.296 C 
HETATM    4  N   UNK N   1      27.842  10.335   3.293  0.00  0.00    -0.331 N 
HETATM    5  O   UNK N   1      31.048  12.773   4.749  0.00  0.00    -0.338 OA
HETATM    6  O   UNK N   1      26.691  13.108   4.207  0.00  0.00    -0.309 OA
HETATM    7  C   UNK N   1      26.904  12.621   2.954  0.00  0.00     0.282 C 
HETATM    8  C   UNK N   1      26.322  14.397   4.560  0.00  0.00     0.166 C 
HETATM    9  C   UNK N   1      32.107  13.733   4.657  0.00  0.00     0.183 C 
HETATM   10  C   UNK N   1      26.753  11.130   2.706  0.00  0.00     0.187 C 
HETATM   11  C   UNK N   1      27.420  15.058   5.410  0.00  0.00     0.044 C 
HETATM   12  C   UNK N   1      32.669  11.401   3.412  0.00  0.00     0.055 C 
HETATM   13  C   UNK N   1      27.450  18.402   5.392  0.00  0.00     0.137 C 
HETATM   14  C   UNK N   1      26.897  16.152   6.355  0.00  0.00     0.131 C 
HETATM   15  C   UNK N   1      26.357  17.409   5.678  0.00  0.00     0.111 C 
HETATM   16  C   UNK N   1      33.469  13.128   5.060  0.00  0.00     0.153 C 
HETATM   17  C   UNK N   1      29.108  17.810   7.087  0.00  0.00    -0.012 C 
HETATM   18  C   UNK N   1      31.804  15.031   5.466  0.00  0.00     0.152 C 
HETATM   19  C   UNK N   1      29.989  17.886   8.087  0.00  0.00    -0.086 C 
HETATM   20  C   UNK N   1      33.873  12.026   4.093  0.00  0.00     0.044 C 
HETATM   21  C   UNK N   1      28.318  18.948   6.499  0.00  0.00     0.078 C 
HETATM   22  O   UNK N   1      30.399  10.398   2.403  0.00  0.00    -0.281 OA
HETATM   23  O   UNK N   1      28.581  11.681   4.942  0.00  0.00    -0.264 OA
HETATM   24  O   UNK N   1      27.223  13.371   2.038  0.00  0.00    -0.263 OA
HETATM   25  C   UNK N   1      31.692  14.916   7.005  0.00  0.00     0.039 C 
HETATM   26  O   UNK N   1      27.618  18.794   4.250  0.00  0.00    -0.297 OA
HETATM   27  C   UNK N   1      30.632  16.623   8.566  0.00  0.00     0.037 C 
HETATM   28  C   UNK N   1      31.827  16.280   7.695  0.00  0.00    -0.012 C 
HETATM   29  C   UNK N   1      27.991   8.943   2.877  0.00  0.00     0.127 C 
HETATM   30  C   UNK N   1      28.676  15.450   4.646  0.00  0.00     0.015 C 
HETATM   31  C   UNK N   1      26.775  10.921   1.176  0.00  0.00     0.035 C 
HETATM   32  C   UNK N   1      33.062  10.014   2.923  0.00  0.00     0.016 C 
HETATM   33  C   UNK N   1      30.295  19.179   8.773  0.00  0.00     0.043 C 
HETATM   34  C   UNK N   1      33.078  16.305   8.550  0.00  0.00     0.010 C 
HETATM   35  C   UNK N   1      27.982   8.786   1.367  0.00  0.00     0.020 C 
HETATM   36  C   UNK N   1      26.741   9.449   0.805  0.00  0.00     0.004 C 
ENDROOT
BRANCH   8  37
HETATM   37  C   UNK N   1      25.767  15.185   3.371  0.00  0.00    -0.058 C 
HETATM   38  C   UNK N   1      24.492  15.010   2.984  0.00  0.00    -0.017 C 
HETATM   39  C   UNK N   1      26.652  16.010   2.494  0.00  0.00     0.046 C 
BRANCH  38  40
HETATM   40  C   UNK N   1      23.464  14.263   3.808  0.00  0.00     0.011 C 
HETATM   41  C   UNK N   1      22.749  15.266   4.728  0.00  0.00     0.042 C 
HETATM   42  C   UNK N   1      22.091  16.409   3.921  0.00  0.00     0.139 C 
HETATM   43  C   UNK N   1      21.685  15.962   2.505  0.00  0.00     0.111 C 
HETATM   44  C   UNK N   1      21.272  14.496   2.462  0.00  0.00     0.023 C 
HETATM   45 Cl   UNK N   1      20.421  17.011   1.829  0.00  0.00    -0.122 Cl
HETATM   46  C   UNK N   1      22.426  13.581   2.906  0.00  0.00     0.010 C 
BRANCH  42  47
HETATM   47  O   UNK N   1      22.985  17.480   3.809  0.00  0.00    -0.389 OA
HETATM   48  C   UNK N   1      22.758  18.277   4.929  0.00  0.00     0.202 C 
ENDBRANCH  42  47
ENDBRANCH  38  40
ENDBRANCH   8  37
BRANCH  14  49
HETATM   49  O   UNK N   1      25.935  15.632   7.224  0.00  0.00    -0.395 OA
HETATM   50  H   UNK N   1      25.633  15.056   7.942  0.00  0.00     0.210 HD
ENDBRANCH  14  49
BRANCH  21  51
HETATM   51  C   UNK N   1      27.453  19.620   7.565  0.00  0.00     0.011 C 
HETATM   52  C   UNK N   1      26.808  20.884   7.023  0.00  0.00     0.006 C 
ENDBRANCH  21  51
BRANCH   1  53
HETATM   53  O   UNK N   1      31.591  10.644   5.438  0.00  0.00    -0.359 OA
HETATM   54  H   UNK N   1      31.863  10.468   6.352  0.00  0.00     0.213 HD
ENDBRANCH   1  53
BRANCH  18  55
HETATM   55  O   UNK N   1      32.543  16.156   5.016  0.00  0.00    -0.388 OA
HETATM   56  C   UNK N   1      32.213  16.446   3.683  0.00  0.00     0.202 C 
ENDBRANCH  18  55
BRANCH  16  57
HETATM   57  O   UNK N   1      33.409  12.605   6.357  0.00  0.00    -0.388 OA
HETATM   58  C   UNK N   1      34.715  12.674   6.844  0.00  0.00     0.202 C 
ENDBRANCH  16  57
TORSDOF 8
ENDMDL
MODEL 2
REMARK VINA RESULT:      -7.0      2.037      3.774
REMARK  8 active torsions:
REMARK  status: ('A' for Active; 'I' for Inactive)
REMARK    1  A    between atoms: C_1  and  O_30 
REMARK    2  A    between atoms: C_11  and  C_8 
REMARK    3  A    between atoms: C_15  and  O_38 
REMARK    4  A    between atoms: C_28  and  C_17 
REMARK    5  A    between atoms: C_18  and  O_40 
REMARK    6  A    between atoms: C_20  and  O_41 
REMARK    7  A    between atoms: C_23  and  C_49 
REMARK    8  A    between atoms: C_27  and  O_43 
ROOT
HETATM    1  C   UNK N   1      34.094  12.850   5.884  0.00  0.00     0.238 C 
HETATM    2  C   UNK N   1      33.741  11.629   5.046  0.00  0.00     0.278 C 
HETATM    3  C   UNK N   1      32.417  10.995   5.109  0.00  0.00     0.296 C 
HETATM    4  N   UNK N   1      32.168   9.895   4.342  0.00  0.00    -0.331 N 
HETATM    5  O   UNK N   1      33.031  13.827   5.802  0.00  0.00    -0.338 OA
HETATM    6  O   UNK N   1      29.606  11.684   4.050  0.00  0.00    -0.309 OA
HETATM    7  C   UNK N   1      30.482  11.251   3.102  0.00  0.00     0.282 C 
HETATM    8  C   UNK N   1      28.575  12.598   3.893  0.00  0.00     0.166 C 
HETATM    9  C   UNK N   1      33.462  15.189   5.713  0.00  0.00     0.183 C 
HETATM   10  C   UNK N   1      31.153   9.900   3.278  0.00  0.00     0.187 C 
HETATM   11  C   UNK N   1      28.817  13.839   4.767  0.00  0.00     0.044 C 
HETATM   12  C   UNK N   1      35.475  13.411   5.414  0.00  0.00     0.055 C 
HETATM   13  C   UNK N   1      27.286  16.638   3.765  0.00  0.00     0.137 C 
HETATM   14  C   UNK N   1      27.529  14.574   5.171  0.00  0.00     0.131 C 
HETATM   15  C   UNK N   1      26.769  15.251   4.033  0.00  0.00     0.111 C 
HETATM   16  C   UNK N   1      34.676  15.469   6.624  0.00  0.00     0.153 C 
HETATM   17  C   UNK N   1      28.238  17.235   5.935  0.00  0.00    -0.012 C 
HETATM   18  C   UNK N   1      32.306  16.198   5.990  0.00  0.00     0.152 C 
HETATM   19  C   UNK N   1      28.523  17.889   7.064  0.00  0.00    -0.086 C 
HETATM   20  C   UNK N   1      35.883  14.661   6.171  0.00  0.00     0.044 C 
HETATM   21  C   UNK N   1      27.301  17.688   4.848  0.00  0.00     0.078 C 
HETATM   22  O   UNK N   1      34.518  11.231   4.184  0.00  0.00    -0.281 OA
HETATM   23  O   UNK N   1      31.499  11.602   5.650  0.00  0.00    -0.264 OA
HETATM   24  O   UNK N   1      30.736  11.945   2.124  0.00  0.00    -0.263 OA
HETATM   25  C   UNK N   1      31.682  16.216   7.405  0.00  0.00     0.039 C 
HETATM   26  O   UNK N   1      27.674  16.926   2.645  0.00  0.00    -0.297 OA
HETATM   27  C   UNK N   1      29.444  17.240   8.049  0.00  0.00     0.037 C 
HETATM   28  C   UNK N   1      30.889  17.503   7.668  0.00  0.00    -0.012 C 
HETATM   29  C   UNK N   1      33.096   8.769   4.413  0.00  0.00     0.127 C 
HETATM   30  C   UNK N   1      29.928  14.760   4.283  0.00  0.00     0.015 C 
HETATM   31  C   UNK N   1      31.852   9.565   1.943  0.00  0.00     0.035 C 
HETATM   32  C   UNK N   1      36.623  12.414   5.482  0.00  0.00     0.016 C 
HETATM   33  C   UNK N   1      27.902  19.210   7.390  0.00  0.00     0.043 C 
HETATM   34  C   UNK N   1      31.549  18.299   8.777  0.00  0.00     0.010 C 
HETATM   35  C   UNK N   1      33.738   8.462   3.073  0.00  0.00     0.020 C 
HETATM   36  C   UNK N   1      32.654   8.278   2.031  0.00  0.00     0.004 C 
ENDROOT
BRANCH   8  37
HETATM   37  C   UNK N   1      28.218  12.818   2.421  0.00  0.00    -0.058 C 
HETATM   38  C   UNK N   1      27.346  11.999   1.810  0.00  0.00    -0.017 C 
HETATM   39  C   UNK N   1      28.955  13.804   1.574  0.00  0.00     0.046 C 
BRANCH  38  40
HETATM   40  C   UNK N   1      26.476  11.004   2.550  0.00  0.00     0.011 C 
HETATM   41  C   UNK N   1      25.193  11.718   3.008  0.00  0.00     0.042 C 
HETATM   42  C   UNK N   1      24.433  12.343   1.816  0.00  0.00     0.139 C 
HETATM   43  C   UNK N   1      24.676  11.574   0.504  0.00  0.00     0.111 C 
HETATM   44  C   UNK N   1      24.877  10.083   0.741  0.00  0.00     0.023 C 
HETATM   45 Cl   UNK N   1      23.381  11.873  -0.674  0.00  0.00    -0.122 Cl
HETATM   46  C   UNK N   1      26.096   9.824   1.643  0.00  0.00     0.010 C 
BRANCH  42  47
HETATM   47  O   UNK N   1      24.848  13.668   1.636  0.00  0.00    -0.389 OA
HETATM   48  C   UNK N   1      23.721  14.450   1.880  0.00  0.00     0.202 C 
ENDBRANCH  42  47
ENDBRANCH  38  40
ENDBRANCH   8  37
BRANCH  14  49
HETATM   49  O   UNK N   1      26.672  13.718   5.867  0.00  0.00    -0.395 OA
HETATM   50  H   UNK N   1      25.803  13.417   6.171  0.00  0.00     0.210 HD
ENDBRANCH  14  49
BRANCH  21  51
HETATM   51  C   UNK N   1      25.891  17.901   5.397  0.00  0.00     0.011 C 
HETATM   52  C   UNK N   1      25.185  19.027   4.661  0.00  0.00     0.006 C 
ENDBRANCH  21  51
BRANCH   1  53
HETATM   53  O   UNK N   1      34.195  12.426   7.211  0.00  0.00    -0.359 OA
HETATM   54  H   UNK N   1      34.055  12.492   8.169  0.00  0.00     0.213 HD
ENDBRANCH   1  53
BRANCH  18  55
HETATM   55  O   UNK N   1      32.541  17.484   5.438  0.00  0.00    -0.388 OA
HETATM   56  C   UNK N   1      32.677  17.392   4.045  0.00  0.00     0.202 C 
ENDBRANCH  18  55
BRANCH  16  57
HETATM   57  O   UNK N   1      34.377  15.149   7.953  0.00  0.00    -0.388 OA
HETATM   58  C   UNK N   1      35.023  16.119   8.721  0.00  0.00     0.202 C 
ENDBRANCH  16  57
TORSDOF 8
ENDMDL
MODEL 3
REMARK VINA RESULT:      -7.0      2.480      7.097
REMARK  8 active torsions:
REMARK  status: ('A' for Active; 'I' for Inactive)
REMARK    1  A    between atoms: C_1  and  O_30 
REMARK    2  A    between atoms: C_11  and  C_8 
REMARK    3  A    between atoms: C_15  and  O_38 
REMARK    4  A    between atoms: C_28  and  C_17 
REMARK    5  A    between atoms: C_18  and  O_40 
REMARK    6  A    between atoms: C_20  and  O_41 
REMARK    7  A    between atoms: C_23  and  C_49 
REMARK    8  A    between atoms: C_27  and  O_43 
ROOT
HETATM    1  C   UNK N   1      30.548  16.398   4.090  0.00  0.00     0.238 C 
HETATM    2  C   UNK N   1      29.551  17.468   4.515  0.00  0.00     0.278 C 
HETATM    3  C   UNK N   1      28.326  17.742   3.751  0.00  0.00     0.296 C 
HETATM    4  N   UNK N   1      27.480  18.723   4.178  0.00  0.00    -0.331 N 
HETATM    5  O   UNK N   1      29.846  15.179   3.751  0.00  0.00    -0.338 OA
HETATM    6  O   UNK N   1      25.612  16.330   3.383  0.00  0.00    -0.309 OA
HETATM    7  C   UNK N   1      25.773  16.951   4.584  0.00  0.00     0.282 C 
HETATM    8  C   UNK N   1      24.886  15.179   3.118  0.00  0.00     0.166 C 
HETATM    9  C   UNK N   1      30.482  13.971   4.183  0.00  0.00     0.183 C 
HETATM   10  C   UNK N   1      26.105  18.433   4.611  0.00  0.00     0.187 C 
HETATM   11  C   UNK N   1      25.812  14.063   2.610  0.00  0.00     0.044 C 
HETATM   12  C   UNK N   1      31.601  16.199   5.227  0.00  0.00     0.055 C 
HETATM   13  C   UNK N   1      24.690  10.942   3.039  0.00  0.00     0.137 C 
HETATM   14  C   UNK N   1      25.106  13.031   1.714  0.00  0.00     0.131 C 
HETATM   15  C   UNK N   1      24.065  12.156   2.407  0.00  0.00     0.111 C 
HETATM   16  C   UNK N   1      32.014  14.033   4.010  0.00  0.00     0.153 C 
HETATM   17  C   UNK N   1      26.701  10.660   1.681  0.00  0.00    -0.012 C 
HETATM   18  C   UNK N   1      29.887  12.706   3.492  0.00  0.00     0.152 C 
HETATM   19  C   UNK N   1      27.652  10.128   0.909  0.00  0.00    -0.086 C 
HETATM   20  C   UNK N   1      32.610  15.113   4.901  0.00  0.00     0.044 C 
HETATM   21  C   UNK N   1      25.485   9.956   2.219  0.00  0.00     0.078 C 
HETATM   22  O   UNK N   1      29.681  18.031   5.597  0.00  0.00    -0.281 OA
HETATM   23  O   UNK N   1      27.969  16.932   2.902  0.00  0.00    -0.264 OA
HETATM   24  O   UNK N   1      25.664  16.323   5.631  0.00  0.00    -0.263 OA
HETATM   25  C   UNK N   1      30.072  12.562   1.962  0.00  0.00     0.039 C 
HETATM   26  O   UNK N   1      24.527  10.736   4.231  0.00  0.00    -0.297 OA
HETATM   27  C   UNK N   1      28.758  11.014   0.430  0.00  0.00     0.037 C 
HETATM   28  C   UNK N   1      29.840  11.121   1.488  0.00  0.00    -0.012 C 
HETATM   29  C   UNK N   1      28.028  20.051   4.445  0.00  0.00     0.127 C 
HETATM   30  C   UNK N   1      26.716  13.446   3.667  0.00  0.00     0.015 C 
HETATM   31  C   UNK N   1      25.950  18.905   6.073  0.00  0.00     0.035 C 
HETATM   32  C   UNK N   1      32.361  17.458   5.617  0.00  0.00     0.016 C 
HETATM   33  C   UNK N   1      27.603   8.700   0.467  0.00  0.00     0.043 C 
HETATM   34  C   UNK N   1      31.128  10.547   0.931  0.00  0.00     0.010 C 
HETATM   35  C   UNK N   1      27.829  20.481   5.886  0.00  0.00     0.020 C 
HETATM   36  C   UNK N   1      26.363  20.356   6.246  0.00  0.00     0.004 C 
ENDROOT
BRANCH   8  37
HETATM   37  C   UNK N   1      23.909  14.840   4.247  0.00  0.00    -0.058 C 
HETATM   38  C   UNK N   1      22.682  15.388   4.263  0.00  0.00    -0.017 C 
HETATM   39  C   UNK N   1      24.339  14.063   5.449  0.00  0.00     0.046 C 
BRANCH  38  40
HETATM   40  C   UNK N   1      22.086  16.137   3.089  0.00  0.00     0.011 C 
HETATM   41  C   UNK N   1      21.002  15.257   2.445  0.00  0.00     0.042 C 
HETATM   42  C   UNK N   1      19.910  14.862   3.464  0.00  0.00     0.139 C 
HETATM   43  C   UNK N   1      19.743  15.915   4.575  0.00  0.00     0.111 C 
HETATM   44  C   UNK N   1      20.015  17.327   4.073  0.00  0.00     0.023 C 
HETATM   45 Cl   UNK N   1      18.147  15.799   5.346  0.00  0.00    -0.122 Cl
HETATM   46  C   UNK N   1      21.454  17.460   3.543  0.00  0.00     0.010 C 
BRANCH  42  47
HETATM   47  O   UNK N   1      20.243  13.639   4.059  0.00  0.00    -0.389 OA
HETATM   48  C   UNK N   1      20.236  12.705   3.025  0.00  0.00     0.202 C 
ENDBRANCH  42  47
ENDBRANCH  38  40
ENDBRANCH   8  37
BRANCH  14  49
HETATM   49  O   UNK N   1      24.534  13.655   0.603  0.00  0.00    -0.395 OA
HETATM   50  H   UNK N   1      24.169  14.415   0.125  0.00  0.00     0.210 HD
ENDBRANCH  14  49
BRANCH  21  51
HETATM   51  C   UNK N   1      24.626   9.402   1.083  0.00  0.00     0.011 C 
HETATM   52  C   UNK N   1      23.642   8.368   1.600  0.00  0.00     0.006 C 
ENDBRANCH  21  51
BRANCH   1  53
HETATM   53  O   UNK N   1      31.190  16.865   2.941  0.00  0.00    -0.359 OA
HETATM   54  H   UNK N   1      31.299  16.996   1.986  0.00  0.00     0.213 HD
ENDBRANCH   1  53
BRANCH  18  55
HETATM   55  O   UNK N   1      30.112  11.511   4.223  0.00  0.00    -0.388 OA
HETATM   56  C   UNK N   1      28.897  11.015   4.718  0.00  0.00     0.202 C 
ENDBRANCH  18  55
BRANCH  16  57
HETATM   57  O   UNK N   1      32.348  14.298   2.677  0.00  0.00    -0.388 OA
HETATM   58  C   UNK N   1      33.738  14.416   2.661  0.00  0.00     0.202 C 
ENDBRANCH  16  57
TORSDOF 8
ENDMDL
MODEL 4
REMARK VINA RESULT:      -6.9      2.410      7.162
REMARK  8 active torsions:
REMARK  status: ('A' for Active; 'I' for Inactive)
REMARK    1  A    between atoms: C_1  and  O_30 
REMARK    2  A    between atoms: C_11  and  C_8 
REMARK    3  A    between atoms: C_15  and  O_38 
REMARK    4  A    between atoms: C_28  and  C_17 
REMARK    5  A    between atoms: C_18  and  O_40 
REMARK    6  A    between atoms: C_20  and  O_41 
REMARK    7  A    between atoms: C_23  and  C_49 
REMARK    8  A    between atoms: C_27  and  O_43 
ROOT
HETATM    1  C   UNK N   1      30.535  10.895   3.911  0.00  0.00     0.238 C 
HETATM    2  C   UNK N   1      31.095  12.186   4.493  0.00  0.00     0.278 C 
HETATM    3  C   UNK N   1      30.864  13.492   3.860  0.00  0.00     0.296 C 
HETATM    4  N   UNK N   1      31.404  14.611   4.425  0.00  0.00    -0.331 N 
HETATM    5  O   UNK N   1      29.145  11.078   3.556  0.00  0.00    -0.338 OA
HETATM    6  O   UNK N   1      28.478  15.429   3.642  0.00  0.00    -0.309 OA
HETATM    7  C   UNK N   1      29.080  15.403   4.862  0.00  0.00     0.282 C 
HETATM    8  C   UNK N   1      27.137  15.653   3.367  0.00  0.00     0.166 C 
HETATM    9  C   UNK N   1      28.292   9.966   3.849  0.00  0.00     0.183 C 
HETATM   10  C   UNK N   1      30.568  15.696   4.957  0.00  0.00     0.187 C 
HETATM   11  C   UNK N   1      26.508  14.416   2.706  0.00  0.00     0.044 C 
HETATM   12  C   UNK N   1      30.756   9.735   4.935  0.00  0.00     0.055 C 
HETATM   13  C   UNK N   1      23.192  14.130   3.026  0.00  0.00     0.137 C 
HETATM   14  C   UNK N   1      25.301  14.738   1.810  0.00  0.00     0.131 C 
HETATM   15  C   UNK N   1      24.060  15.256   2.533  0.00  0.00     0.111 C 
HETATM   16  C   UNK N   1      28.978   8.617   3.546  0.00  0.00     0.153 C 
HETATM   17  C   UNK N   1      23.788  12.336   1.479  0.00  0.00    -0.012 C 
HETATM   18  C   UNK N   1      26.912  10.071   3.131  0.00  0.00     0.152 C 
HETATM   19  C   UNK N   1      23.709  11.341   0.592  0.00  0.00    -0.086 C 
HETATM   20  C   UNK N   1      30.185   8.415   4.450  0.00  0.00     0.044 C 
HETATM   21  C   UNK N   1      22.636  13.099   2.075  0.00  0.00     0.078 C 
HETATM   22  O   UNK N   1      31.636  12.179   5.593  0.00  0.00    -0.281 OA
HETATM   23  O   UNK N   1      30.000  13.582   2.995  0.00  0.00    -0.264 OA
HETATM   24  O   UNK N   1      28.437  15.136   5.871  0.00  0.00    -0.263 OA
HETATM   25  C   UNK N   1      26.893  10.010   1.585  0.00  0.00     0.039 C 
HETATM   26  O   UNK N   1      22.909  14.067   4.211  0.00  0.00    -0.297 OA
HETATM   27  C   UNK N   1      24.981  10.745   0.076  0.00  0.00     0.037 C 
HETATM   28  C   UNK N   1      25.495   9.691   1.039  0.00  0.00    -0.012 C 
HETATM   29  C   UNK N   1      32.833  14.620   4.729  0.00  0.00     0.127 C 
HETATM   30  C   UNK N   1      26.289  13.232   3.636  0.00  0.00     0.015 C 
HETATM   31  C   UNK N   1      30.899  15.870   6.455  0.00  0.00     0.035 C 
HETATM   32  C   UNK N   1      32.207   9.510   5.338  0.00  0.00     0.016 C 
HETATM   33  C   UNK N   1      22.397  10.857   0.063  0.00  0.00     0.043 C 
HETATM   34  C   UNK N   1      25.510   8.349   0.333  0.00  0.00     0.010 C 
HETATM   35  C   UNK N   1      33.109  14.818   6.207  0.00  0.00     0.020 C 
HETATM   36  C   UNK N   1      32.388  16.061   6.687  0.00  0.00     0.004 C 
ENDROOT
BRANCH   8  37
HETATM   37  C   UNK N   1      26.401  16.282   4.553  0.00  0.00    -0.058 C 
HETATM   38  C   UNK N   1      26.551  17.590   4.822  0.00  0.00    -0.017 C 
HETATM   39  C   UNK N   1      25.665  15.448   5.551  0.00  0.00     0.046 C 
BRANCH  38  40
HETATM   40  C   UNK N   1      27.207  18.568   3.869  0.00  0.00     0.011 C 
HETATM   41  C   UNK N   1      26.147  19.572   3.388  0.00  0.00     0.042 C 
HETATM   42  C   UNK N   1      25.483  20.310   4.572  0.00  0.00     0.139 C 
HETATM   43  C   UNK N   1      26.425  20.432   5.783  0.00  0.00     0.111 C 
HETATM   44  C   UNK N   1      27.884  20.562   5.365  0.00  0.00     0.023 C 
HETATM   45 Cl   UNK N   1      25.937  21.761   6.856  0.00  0.00    -0.122 Cl
HETATM   46  C   UNK N   1      28.343  19.333   4.563  0.00  0.00     0.010 C 
BRANCH  42  47
HETATM   47  O   UNK N   1      24.333  19.618   4.972  0.00  0.00    -0.389 OA
HETATM   48  C   UNK N   1      23.582  19.437   3.812  0.00  0.00     0.202 C 
ENDBRANCH  42  47
ENDBRANCH  38  40
ENDBRANCH   8  37
BRANCH  14  49
HETATM   49  O   UNK N   1      25.664  15.629   0.798  0.00  0.00    -0.395 OA
HETATM   50  H   UNK N   1      25.810  15.883  -0.126  0.00  0.00     0.210 HD
ENDBRANCH  14  49
BRANCH  21  51
HETATM   51  C   UNK N   1      21.808  13.778   0.985  0.00  0.00     0.011 C 
HETATM   52  C   UNK N   1      20.357  13.916   1.411  0.00  0.00     0.006 C 
ENDBRANCH  21  51
BRANCH   1  53
HETATM   53  O   UNK N   1      31.252  10.624   2.743  0.00  0.00    -0.359 OA
HETATM   54  H   UNK N   1      31.396  10.605   1.784  0.00  0.00     0.213 HD
ENDBRANCH   1  53
BRANCH  18  55
HETATM   55  O   UNK N   1      25.895   9.305   3.758  0.00  0.00    -0.388 OA
HETATM   56  C   UNK N   1      25.498   9.922   4.955  0.00  0.00     0.202 C 
ENDBRANCH  18  55
BRANCH  16  57
HETATM   57  O   UNK N   1      29.388   8.565   2.209  0.00  0.00    -0.388 OA
HETATM   58  C   UNK N   1      30.024   7.331   2.066  0.00  0.00     0.202 C 
ENDBRANCH  16  57
TORSDOF 8
ENDMDL
MODEL 5
REMARK VINA RESULT:      -6.8      2.392      7.076
REMARK  8 active torsions:
REMARK  status: ('A' for Active; 'I' for Inactive)
REMARK    1  A    between atoms: C_1  and  O_30 
REMARK    2  A    between atoms: C_11  and  C_8 
REMARK    3  A    between atoms: C_15  and  O_38 
REMARK    4  A    between atoms: C_28  and  C_17 
REMARK    5  A    between atoms: C_18  and  O_40 
REMARK    6  A    between atoms: C_20  and  O_41 
REMARK    7  A    between atoms: C_23  and  C_49 
REMARK    8  A    between atoms: C_27  and  O_43 
ROOT
HETATM    1  C   UNK N   1      28.957  17.402   5.439  0.00  0.00     0.238 C 
HETATM    2  C   UNK N   1      27.479  17.485   5.080  0.00  0.00     0.278 C 
HETATM    3  C   UNK N   1      26.973  17.085   3.759  0.00  0.00     0.296 C 
HETATM    4  N   UNK N   1      25.639  17.196   3.496  0.00  0.00    -0.331 N 
HETATM    5  O   UNK N   1      29.491  16.123   5.027  0.00  0.00    -0.338 OA
HETATM    6  O   UNK N   1      26.467  14.404   2.328  0.00  0.00    -0.309 OA
HETATM    7  C   UNK N   1      25.563  14.711   3.297  0.00  0.00     0.282 C 
HETATM    8  C   UNK N   1      26.908  13.144   1.952  0.00  0.00     0.166 C 
HETATM    9  C   UNK N   1      30.413  15.526   5.946  0.00  0.00     0.183 C 
HETATM   10  C   UNK N   1      24.801  16.023   3.207  0.00  0.00     0.187 C 
HETATM   11  C   UNK N   1      28.415  12.999   2.215  0.00  0.00     0.044 C 
HETATM   12  C   UNK N   1      29.126  17.670   6.969  0.00  0.00     0.055 C 
HETATM   13  C   UNK N   1      29.527   9.868   2.593  0.00  0.00     0.137 C 
HETATM   14  C   UNK N   1      29.109  11.977   1.300  0.00  0.00     0.131 C 
HETATM   15  C   UNK N   1      28.708  10.520   1.513  0.00  0.00     0.111 C 
HETATM   16  C   UNK N   1      31.357  16.572   6.576  0.00  0.00     0.153 C 
HETATM   17  C   UNK N   1      31.567  11.212   2.542  0.00  0.00    -0.012 C 
HETATM   18  C   UNK N   1      31.218  14.355   5.303  0.00  0.00     0.152 C 
HETATM   19  C   UNK N   1      32.850  11.577   2.486  0.00  0.00    -0.086 C 
HETATM   20  C   UNK N   1      30.571  17.562   7.421  0.00  0.00     0.044 C 
HETATM   21  C   UNK N   1      31.032   9.806   2.503  0.00  0.00     0.078 C 
HETATM   22  O   UNK N   1      26.652  17.756   5.944  0.00  0.00    -0.281 OA
HETATM   23  O   UNK N   1      27.706  16.438   3.020  0.00  0.00    -0.264 OA
HETATM   24  O   UNK N   1      25.371  13.948   4.237  0.00  0.00    -0.263 OA
HETATM   25  C   UNK N   1      32.188  14.691   4.145  0.00  0.00     0.039 C 
HETATM   26  O   UNK N   1      28.962   9.356   3.546  0.00  0.00    -0.297 OA
HETATM   27  C   UNK N   1      33.175  13.037   2.483  0.00  0.00     0.037 C 
HETATM   28  C   UNK N   1      33.207  13.570   3.904  0.00  0.00    -0.012 C 
HETATM   29  C   UNK N   1      24.981  18.476   3.747  0.00  0.00     0.127 C 
HETATM   30  C   UNK N   1      28.804  12.879   3.681  0.00  0.00     0.015 C 
HETATM   31  C   UNK N   1      23.674  15.964   4.261  0.00  0.00     0.035 C 
HETATM   32  C   UNK N   1      28.574  19.006   7.445  0.00  0.00     0.016 C 
HETATM   33  C   UNK N   1      33.952  10.573   2.363  0.00  0.00     0.043 C 
HETATM   34  C   UNK N   1      34.606  14.069   4.208  0.00  0.00     0.010 C 
HETATM   35  C   UNK N   1      23.866  18.363   4.769  0.00  0.00     0.020 C 
HETATM   36  C   UNK N   1      22.906  17.272   4.342  0.00  0.00     0.004 C 
ENDROOT
BRANCH   8  37
HETATM   37  C   UNK N   1      25.984  12.034   2.461  0.00  0.00    -0.058 C 
HETATM   38  C   UNK N   1      24.840  11.761   1.811  0.00  0.00    -0.017 C 
HETATM   39  C   UNK N   1      26.212  11.364   3.776  0.00  0.00     0.046 C 
BRANCH  38  40
HETATM   40  C   UNK N   1      24.508  12.307   0.438  0.00  0.00     0.011 C 
HETATM   41  C   UNK N   1      23.709  11.244  -0.334  0.00  0.00     0.042 C 
HETATM   42  C   UNK N   1      22.428  10.832   0.424  0.00  0.00     0.139 C 
HETATM   43  C   UNK N   1      21.886  11.969   1.311  0.00  0.00     0.111 C 
HETATM   44  C   UNK N   1      22.157  13.343   0.712  0.00  0.00     0.023 C 
HETATM   45 Cl   UNK N   1      20.161  11.748   1.670  0.00  0.00    -0.122 Cl
HETATM   46  C   UNK N   1      23.667  13.587   0.543  0.00  0.00     0.010 C 
BRANCH  42  47
HETATM   47  O   UNK N   1      22.698   9.726   1.239  0.00  0.00    -0.389 OA
HETATM   48  C   UNK N   1      23.149   8.728   0.377  0.00  0.00     0.202 C 
ENDBRANCH  42  47
ENDBRANCH  38  40
ENDBRANCH   8  37
BRANCH  14  49
HETATM   49  O   UNK N   1      28.937  12.323  -0.042  0.00  0.00    -0.395 OA
HETATM   50  H   UNK N   1      28.731  12.939  -0.762  0.00  0.00     0.210 HD
ENDBRANCH  14  49
BRANCH  21  51
HETATM   51  C   UNK N   1      31.454   9.097   1.217  0.00  0.00     0.011 C 
HETATM   52  C   UNK N   1      31.586   7.600   1.440  0.00  0.00     0.006 C 
ENDBRANCH  21  51
BRANCH   1  53
HETATM   53  O   UNK N   1      29.614  18.401   4.718  0.00  0.00    -0.359 OA
HETATM   54  H   UNK N   1      30.024  18.794   3.931  0.00  0.00     0.213 HD
ENDBRANCH   1  53
BRANCH  18  55
HETATM   55  O   UNK N   1      31.741  13.445   6.258  0.00  0.00    -0.388 OA
HETATM   56  C   UNK N   1      32.418  14.145   7.268  0.00  0.00     0.202 C 
ENDBRANCH  18  55
BRANCH  16  57
HETATM   57  O   UNK N   1      32.056  17.265   5.581  0.00  0.00    -0.388 OA
HETATM   58  C   UNK N   1      33.299  17.563   6.141  0.00  0.00     0.202 C 
ENDBRANCH  16  57
TORSDOF 8
ENDMDL
MODEL 6
REMARK VINA RESULT:      -6.8      8.571     12.938
REMARK  8 active torsions:
REMARK  status: ('A' for Active; 'I' for Inactive)
REMARK    1  A    between atoms: C_1  and  O_30 
REMARK    2  A    between atoms: C_11  and  C_8 
REMARK    3  A    between atoms: C_15  and  O_38 
REMARK    4  A    between atoms: C_28  and  C_17 
REMARK    5  A    between atoms: C_18  and  O_40 
REMARK    6  A    between atoms: C_20  and  O_41 
REMARK    7  A    between atoms: C_23  and  C_49 
REMARK    8  A    between atoms: C_27  and  O_43 
ROOT
HETATM    1  C   UNK N   1      38.364   5.848  11.715  0.00  0.00     0.238 C 
HETATM    2  C   UNK N   1      38.077   6.380  10.317  0.00  0.00     0.278 C 
HETATM    3  C   UNK N   1      36.830   7.087   9.992  0.00  0.00     0.296 C 
HETATM    4  N   UNK N   1      36.628   7.528   8.717  0.00  0.00    -0.331 N 
HETATM    5  O   UNK N   1      38.051   6.860  12.700  0.00  0.00    -0.338 OA
HETATM    6  O   UNK N   1      35.695   9.896  10.552  0.00  0.00    -0.309 OA
HETATM    7  C   UNK N   1      36.676   9.856   9.610  0.00  0.00     0.282 C 
HETATM    8  C   UNK N   1      35.422  10.923  11.443  0.00  0.00     0.166 C 
HETATM    9  C   UNK N   1      38.973   6.950  13.792  0.00  0.00     0.183 C 
HETATM   10  C   UNK N   1      36.500   8.958   8.398  0.00  0.00     0.187 C 
HETATM   11  C   UNK N   1      35.617  10.446  12.892  0.00  0.00     0.044 C 
HETATM   12  C   UNK N   1      39.849   5.368  11.784  0.00  0.00     0.055 C 
HETATM   13  C   UNK N   1      36.239  12.845  15.136  0.00  0.00     0.137 C 
HETATM   14  C   UNK N   1      34.770  11.216  13.918  0.00  0.00     0.131 C 
HETATM   15  C   UNK N   1      35.145  12.682  14.117  0.00  0.00     0.111 C 
HETATM   16  C   UNK N   1      39.448   5.559  14.262  0.00  0.00     0.153 C 
HETATM   17  C   UNK N   1      35.950  10.834  16.493  0.00  0.00    -0.012 C 
HETATM   18  C   UNK N   1      38.406   7.784  14.981  0.00  0.00     0.152 C 
HETATM   19  C   UNK N   1      35.790  10.012  17.533  0.00  0.00    -0.086 C 
HETATM   20  C   UNK N   1      40.233   4.861  13.162  0.00  0.00     0.044 C 
HETATM   21  C   UNK N   1      36.075  12.332  16.546  0.00  0.00     0.078 C 
HETATM   22  O   UNK N   1      38.953   6.356   9.460  0.00  0.00    -0.281 OA
HETATM   23  O   UNK N   1      36.119   7.480  10.911  0.00  0.00    -0.264 OA
HETATM   24  O   UNK N   1      37.695  10.526   9.740  0.00  0.00    -0.263 OA
HETATM   25  C   UNK N   1      37.171   7.230  15.731  0.00  0.00     0.039 C 
HETATM   26  O   UNK N   1      37.265  13.427  14.826  0.00  0.00    -0.297 OA
HETATM   27  C   UNK N   1      35.628   8.549  17.265  0.00  0.00     0.037 C 
HETATM   28  C   UNK N   1      36.987   7.892  17.103  0.00  0.00    -0.012 C 
HETATM   29  C   UNK N   1      36.788   6.581   7.617  0.00  0.00     0.127 C 
HETATM   30  C   UNK N   1      37.065  10.245  13.312  0.00  0.00     0.015 C 
HETATM   31  C   UNK N   1      37.613   9.330   7.394  0.00  0.00     0.035 C 
HETATM   32  C   UNK N   1      40.222   4.304  10.761  0.00  0.00     0.016 C 
HETATM   33  C   UNK N   1      35.707  10.521  18.937  0.00  0.00     0.043 C 
HETATM   34  C   UNK N   1      37.166   6.862  18.202  0.00  0.00     0.010 C 
HETATM   35  C   UNK N   1      37.874   7.001   6.644  0.00  0.00     0.020 C 
HETATM   36  C   UNK N   1      37.606   8.418   6.179  0.00  0.00     0.004 C 
ENDROOT
BRANCH   8  37
HETATM   37  C   UNK N   1      36.083  12.239  11.029  0.00  0.00    -0.058 C 
HETATM   38  C   UNK N   1      35.523  13.004  10.077  0.00  0.00    -0.017 C 
HETATM   39  C   UNK N   1      37.446  12.619  11.511  0.00  0.00     0.046 C 
BRANCH  38  40
HETATM   40  C   UNK N   1      34.120  12.785   9.548  0.00  0.00     0.011 C 
HETATM   41  C   UNK N   1      33.451  14.154   9.348  0.00  0.00     0.042 C 
HETATM   42  C   UNK N   1      34.270  15.055   8.395  0.00  0.00     0.139 C 
HETATM   43  C   UNK N   1      35.080  14.235   7.374  0.00  0.00     0.111 C 
HETATM   44  C   UNK N   1      34.372  12.945   6.982  0.00  0.00     0.023 C 
HETATM   45 Cl   UNK N   1      35.496  15.205   5.946  0.00  0.00    -0.122 Cl
HETATM   46  C   UNK N   1      34.149  12.040   8.206  0.00  0.00     0.010 C 
BRANCH  42  47
HETATM   47  O   UNK N   1      35.159  15.840   9.139  0.00  0.00    -0.389 OA
HETATM   48  C   UNK N   1      34.606  17.119   9.153  0.00  0.00     0.202 C 
ENDBRANCH  42  47
ENDBRANCH  38  40
ENDBRANCH   8  37
BRANCH  14  49
HETATM   49  O   UNK N   1      33.412  11.113  13.611  0.00  0.00    -0.395 OA
HETATM   50  H   UNK N   1      32.661  11.043  13.002  0.00  0.00     0.210 HD
ENDBRANCH  14  49
BRANCH  21  51
HETATM   51  C   UNK N   1      34.844  12.962  17.197  0.00  0.00     0.011 C 
HETATM   52  C   UNK N   1      35.236  14.125  18.090  0.00  0.00     0.006 C 
ENDBRANCH  21  51
BRANCH   1  53
HETATM   53  O   UNK N   1      37.515   4.759  11.924  0.00  0.00    -0.359 OA
HETATM   54  H   UNK N   1      37.047   3.947  11.673  0.00  0.00     0.213 HD
ENDBRANCH   1  53
BRANCH  18  55
HETATM   55  O   UNK N   1      39.416   8.311  15.827  0.00  0.00    -0.388 OA
HETATM   56  C   UNK N   1      40.431   8.897  15.056  0.00  0.00     0.202 C 
ENDBRANCH  18  55
BRANCH  16  57
HETATM   57  O   UNK N   1      38.354   4.764  14.625  0.00  0.00    -0.388 OA
HETATM   58  C   UNK N   1      38.899   3.534  14.995  0.00  0.00     0.202 C 
ENDBRANCH  16  57
TORSDOF 8
ENDMDL
MODEL 7
REMARK VINA RESULT:      -6.6      4.324      9.482
REMARK  8 active torsions:
REMARK  status: ('A' for Active; 'I' for Inactive)
REMARK    1  A    between atoms: C_1  and  O_30 
REMARK    2  A    between atoms: C_11  and  C_8 
REMARK    3  A    between atoms: C_15  and  O_38 
REMARK    4  A    between atoms: C_28  and  C_17 
REMARK    5  A    between atoms: C_18  and  O_40 
REMARK    6  A    between atoms: C_20  and  O_41 
REMARK    7  A    between atoms: C_23  and  C_49 
REMARK    8  A    between atoms: C_27  and  O_43 
ROOT
HETATM    1  C   UNK N   1      33.687  15.268   9.148  0.00  0.00     0.238 C 
HETATM    2  C   UNK N   1      34.590  14.074   9.427  0.00  0.00     0.278 C 
HETATM    3  C   UNK N   1      34.124  12.689   9.268  0.00  0.00     0.296 C 
HETATM    4  N   UNK N   1      34.979  11.663   9.547  0.00  0.00    -0.331 N 
HETATM    5  O   UNK N   1      32.994  15.078   7.893  0.00  0.00    -0.338 OA
HETATM    6  O   UNK N   1      33.553  10.830   6.879  0.00  0.00    -0.309 OA
HETATM    7  C   UNK N   1      34.873  11.039   7.135  0.00  0.00     0.282 C 
HETATM    8  C   UNK N   1      32.956  10.611   5.646  0.00  0.00     0.166 C 
HETATM    9  C   UNK N   1      32.868  16.253   7.084  0.00  0.00     0.183 C 
HETATM   10  C   UNK N   1      35.419  10.713   8.514  0.00  0.00     0.187 C 
HETATM   11  C   UNK N   1      31.967  11.741   5.318  0.00  0.00     0.044 C 
HETATM   12  C   UNK N   1      34.543  16.575   9.180  0.00  0.00     0.055 C 
HETATM   13  C   UNK N   1      31.312  12.194   2.070  0.00  0.00     0.137 C 
HETATM   14  C   UNK N   1      30.833  11.316   4.371  0.00  0.00     0.131 C 
HETATM   15  C   UNK N   1      31.255  10.972   2.945  0.00  0.00     0.111 C 
HETATM   16  C   UNK N   1      32.564  17.506   7.933  0.00  0.00     0.153 C 
HETATM   17  C   UNK N   1      29.735  13.681   3.199  0.00  0.00    -0.012 C 
HETATM   18  C   UNK N   1      31.821  16.078   5.942  0.00  0.00     0.152 C 
HETATM   19  C   UNK N   1      28.721  14.515   3.439  0.00  0.00    -0.086 C 
HETATM   20  C   UNK N   1      33.724  17.814   8.867  0.00  0.00     0.044 C 
HETATM   21  C   UNK N   1      30.100  13.070   1.873  0.00  0.00     0.078 C 
HETATM   22  O   UNK N   1      35.782  14.247   9.653  0.00  0.00    -0.281 OA
HETATM   23  O   UNK N   1      33.078  12.486   8.662  0.00  0.00    -0.264 OA
HETATM   24  O   UNK N   1      35.613  11.495   6.269  0.00  0.00    -0.263 OA
HETATM   25  C   UNK N   1      30.340  15.879   6.340  0.00  0.00     0.039 C 
HETATM   26  O   UNK N   1      32.349  12.466   1.488  0.00  0.00    -0.297 OA
HETATM   27  C   UNK N   1      28.492  14.970   4.846  0.00  0.00     0.037 C 
HETATM   28  C   UNK N   1      29.387  16.152   5.168  0.00  0.00    -0.012 C 
HETATM   29  C   UNK N   1      35.663  11.654  10.837  0.00  0.00     0.127 C 
HETATM   30  C   UNK N   1      32.609  13.072   4.955  0.00  0.00     0.015 C 
HETATM   31  C   UNK N   1      36.958  10.782   8.420  0.00  0.00     0.035 C 
HETATM   32  C   UNK N   1      35.291  16.812  10.484  0.00  0.00     0.016 C 
HETATM   33  C   UNK N   1      27.783  14.949   2.359  0.00  0.00     0.043 C 
HETATM   34  C   UNK N   1      28.517  17.354   5.478  0.00  0.00     0.010 C 
HETATM   35  C   UNK N   1      37.173  11.698  10.693  0.00  0.00     0.020 C 
HETATM   36  C   UNK N   1      37.618  10.580   9.773  0.00  0.00     0.004 C 
ENDROOT
BRANCH   8  37
HETATM   37  C   UNK N   1      33.974  10.217   4.573  0.00  0.00    -0.058 C 
HETATM   38  C   UNK N   1      34.345   8.933   4.435  0.00  0.00    -0.017 C 
HETATM   39  C   UNK N   1      34.726  11.245   3.790  0.00  0.00     0.046 C 
BRANCH  38  40
HETATM   40  C   UNK N   1      33.627   7.780   5.107  0.00  0.00     0.011 C 
HETATM   41  C   UNK N   1      32.489   7.308   4.188  0.00  0.00     0.042 C 
HETATM   42  C   UNK N   1      33.015   6.899   2.793  0.00  0.00     0.139 C 
HETATM   43  C   UNK N   1      34.466   6.388   2.847  0.00  0.00     0.111 C 
HETATM   44  C   UNK N   1      34.775   5.670   4.155  0.00  0.00     0.023 C 
HETATM   45 Cl   UNK N   1      34.849   5.368   1.444  0.00  0.00    -0.122 Cl
HETATM   46  C   UNK N   1      34.586   6.608   5.359  0.00  0.00     0.010 C 
BRANCH  42  47
HETATM   47  O   UNK N   1      32.964   8.000   1.930  0.00  0.00    -0.389 OA
HETATM   48  C   UNK N   1      31.906   7.745   1.059  0.00  0.00     0.202 C 
ENDBRANCH  42  47
ENDBRANCH  38  40
ENDBRANCH   8  37
BRANCH  14  49
HETATM   49  O   UNK N   1      30.108  10.255   4.917  0.00  0.00    -0.395 OA
HETATM   50  H   UNK N   1      29.930   9.316   5.081  0.00  0.00     0.210 HD
ENDBRANCH  14  49
BRANCH  21  51
HETATM   51  C   UNK N   1      28.940  12.248   1.313  0.00  0.00     0.011 C 
HETATM   52  C   UNK N   1      29.312  11.619  -0.018  0.00  0.00     0.006 C 
ENDBRANCH  21  51
BRANCH   1  53
HETATM   53  O   UNK N   1      32.735  15.313  10.169  0.00  0.00    -0.359 OA
HETATM   54  H   UNK N   1      31.845  15.229  10.546  0.00  0.00     0.213 HD
ENDBRANCH   1  53
BRANCH  18  55
HETATM   55  O   UNK N   1      32.020  16.974   4.859  0.00  0.00    -0.388 OA
HETATM   56  C   UNK N   1      33.123  16.566   4.094  0.00  0.00     0.202 C 
ENDBRANCH  18  55
BRANCH  16  57
HETATM   57  O   UNK N   1      31.400  17.318   8.687  0.00  0.00    -0.388 OA
HETATM   58  C   UNK N   1      30.812  18.580   8.778  0.00  0.00     0.202 C 
ENDBRANCH  16  57
TORSDOF 8
ENDMDL
MODEL 8
REMARK VINA RESULT:      -6.5      4.764     10.132
REMARK  8 active torsions:
REMARK  status: ('A' for Active; 'I' for Inactive)
REMARK    1  A    between atoms: C_1  and  O_30 
REMARK    2  A    between atoms: C_11  and  C_8 
REMARK    3  A    between atoms: C_15  and  O_38 
REMARK    4  A    between atoms: C_28  and  C_17 
REMARK    5  A    between atoms: C_18  and  O_40 
REMARK    6  A    between atoms: C_20  and  O_41 
REMARK    7  A    between atoms: C_23  and  C_49 
REMARK    8  A    between atoms: C_27  and  O_43 
ROOT
HETATM    1  C   UNK N   1      33.579  14.913   9.261  0.00  0.00     0.238 C 
HETATM    2  C   UNK N   1      34.432  13.715   9.656  0.00  0.00     0.278 C 
HETATM    3  C   UNK N   1      33.961  12.333   9.490  0.00  0.00     0.296 C 
HETATM    4  N   UNK N   1      34.768  11.304   9.877  0.00  0.00    -0.331 N 
HETATM    5  O   UNK N   1      33.006  14.698   7.950  0.00  0.00    -0.338 OA
HETATM    6  O   UNK N   1      33.590  10.417   7.107  0.00  0.00    -0.309 OA
HETATM    7  C   UNK N   1      34.883  10.614   7.483  0.00  0.00     0.282 C 
HETATM    8  C   UNK N   1      33.110  10.171   5.829  0.00  0.00     0.166 C 
HETATM    9  C   UNK N   1      32.978  15.852   7.103  0.00  0.00     0.183 C 
HETATM   10  C   UNK N   1      35.289  10.319   8.917  0.00  0.00     0.187 C 
HETATM   11  C   UNK N   1      32.176  11.305   5.377  0.00  0.00     0.044 C 
HETATM   12  C   UNK N   1      34.450  16.209   9.341  0.00  0.00     0.055 C 
HETATM   13  C   UNK N   1      31.842  11.678   2.071  0.00  0.00     0.137 C 
HETATM   14  C   UNK N   1      31.130  10.870   4.337  0.00  0.00     0.131 C 
HETATM   15  C   UNK N   1      31.681  10.481   2.969  0.00  0.00     0.111 C 
HETATM   16  C   UNK N   1      32.615  17.132   7.885  0.00  0.00     0.153 C 
HETATM   17  C   UNK N   1      30.189  13.217   3.004  0.00  0.00    -0.012 C 
HETATM   18  C   UNK N   1      32.042  15.661   5.870  0.00  0.00     0.152 C 
HETATM   19  C   UNK N   1      29.169  14.071   3.124  0.00  0.00    -0.086 C 
HETATM   20  C   UNK N   1      33.685  17.450   8.919  0.00  0.00     0.044 C 
HETATM   21  C   UNK N   1      30.668  12.565   1.736  0.00  0.00     0.078 C 
HETATM   22  O   UNK N   1      35.600  13.878   9.992  0.00  0.00    -0.281 OA
HETATM   23  O   UNK N   1      32.974  12.128   8.792  0.00  0.00    -0.264 OA
HETATM   24  O   UNK N   1      35.709  11.036   6.681  0.00  0.00    -0.263 OA
HETATM   25  C   UNK N   1      30.526  15.493   6.130  0.00  0.00     0.039 C 
HETATM   26  O   UNK N   1      32.934  11.919   1.584  0.00  0.00    -0.297 OA
HETATM   27  C   UNK N   1      28.815  14.568   4.490  0.00  0.00     0.037 C 
HETATM   28  C   UNK N   1      29.695  15.746   4.865  0.00  0.00    -0.012 C 
HETATM   29  C   UNK N   1      35.325  11.321  11.227  0.00  0.00     0.127 C 
HETATM   30  C   UNK N   1      32.871  12.617   5.043  0.00  0.00     0.015 C 
HETATM   31  C   UNK N   1      36.831  10.364   8.968  0.00  0.00     0.035 C 
HETATM   32  C   UNK N   1      35.074  16.472  10.704  0.00  0.00     0.016 C 
HETATM   33  C   UNK N   1      28.346  14.488   1.948  0.00  0.00     0.043 C 
HETATM   34  C   UNK N   1      28.819  16.968   5.059  0.00  0.00     0.010 C 
HETATM   35  C   UNK N   1      36.843  11.339  11.227  0.00  0.00     0.020 C 
HETATM   36  C   UNK N   1      37.355  10.190  10.383  0.00  0.00     0.004 C 
ENDROOT
BRANCH   8  37
HETATM   37  C   UNK N   1      34.220   9.735   4.869  0.00  0.00    -0.058 C 
HETATM   38  C   UNK N   1      34.636   8.457   4.859  0.00  0.00    -0.017 C 
HETATM   39  C   UNK N   1      35.000  10.726   4.069  0.00  0.00     0.046 C 
BRANCH  38  40
HETATM   40  C   UNK N   1      33.901   7.333   5.561  0.00  0.00     0.011 C 
HETATM   41  C   UNK N   1      33.811   6.133   4.605  0.00  0.00     0.042 C 
HETATM   42  C   UNK N   1      35.210   5.673   4.134  0.00  0.00     0.139 C 
HETATM   43  C   UNK N   1      36.303   5.979   5.174  0.00  0.00     0.111 C 
HETATM   44  C   UNK N   1      35.778   5.894   6.601  0.00  0.00     0.023 C 
HETATM   45 Cl   UNK N   1      37.726   4.942   4.945  0.00  0.00    -0.122 Cl
HETATM   46  C   UNK N   1      34.642   6.904   6.836  0.00  0.00     0.010 C 
BRANCH  42  47
HETATM   47  O   UNK N   1      35.540   6.324   2.939  0.00  0.00    -0.389 OA
HETATM   48  C   UNK N   1      35.122   5.470   1.920  0.00  0.00     0.202 C 
ENDBRANCH  42  47
ENDBRANCH  38  40
ENDBRANCH   8  37
BRANCH  14  49
HETATM   49  O   UNK N   1      30.339   9.835   4.840  0.00  0.00    -0.395 OA
HETATM   50  H   UNK N   1      29.942   9.311   5.552  0.00  0.00     0.210 HD
ENDBRANCH  14  49
BRANCH  21  51
HETATM   51  C   UNK N   1      29.554  11.743   1.089  0.00  0.00     0.011 C 
HETATM   52  C   UNK N   1      29.679  11.754  -0.425  0.00  0.00     0.006 C 
ENDBRANCH  21  51
BRANCH   1  53
HETATM   53  O   UNK N   1      32.535  15.000  10.184  0.00  0.00    -0.359 OA
HETATM   54  H   UNK N   1      31.924  14.658  10.856  0.00  0.00     0.213 HD
ENDBRANCH   1  53
BRANCH  18  55
HETATM   55  O   UNK N   1      32.358  16.523   4.789  0.00  0.00    -0.388 OA
HETATM   56  C   UNK N   1      33.450  16.013   4.071  0.00  0.00     0.202 C 
ENDBRANCH  18  55
BRANCH  16  57
HETATM   57  O   UNK N   1      31.381  16.982   8.529  0.00  0.00    -0.388 OA
HETATM   58  C   UNK N   1      30.909  18.279   8.731  0.00  0.00     0.202 C 
ENDBRANCH  16  57
TORSDOF 8
ENDMDL
MODEL 9
REMARK VINA RESULT:      -6.4      5.422     11.538
REMARK  8 active torsions:
REMARK  status: ('A' for Active; 'I' for Inactive)
REMARK    1  A    between atoms: C_1  and  O_30 
REMARK    2  A    between atoms: C_11  and  C_8 
REMARK    3  A    between atoms: C_15  and  O_38 
REMARK    4  A    between atoms: C_28  and  C_17 
REMARK    5  A    between atoms: C_18  and  O_40 
REMARK    6  A    between atoms: C_20  and  O_41 
REMARK    7  A    between atoms: C_23  and  C_49 
REMARK    8  A    between atoms: C_27  and  O_43 
ROOT
HETATM    1  C   UNK N   1      32.293  15.072   5.653  0.00  0.00     0.238 C 
HETATM    2  C   UNK N   1      33.046  15.469   6.916  0.00  0.00     0.278 C 
HETATM    3  C   UNK N   1      32.773  14.842   8.217  0.00  0.00     0.296 C 
HETATM    4  N   UNK N   1      33.474  15.251   9.314  0.00  0.00    -0.331 N 
HETATM    5  O   UNK N   1      32.233  13.631   5.549  0.00  0.00    -0.338 OA
HETATM    6  O   UNK N   1      33.410  12.120   9.513  0.00  0.00    -0.309 OA
HETATM    7  C   UNK N   1      34.471  12.968   9.418  0.00  0.00     0.282 C 
HETATM    8  C   UNK N   1      33.428  10.735   9.447  0.00  0.00     0.166 C 
HETATM    9  C   UNK N   1      32.410  13.109   4.227  0.00  0.00     0.183 C 
HETATM   10  C   UNK N   1      34.373  14.348  10.046  0.00  0.00     0.187 C 
HETATM   11  C   UNK N   1      32.623  10.244   8.232  0.00  0.00     0.044 C 
HETATM   12  C   UNK N   1      32.976  15.745   4.419  0.00  0.00     0.055 C 
HETATM   13  C   UNK N   1      33.435   7.209   7.087  0.00  0.00     0.137 C 
HETATM   14  C   UNK N   1      32.044   8.830   8.403  0.00  0.00     0.131 C 
HETATM   15  C   UNK N   1      33.067   7.699   8.461  0.00  0.00     0.111 C 
HETATM   16  C   UNK N   1      31.697  13.974   3.166  0.00  0.00     0.153 C 
HETATM   17  C   UNK N   1      31.444   7.808   5.802  0.00  0.00    -0.012 C 
HETATM   18  C   UNK N   1      31.982  11.614   4.116  0.00  0.00     0.152 C 
HETATM   19  C   UNK N   1      30.383   7.742   4.994  0.00  0.00    -0.086 C 
HETATM   20  C   UNK N   1      32.312  15.365   3.108  0.00  0.00     0.044 C 
HETATM   21  C   UNK N   1      32.386   6.683   6.138  0.00  0.00     0.078 C 
HETATM   22  O   UNK N   1      34.007  16.227   6.844  0.00  0.00    -0.281 OA
HETATM   23  O   UNK N   1      32.112  13.810   8.246  0.00  0.00    -0.264 OA
HETATM   24  O   UNK N   1      35.489  12.630   8.824  0.00  0.00    -0.263 OA
HETATM   25  C   UNK N   1      30.489  11.270   4.332  0.00  0.00     0.039 C 
HETATM   26  O   UNK N   1      34.606   7.212   6.744  0.00  0.00    -0.297 OA
HETATM   27  C   UNK N   1      29.536   8.964   4.832  0.00  0.00     0.037 C 
HETATM   28  C   UNK N   1      30.134   9.882   3.782  0.00  0.00    -0.012 C 
HETATM   29  C   UNK N   1      33.522  16.679   9.619  0.00  0.00     0.127 C 
HETATM   30  C   UNK N   1      33.285  10.482   6.883  0.00  0.00     0.015 C 
HETATM   31  C   UNK N   1      35.792  14.956  10.024  0.00  0.00     0.035 C 
HETATM   32  C   UNK N   1      33.063  17.263   4.489  0.00  0.00     0.016 C 
HETATM   33  C   UNK N   1      29.992   6.473   4.306  0.00  0.00     0.043 C 
HETATM   34  C   UNK N   1      29.152  10.017   2.634  0.00  0.00     0.010 C 
HETATM   35  C   UNK N   1      34.938  17.226   9.610  0.00  0.00     0.020 C 
HETATM   36  C   UNK N   1      35.802  16.388  10.531  0.00  0.00     0.004 C 
ENDROOT
BRANCH   8  37
HETATM   37  C   UNK N   1      34.833  10.165   9.651  0.00  0.00    -0.058 C 
HETATM   38  C   UNK N   1      35.313   9.986  10.894  0.00  0.00    -0.017 C 
HETATM   39  C   UNK N   1      35.777   9.975   8.508  0.00  0.00     0.046 C 
BRANCH  38  40
HETATM   40  C   UNK N   1      34.456  10.071  12.140  0.00  0.00     0.011 C 
HETATM   41  C   UNK N   1      34.941   9.012  13.143  0.00  0.00     0.042 C 
HETATM   42  C   UNK N   1      36.438   9.193  13.484  0.00  0.00     0.139 C 
HETATM   43  C   UNK N   1      36.888  10.660  13.359  0.00  0.00     0.111 C 
HETATM   44  C   UNK N   1      35.775  11.636  13.717  0.00  0.00     0.023 C 
HETATM   45 Cl   UNK N   1      38.354  10.973  14.312  0.00  0.00    -0.122 Cl
HETATM   46  C   UNK N   1      34.562  11.460  12.787  0.00  0.00     0.010 C 
BRANCH  42  47
HETATM   47  O   UNK N   1      37.215   8.416  12.617  0.00  0.00    -0.389 OA
HETATM   48  C   UNK N   1      36.817   7.099  12.837  0.00  0.00     0.202 C 
ENDBRANCH  42  47
ENDBRANCH  38  40
ENDBRANCH   8  37
BRANCH  14  49
HETATM   49  O   UNK N   1      31.212   8.772   9.523  0.00  0.00    -0.395 OA
HETATM   50  H   UNK N   1      31.012   8.883  10.465  0.00  0.00     0.210 HD
ENDBRANCH  14  49
BRANCH  21  51
HETATM   51  C   UNK N   1      31.636   5.515   6.777  0.00  0.00     0.011 C 
HETATM   52  C   UNK N   1      32.217   4.185   6.329  0.00  0.00     0.006 C 
ENDBRANCH  21  51
BRANCH   1  53
HETATM   53  O   UNK N   1      30.989  15.555   5.781  0.00  0.00    -0.359 OA
HETATM   54  H   UNK N   1      30.275  16.060   6.201  0.00  0.00     0.213 HD
ENDBRANCH   1  53
BRANCH  18  55
HETATM   55  O   UNK N   1      32.586  10.939   3.025  0.00  0.00    -0.388 OA
HETATM   56  C   UNK N   1      33.983  10.961   3.159  0.00  0.00     0.202 C 
ENDBRANCH  18  55
BRANCH  16  57
HETATM   57  O   UNK N   1      30.333  14.083   3.457  0.00  0.00    -0.388 OA
HETATM   58  C   UNK N   1      29.838  15.030   2.560  0.00  0.00     0.202 C 
ENDBRANCH  16  57
TORSDOF 8
ENDMDL
