MODEL 1
REMARK VINA RESULT:      -4.3      0.000      0.000
REMARK  6 active torsions:
REMARK  status: ('A' for Active; 'I' for Inactive)
REMARK    1  A    between atoms: C_2  and  C_3 
REMARK    2  A    between atoms: C_3  and  C_4 
REMARK    3  A    between atoms: C_4  and  C_8 
REMARK    4  A    between atoms: C_4  and  C_5 
REMARK    5  A    between atoms: C_5  and  O_9 
REMARK    6  A    between atoms: C_6  and  C_8 
ROOT
HETATM    1  C   UNK N   1      35.650  12.733  15.920  0.00  0.00     0.083 C 
ENDROOT
BRANCH   1   2
HETATM    2  C   UNK N   1      34.712  13.393  16.954  0.00  0.00     0.015 C 
BRANCH   2   3
HETATM    3  C   UNK N   1      35.308  13.774  18.296  0.00  0.00    -0.004 C 
HETATM    4  C   UNK N   1      35.254  12.577  19.224  0.00  0.00     0.005 C 
ENDBRANCH   2   3
ENDBRANCH   1   2
BRANCH   1   5
HETATM    5  C   UNK N   1      35.908  11.231  15.677  0.00  0.00     0.015 C 
BRANCH   5   6
HETATM    6  C   UNK N   1      34.708  10.302  15.704  0.00  0.00    -0.004 C 
HETATM    7  C   UNK N   1      33.712  10.741  14.650  0.00  0.00     0.005 C 
ENDBRANCH   5   6
ENDBRANCH   1   5
BRANCH   1   8
HETATM    8  C   UNK N   1      36.415  13.675  15.028  0.00  0.00     0.143 C 
HETATM    9  O   UNK N   1      36.020  13.912  13.896  0.00  0.00    -0.650 OA
BRANCH   8  10
HETATM   10  O   UNK N   1      37.542  14.265  15.471  0.00  0.00    -0.776 OA
HETATM   11  H   UNK N   1      37.492  15.050  15.980  0.00  0.00     0.167 HD
ENDBRANCH   8  10
ENDBRANCH   1   8
TORSDOF 6
ENDMDL
MODEL 2
REMARK VINA RESULT:      -4.2      9.341     10.558
REMARK  6 active torsions:
REMARK  status: ('A' for Active; 'I' for Inactive)
REMARK    1  A    between atoms: C_2  and  C_3 
REMARK    2  A    between atoms: C_3  and  C_4 
REMARK    3  A    between atoms: C_4  and  C_8 
REMARK    4  A    between atoms: C_4  and  C_5 
REMARK    5  A    between atoms: C_5  and  O_9 
REMARK    6  A    between atoms: C_6  and  C_8 
ROOT
HETATM    1  C   UNK N   1      33.582  17.772   7.743  0.00  0.00     0.083 C 
ENDROOT
BRANCH   1   2
HETATM    2  C   UNK N   1      32.160  17.993   8.303  0.00  0.00     0.015 C 
BRANCH   2   3
HETATM    3  C   UNK N   1      31.201  16.819   8.262  0.00  0.00    -0.004 C 
HETATM    4  C   UNK N   1      30.087  17.117   7.278  0.00  0.00     0.005 C 
ENDBRANCH   2   3
ENDBRANCH   1   2
BRANCH   1   5
HETATM    5  C   UNK N   1      33.996  17.164   6.386  0.00  0.00     0.015 C 
BRANCH   5   6
HETATM    6  C   UNK N   1      33.186  17.560   5.166  0.00  0.00    -0.004 C 
HETATM    7  C   UNK N   1      32.594  16.318   4.532  0.00  0.00     0.005 C 
ENDBRANCH   5   6
ENDBRANCH   1   5
BRANCH   1   8
HETATM    8  C   UNK N   1      34.717  18.204   8.634  0.00  0.00     0.143 C 
HETATM    9  O   UNK N   1      35.301  19.256   8.422  0.00  0.00    -0.650 OA
BRANCH   8  10
HETATM   10  O   UNK N   1      35.097  17.434   9.671  0.00  0.00    -0.776 OA
HETATM   11  H   UNK N   1      35.938  17.558  10.064  0.00  0.00     0.167 HD
ENDBRANCH   8  10
ENDBRANCH   1   8
TORSDOF 6
ENDMDL
MODEL 3
REMARK VINA RESULT:      -4.2      9.309     10.844
REMARK  6 active torsions:
REMARK  status: ('A' for Active; 'I' for Inactive)
REMARK    1  A    between atoms: C_2  and  C_3 
REMARK    2  A    between atoms: C_3  and  C_4 
REMARK    3  A    between atoms: C_4  and  C_8 
REMARK    4  A    between atoms: C_4  and  C_5 
REMARK    5  A    between atoms: C_5  and  O_9 
REMARK    6  A    between atoms: C_6  and  C_8 
ROOT
HETATM    1  C   UNK N   1      33.502  17.555   7.732  0.00  0.00     0.083 C 
ENDROOT
BRANCH   1   2
HETATM    2  C   UNK N   1      33.773  17.603   6.213  0.00  0.00     0.015 C 
BRANCH   2   3
HETATM    3  C   UNK N   1      32.871  16.778   5.315  0.00  0.00    -0.004 C 
HETATM    4  C   UNK N   1      32.290  17.669   4.235  0.00  0.00     0.005 C 
ENDBRANCH   2   3
ENDBRANCH   1   2
BRANCH   1   5
HETATM    5  C   UNK N   1      32.246  17.044   8.469  0.00  0.00     0.015 C 
BRANCH   5   6
HETATM    6  C   UNK N   1      31.068  17.993   8.583  0.00  0.00    -0.004 C 
HETATM    7  C   UNK N   1      29.983  17.563   7.616  0.00  0.00     0.005 C 
ENDBRANCH   5   6
ENDBRANCH   1   5
BRANCH   1   8
HETATM    8  C   UNK N   1      34.605  18.076   8.615  0.00  0.00     0.143 C 
HETATM    9  O   UNK N   1      35.185  19.113   8.331  0.00  0.00    -0.650 OA
BRANCH   8  10
HETATM   10  O   UNK N   1      34.962  17.402   9.726  0.00  0.00    -0.776 OA
HETATM   11  H   UNK N   1      34.374  16.780  10.105  0.00  0.00     0.167 HD
ENDBRANCH   8  10
ENDBRANCH   1   8
TORSDOF 6
ENDMDL
MODEL 4
REMARK VINA RESULT:      -4.1      8.177      9.676
REMARK  6 active torsions:
REMARK  status: ('A' for Active; 'I' for Inactive)
REMARK    1  A    between atoms: C_2  and  C_3 
REMARK    2  A    between atoms: C_3  and  C_4 
REMARK    3  A    between atoms: C_4  and  C_8 
REMARK    4  A    between atoms: C_4  and  C_5 
REMARK    5  A    between atoms: C_5  and  O_9 
REMARK    6  A    between atoms: C_6  and  C_8 
ROOT
HETATM    1  C   UNK N   1      33.271  17.441   8.546  0.00  0.00     0.083 C 
ENDROOT
BRANCH   1   2
HETATM    2  C   UNK N   1      31.872  18.093   8.522  0.00  0.00     0.015 C 
BRANCH   2   3
HETATM    3  C   UNK N   1      30.721  17.260   7.990  0.00  0.00    -0.004 C 
HETATM    4  C   UNK N   1      30.972  16.934   6.531  0.00  0.00     0.005 C 
ENDBRANCH   2   3
ENDBRANCH   1   2
BRANCH   1   5
HETATM    5  C   UNK N   1      33.707  16.124   9.224  0.00  0.00     0.015 C 
BRANCH   5   6
HETATM    6  C   UNK N   1      35.170  15.982   9.599  0.00  0.00    -0.004 C 
HETATM    7  C   UNK N   1      35.368  16.446  11.028  0.00  0.00     0.005 C 
ENDBRANCH   5   6
ENDBRANCH   1   5
BRANCH   1   8
HETATM    8  C   UNK N   1      34.357  18.183   7.813  0.00  0.00     0.143 C 
HETATM    9  O   UNK N   1      34.540  17.989   6.620  0.00  0.00    -0.650 OA
BRANCH   8  10
HETATM   10  O   UNK N   1      35.137  19.066   8.465  0.00  0.00    -0.776 OA
HETATM   11  H   UNK N   1      35.798  19.541   8.001  0.00  0.00     0.167 HD
ENDBRANCH   8  10
ENDBRANCH   1   8
TORSDOF 6
ENDMDL
MODEL 5
REMARK VINA RESULT:      -4.0      1.006      3.039
REMARK  6 active torsions:
REMARK  status: ('A' for Active; 'I' for Inactive)
REMARK    1  A    between atoms: C_2  and  C_3 
REMARK    2  A    between atoms: C_3  and  C_4 
REMARK    3  A    between atoms: C_4  and  C_8 
REMARK    4  A    between atoms: C_4  and  C_5 
REMARK    5  A    between atoms: C_5  and  O_9 
REMARK    6  A    between atoms: C_6  and  C_8 
ROOT
HETATM    1  C   UNK N   1      36.012  12.807  15.855  0.00  0.00     0.083 C 
ENDROOT
BRANCH   1   2
HETATM    2  C   UNK N   1      36.593  11.406  15.569  0.00  0.00     0.015 C 
BRANCH   2   3
HETATM    3  C   UNK N   1      35.872  10.214  16.170  0.00  0.00    -0.004 C 
HETATM    4  C   UNK N   1      36.557   9.815  17.462  0.00  0.00     0.005 C 
ENDBRANCH   2   3
ENDBRANCH   1   2
BRANCH   1   5
HETATM    5  C   UNK N   1      34.868  13.197  16.816  0.00  0.00     0.015 C 
BRANCH   5   6
HETATM    6  C   UNK N   1      35.253  13.837  18.136  0.00  0.00    -0.004 C 
HETATM    7  C   UNK N   1      35.215  12.788  19.230  0.00  0.00     0.005 C 
ENDBRANCH   5   6
ENDBRANCH   1   5
BRANCH   1   8
HETATM    8  C   UNK N   1      36.640  13.948  15.098  0.00  0.00     0.143 C 
HETATM    9  O   UNK N   1      36.224  14.257  13.991  0.00  0.00    -0.650 OA
BRANCH   8  10
HETATM   10  O   UNK N   1      37.665  14.637  15.635  0.00  0.00    -0.776 OA
HETATM   11  H   UNK N   1      38.502  14.230  15.734  0.00  0.00     0.167 HD
ENDBRANCH   8  10
ENDBRANCH   1   8
TORSDOF 6
ENDMDL
MODEL 6
REMARK VINA RESULT:      -4.0     12.558     14.544
REMARK  6 active torsions:
REMARK  status: ('A' for Active; 'I' for Inactive)
REMARK    1  A    between atoms: C_2  and  C_3 
REMARK    2  A    between atoms: C_3  and  C_4 
REMARK    3  A    between atoms: C_4  and  C_8 
REMARK    4  A    between atoms: C_4  and  C_5 
REMARK    5  A    between atoms: C_5  and  O_9 
REMARK    6  A    between atoms: C_6  and  C_8 
ROOT
HETATM    1  C   UNK N   1      23.012  12.258  10.466  0.00  0.00     0.083 C 
ENDROOT
BRANCH   1   2
HETATM    2  C   UNK N   1      23.925  12.048   9.239  0.00  0.00     0.015 C 
BRANCH   2   3
HETATM    3  C   UNK N   1      23.619  10.872   8.333  0.00  0.00    -0.004 C 
HETATM    4  C   UNK N   1      23.280  11.383   6.946  0.00  0.00     0.005 C 
ENDBRANCH   2   3
ENDBRANCH   1   2
BRANCH   1   5
HETATM    5  C   UNK N   1      21.519  12.647  10.498  0.00  0.00     0.015 C 
BRANCH   5   6
HETATM    6  C   UNK N   1      20.929  13.260   9.242  0.00  0.00    -0.004 C 
HETATM    7  C   UNK N   1      21.003  14.771   9.339  0.00  0.00     0.005 C 
ENDBRANCH   5   6
ENDBRANCH   1   5
BRANCH   1   8
HETATM    8  C   UNK N   1      23.659  12.058  11.812  0.00  0.00     0.143 C 
HETATM    9  O   UNK N   1      22.979  11.781  12.788  0.00  0.00    -0.650 OA
BRANCH   8  10
HETATM   10  O   UNK N   1      24.993  12.184  11.950  0.00  0.00    -0.776 OA
HETATM   11  H   UNK N   1      25.568  11.586  11.514  0.00  0.00     0.167 HD
ENDBRANCH   8  10
ENDBRANCH   1   8
TORSDOF 6
ENDMDL
MODEL 7
REMARK VINA RESULT:      -3.9      8.126      9.395
REMARK  6 active torsions:
REMARK  status: ('A' for Active; 'I' for Inactive)
REMARK    1  A    between atoms: C_2  and  C_3 
REMARK    2  A    between atoms: C_3  and  C_4 
REMARK    3  A    between atoms: C_4  and  C_8 
REMARK    4  A    between atoms: C_4  and  C_5 
REMARK    5  A    between atoms: C_5  and  O_9 
REMARK    6  A    between atoms: C_6  and  C_8 
ROOT
HETATM    1  C   UNK N   1      33.324  17.454   8.594  0.00  0.00     0.083 C 
ENDROOT
BRANCH   1   2
HETATM    2  C   UNK N   1      33.845  16.202   9.333  0.00  0.00     0.015 C 
BRANCH   2   3
HETATM    3  C   UNK N   1      34.995  16.392  10.304  0.00  0.00    -0.004 C 
HETATM    4  C   UNK N   1      36.030  15.309  10.071  0.00  0.00     0.005 C 
ENDBRANCH   2   3
ENDBRANCH   1   2
BRANCH   1   5
HETATM    5  C   UNK N   1      31.887  18.015   8.547  0.00  0.00     0.015 C 
BRANCH   5   6
HETATM    6  C   UNK N   1      30.806  17.119   7.974  0.00  0.00    -0.004 C 
HETATM    7  C   UNK N   1      31.158  16.760   6.545  0.00  0.00     0.005 C 
ENDBRANCH   5   6
ENDBRANCH   1   5
BRANCH   1   8
HETATM    8  C   UNK N   1      34.350  18.233   7.813  0.00  0.00     0.143 C 
HETATM    9  O   UNK N   1      34.543  17.988   6.631  0.00  0.00    -0.650 OA
BRANCH   8  10
HETATM   10  O   UNK N   1      35.065  19.205   8.411  0.00  0.00    -0.776 OA
HETATM   11  H   UNK N   1      35.179  20.032   7.987  0.00  0.00     0.167 HD
ENDBRANCH   8  10
ENDBRANCH   1   8
TORSDOF 6
ENDMDL
MODEL 8
REMARK VINA RESULT:      -3.9     10.400     11.873
REMARK  6 active torsions:
REMARK  status: ('A' for Active; 'I' for Inactive)
REMARK    1  A    between atoms: C_2  and  C_3 
REMARK    2  A    between atoms: C_3  and  C_4 
REMARK    3  A    between atoms: C_4  and  C_8 
REMARK    4  A    between atoms: C_4  and  C_5 
REMARK    5  A    between atoms: C_5  and  O_9 
REMARK    6  A    between atoms: C_6  and  C_8 
ROOT
HETATM    1  C   UNK N   1      29.717  17.738   8.175  0.00  0.00     0.083 C 
ENDROOT
BRANCH   1   2
HETATM    2  C   UNK N   1      29.020  17.868   6.803  0.00  0.00     0.015 C 
BRANCH   2   3
HETATM    3  C   UNK N   1      29.382  16.852   5.737  0.00  0.00    -0.004 C 
HETATM    4  C   UNK N   1      30.265  17.513   4.696  0.00  0.00     0.005 C 
ENDBRANCH   2   3
ENDBRANCH   1   2
BRANCH   1   5
HETATM    5  C   UNK N   1      31.094  17.121   8.500  0.00  0.00     0.015 C 
BRANCH   5   6
HETATM    6  C   UNK N   1      32.317  17.993   8.292  0.00  0.00    -0.004 C 
HETATM    7  C   UNK N   1      33.090  17.492   7.088  0.00  0.00     0.005 C 
ENDBRANCH   5   6
ENDBRANCH   1   5
BRANCH   1   8
HETATM    8  C   UNK N   1      28.956  18.284   9.355  0.00  0.00     0.143 C 
HETATM    9  O   UNK N   1      29.552  18.804  10.286  0.00  0.00    -0.650 OA
BRANCH   8  10
HETATM   10  O   UNK N   1      27.612  18.204   9.393  0.00  0.00    -0.776 OA
HETATM   11  H   UNK N   1      27.135  18.641  10.071  0.00  0.00     0.167 HD
ENDBRANCH   8  10
ENDBRANCH   1   8
TORSDOF 6
ENDMDL
MODEL 9
REMARK VINA RESULT:      -3.9     26.362     27.662
REMARK  6 active torsions:
REMARK  status: ('A' for Active; 'I' for Inactive)
REMARK    1  A    between atoms: C_2  and  C_3 
REMARK    2  A    between atoms: C_3  and  C_4 
REMARK    3  A    between atoms: C_4  and  C_8 
REMARK    4  A    between atoms: C_4  and  C_5 
REMARK    5  A    between atoms: C_5  and  O_9 
REMARK    6  A    between atoms: C_6  and  C_8 
ROOT
HETATM    1  C   UNK N   1      26.071  28.091  -4.908  0.00  0.00     0.083 C 
ENDROOT
BRANCH   1   2
HETATM    2  C   UNK N   1      24.964  27.172  -5.466  0.00  0.00     0.015 C 
BRANCH   2   3
HETATM    3  C   UNK N   1      25.400  25.931  -6.222  0.00  0.00    -0.004 C 
HETATM    4  C   UNK N   1      25.672  24.814  -5.234  0.00  0.00     0.005 C 
ENDBRANCH   2   3
ENDBRANCH   1   2
BRANCH   1   5
HETATM    5  C   UNK N   1      27.135  28.897  -5.685  0.00  0.00     0.015 C 
BRANCH   5   6
HETATM    6  C   UNK N   1      28.317  28.131  -6.249  0.00  0.00    -0.004 C 
HETATM    7  C   UNK N   1      28.173  28.026  -7.754  0.00  0.00     0.005 C 
ENDBRANCH   5   6
ENDBRANCH   1   5
BRANCH   1   8
HETATM    8  C   UNK N   1      26.125  28.223  -3.409  0.00  0.00     0.143 C 
HETATM    9  O   UNK N   1      26.426  29.290  -2.894  0.00  0.00    -0.650 OA
BRANCH   8  10
HETATM   10  O   UNK N   1      25.843  27.167  -2.623  0.00  0.00    -0.776 OA
HETATM   11  H   UNK N   1      25.103  26.625  -2.814  0.00  0.00     0.167 HD
ENDBRANCH   8  10
ENDBRANCH   1   8
TORSDOF 6
ENDMDL
