MODEL 1
REMARK VINA RESULT:      -7.1      0.000      0.000
REMARK  26 active torsions:
REMARK  status: ('A' for Active; 'I' for Inactive)
REMARK    1  A    between atoms: C_8  and  C_3 
REMARK    2  A    between atoms: O_27  and  C_3 
REMARK    3  A    between atoms: C_10  and  C_4 
REMARK    4  A    between atoms: C_11  and  C_5 
REMARK    5  A    between atoms: O_29  and  C_5 
REMARK    6  A    between atoms: C_12  and  C_6 
REMARK    7  A    between atoms: O_30  and  C_6 
REMARK    8  A    between atoms: C_9  and  N_26 
REMARK    9  A    between atoms: C_16  and  C_10 
REMARK   10  A    between atoms: C_10  and  O_31 
REMARK   11  A    between atoms: C_22  and  C_11 
REMARK   12  A    between atoms: C_11  and  O_32 
REMARK   13  A    between atoms: C_13  and  N_26 
REMARK   14  A    between atoms: C_14  and  O_33 
REMARK   15  A    between atoms: C_15  and  O_34 
REMARK   16  A    between atoms: C_22  and  C_16 
REMARK   17  A    between atoms: C_16  and  O_35 
REMARK   18  A    between atoms: C_17  and  O_36 
REMARK   19  A    between atoms: C_18  and  O_37 
REMARK   20  A    between atoms: C_19  and  O_38 
REMARK   21  A    between atoms: C_20  and  O_39 
REMARK   22  A    between atoms: C_21  and  O_40 
REMARK   23  A    between atoms: C_22  and  O_43 
REMARK   24  A    between atoms: C_23  and  O_44 
REMARK   25  A    between atoms: C_24  and  O_44 
REMARK   26  A    between atoms: C_25  and  O_43 
ROOT
HETATM    1  C   UNK N   1      30.266  17.390   5.917  0.00  0.00     0.180 C 
HETATM    2  C   UNK N   1      28.736  17.433   7.880  0.00  0.00     0.183 C 
HETATM    3  C   UNK N   1      30.072  17.473   8.709  0.00  0.00     0.204 C 
HETATM    4  C   UNK N   1      28.965  16.789   6.483  0.00  0.00     0.187 C 
HETATM    5  C   UNK N   1      31.134  16.590   8.019  0.00  0.00     0.292 C 
HETATM    6  O   UNK N   1      31.417  17.110   6.722  0.00  0.00    -0.348 OA
ENDROOT
BRANCH   4   7
HETATM    7  O   UNK N   1      27.913  16.986   5.543  0.00  0.00    -0.348 OA
BRANCH   7   8
HETATM    8  C   UNK N   1      26.831  17.783   6.015  0.00  0.00     0.292 C 
HETATM    9  C   UNK N   1      26.443  18.844   4.955  0.00  0.00     0.204 C 
HETATM   10  C   UNK N   1      25.677  18.208   3.776  0.00  0.00     0.176 C 
HETATM   11  C   UNK N   1      24.456  17.495   4.374  0.00  0.00     0.137 C 
HETATM   12  C   UNK N   1      24.947  16.447   5.388  0.00  0.00     0.145 C 
HETATM   13  C   UNK N   1      23.757  15.729   6.002  0.00  0.00     0.042 C 
HETATM   14  O   UNK N   1      25.681  17.050   6.449  0.00  0.00    -0.352 OA
BRANCH   9  15
HETATM   15  O   UNK N   1      27.582  19.514   4.503  0.00  0.00    -0.388 OA
HETATM   16  H   UNK N   1      28.215  20.222   4.702  0.00  0.00     0.210 HD
ENDBRANCH   9  15
BRANCH  10  17
HETATM   17  O   UNK N   1      25.266  19.208   2.890  0.00  0.00    -0.391 OA
HETATM   18  H   UNK N   1      25.795  19.444   2.112  0.00  0.00     0.210 HD
ENDBRANCH  10  17
BRANCH  11  19
HETATM   19  N   UNK N   1      23.481  16.960   3.396  0.00  0.00    -0.402 N 
HETATM   20  H   UNK N   1      23.816  16.315   2.681  0.00  0.00     0.154 HD
BRANCH  19  21
HETATM   21  C   UNK N   1      22.050  17.314   3.403  0.00  0.00     0.132 C 
HETATM   22  C   UNK N   1      21.777  18.709   2.873  0.00  0.00     0.008 C 
HETATM   23  C   UNK N   1      20.841  19.002   1.945  0.00  0.00    -0.027 C 
HETATM   24  C   UNK N   1      19.926  17.945   1.360  0.00  0.00     0.180 C 
HETATM   25  C   UNK N   1      19.912  16.650   2.191  0.00  0.00     0.182 C 
HETATM   26  C   UNK N   1      21.347  16.246   2.526  0.00  0.00     0.175 C 
BRANCH  23  27
HETATM   27  C   UNK N   1      20.723  20.413   1.463  0.00  0.00     0.201 C 
BRANCH  27  28
HETATM   28  O   UNK N   1      20.665  20.452   0.071  0.00  0.00    -0.397 OA
HETATM   29  H   UNK N   1      20.809  19.918  -0.726  0.00  0.00     0.209 HD
ENDBRANCH  27  28
ENDBRANCH  23  27
BRANCH  24  30
HETATM   30  O   UNK N   1      20.341  17.676   0.053  0.00  0.00    -0.388 OA
HETATM   31  H   UNK N   1      20.559  17.079  -0.680  0.00  0.00     0.210 HD
ENDBRANCH  24  30
BRANCH  25  32
HETATM   32  O   UNK N   1      19.188  16.844   3.372  0.00  0.00    -0.390 OA
HETATM   33  H   UNK N   1      18.532  17.149   4.019  0.00  0.00     0.210 HD
ENDBRANCH  25  32
BRANCH  26  34
HETATM   34  O   UNK N   1      21.366  15.009   3.174  0.00  0.00    -0.391 OA
HETATM   35  H   UNK N   1      21.243  14.962   4.135  0.00  0.00     0.210 HD
ENDBRANCH  26  34
ENDBRANCH  19  21
ENDBRANCH  11  19
ENDBRANCH   7   8
ENDBRANCH   4   7
BRANCH   1  36
HETATM   36  C   UNK N   1      30.542  16.904   4.502  0.00  0.00     0.198 C 
BRANCH  36  37
HETATM   37  O   UNK N   1      29.734  17.576   3.592  0.00  0.00    -0.398 OA
HETATM   38  H   UNK N   1      28.818  17.441   3.304  0.00  0.00     0.209 HD
ENDBRANCH  36  37
ENDBRANCH   1  36
BRANCH   2  39
HETATM   39  O   UNK N   1      27.771  16.701   8.574  0.00  0.00    -0.390 OA
HETATM   40  H   UNK N   1      27.256  15.933   8.868  0.00  0.00     0.210 HD
ENDBRANCH   2  39
BRANCH   3  41
HETATM   41  O   UNK N   1      30.556  18.784   8.764  0.00  0.00    -0.388 OA
HETATM   42  H   UNK N   1      31.377  19.294   8.691  0.00  0.00     0.210 HD
ENDBRANCH   3  41
BRANCH   5  43
HETATM   43  O   UNK N   1      32.347  16.536   8.750  0.00  0.00    -0.348 OA
BRANCH  43  44
HETATM   44  C   UNK N   1      33.521  16.107   8.021  0.00  0.00     0.187 C 
BRANCH  44  45
HETATM   45  C   UNK N   1      34.458  17.259   7.435  0.00  0.00     0.173 C 
BRANCH  45  46
HETATM   46  C   UNK N   1      34.198  18.594   8.141  0.00  0.00     0.198 C 
BRANCH  46  47
HETATM   47  O   UNK N   1      35.376  19.198   8.577  0.00  0.00    -0.398 OA
HETATM   48  H   UNK N   1      35.866  19.792   7.987  0.00  0.00     0.209 HD
ENDBRANCH  46  47
ENDBRANCH  45  46
BRANCH  45  49
HETATM   49  O   UNK N   1      34.262  17.491   6.080  0.00  0.00    -0.391 OA
HETATM   50  H   UNK N   1      34.240  16.767   5.434  0.00  0.00     0.210 HD
ENDBRANCH  45  49
ENDBRANCH  44  45
BRANCH  44  51
HETATM   51  C   UNK N   1      34.289  15.105   8.944  0.00  0.00     0.185 C 
BRANCH  51  52
HETATM   52  C   UNK N   1      34.263  15.458  10.464  0.00  0.00     0.210 C 
BRANCH  52  53
HETATM   53  C   UNK N   1      35.600  16.000  10.888  0.00  0.00     0.265 C 
HETATM   54  O   UNK N   1      35.915  17.157  10.659  0.00  0.00    -0.304 OA
ENDBRANCH  52  53
BRANCH  52  55
HETATM   55  O   UNK N   1      33.924  14.386  11.288  0.00  0.00    -0.386 OA
HETATM   56  H   UNK N   1      34.571  13.962  11.874  0.00  0.00     0.210 HD
ENDBRANCH  52  55
ENDBRANCH  51  52
BRANCH  51  57
HETATM   57  O   UNK N   1      35.639  15.101   8.567  0.00  0.00    -0.390 OA
HETATM   58  H   UNK N   1      36.139  14.271   8.519  0.00  0.00     0.210 HD
ENDBRANCH  51  57
ENDBRANCH  44  51
ENDBRANCH  43  44
ENDBRANCH   5  43
TORSDOF 26
ENDMDL
MODEL 2
REMARK VINA RESULT:      -7.0      2.427     11.814
REMARK  26 active torsions:
REMARK  status: ('A' for Active; 'I' for Inactive)
REMARK    1  A    between atoms: C_8  and  C_3 
REMARK    2  A    between atoms: O_27  and  C_3 
REMARK    3  A    between atoms: C_10  and  C_4 
REMARK    4  A    between atoms: C_11  and  C_5 
REMARK    5  A    between atoms: O_29  and  C_5 
REMARK    6  A    between atoms: C_12  and  C_6 
REMARK    7  A    between atoms: O_30  and  C_6 
REMARK    8  A    between atoms: C_9  and  N_26 
REMARK    9  A    between atoms: C_16  and  C_10 
REMARK   10  A    between atoms: C_10  and  O_31 
REMARK   11  A    between atoms: C_22  and  C_11 
REMARK   12  A    between atoms: C_11  and  O_32 
REMARK   13  A    between atoms: C_13  and  N_26 
REMARK   14  A    between atoms: C_14  and  O_33 
REMARK   15  A    between atoms: C_15  and  O_34 
REMARK   16  A    between atoms: C_22  and  C_16 
REMARK   17  A    between atoms: C_16  and  O_35 
REMARK   18  A    between atoms: C_17  and  O_36 
REMARK   19  A    between atoms: C_18  and  O_37 
REMARK   20  A    between atoms: C_19  and  O_38 
REMARK   21  A    between atoms: C_20  and  O_39 
REMARK   22  A    between atoms: C_21  and  O_40 
REMARK   23  A    between atoms: C_22  and  O_43 
REMARK   24  A    between atoms: C_23  and  O_44 
REMARK   25  A    between atoms: C_24  and  O_44 
REMARK   26  A    between atoms: C_25  and  O_43 
ROOT
HETATM    1  C   UNK N   1      26.957  19.908   5.450  0.00  0.00     0.180 C 
HETATM    2  C   UNK N   1      26.814  18.379   3.491  0.00  0.00     0.183 C 
HETATM    3  C   UNK N   1      25.339  18.915   3.392  0.00  0.00     0.204 C 
HETATM    4  C   UNK N   1      27.360  18.511   4.941  0.00  0.00     0.187 C 
HETATM    5  C   UNK N   1      24.769  19.122   4.812  0.00  0.00     0.292 C 
HETATM    6  O   UNK N   1      25.540  20.108   5.497  0.00  0.00    -0.348 OA
ENDROOT
BRANCH   4   7
HETATM    7  O   UNK N   1      28.770  18.353   5.077  0.00  0.00    -0.348 OA
BRANCH   7   8
HETATM    8  C   UNK N   1      29.200  17.020   5.335  0.00  0.00     0.292 C 
HETATM    9  C   UNK N   1      30.337  16.624   4.362  0.00  0.00     0.204 C 
HETATM   10  C   UNK N   1      31.668  17.304   4.745  0.00  0.00     0.176 C 
HETATM   11  C   UNK N   1      31.968  16.906   6.198  0.00  0.00     0.137 C 
HETATM   12  C   UNK N   1      30.796  17.367   7.084  0.00  0.00     0.145 C 
HETATM   13  C   UNK N   1      31.063  16.979   8.529  0.00  0.00     0.042 C 
HETATM   14  O   UNK N   1      29.571  16.754   6.692  0.00  0.00    -0.352 OA
BRANCH   9  15
HETATM   15  O   UNK N   1      29.980  16.937   3.049  0.00  0.00    -0.388 OA
HETATM   16  H   UNK N   1      29.260  16.920   2.398  0.00  0.00     0.210 HD
ENDBRANCH   9  15
BRANCH  10  17
HETATM   17  O   UNK N   1      32.687  16.851   3.902  0.00  0.00    -0.391 OA
HETATM   18  H   UNK N   1      32.851  15.904   3.770  0.00  0.00     0.210 HD
ENDBRANCH  10  17
BRANCH  11  19
HETATM   19  N   UNK N   1      33.295  17.310   6.714  0.00  0.00    -0.402 N 
HETATM   20  H   UNK N   1      33.521  18.304   6.746  0.00  0.00     0.154 HD
BRANCH  19  21
HETATM   21  C   UNK N   1      34.307  16.347   7.186  0.00  0.00     0.132 C 
HETATM   22  C   UNK N   1      34.606  16.473   8.668  0.00  0.00     0.008 C 
HETATM   23  C   UNK N   1      34.635  15.435   9.530  0.00  0.00    -0.027 C 
HETATM   24  C   UNK N   1      34.405  14.006   9.082  0.00  0.00     0.180 C 
HETATM   25  C   UNK N   1      34.529  13.838   7.557  0.00  0.00     0.182 C 
HETATM   26  C   UNK N   1      33.737  14.942   6.858  0.00  0.00     0.175 C 
BRANCH  23  27
HETATM   27  C   UNK N   1      34.879  15.711  10.980  0.00  0.00     0.201 C 
BRANCH  27  28
HETATM   28  O   UNK N   1      34.968  17.084  11.209  0.00  0.00    -0.397 OA
HETATM   29  H   UNK N   1      34.816  17.769  11.879  0.00  0.00     0.209 HD
ENDBRANCH  27  28
ENDBRANCH  23  27
BRANCH  24  30
HETATM   30  O   UNK N   1      33.136  13.609   9.510  0.00  0.00    -0.388 OA
HETATM   31  H   UNK N   1      32.438  12.949   9.654  0.00  0.00     0.210 HD
ENDBRANCH  24  30
BRANCH  25  32
HETATM   32  O   UNK N   1      35.872  13.905   7.174  0.00  0.00    -0.390 OA
HETATM   33  H   UNK N   1      36.718  14.205   6.805  0.00  0.00     0.210 HD
ENDBRANCH  25  32
BRANCH  26  34
HETATM   34  O   UNK N   1      33.732  14.740   5.477  0.00  0.00    -0.391 OA
HETATM   35  H   UNK N   1      33.507  13.867   5.115  0.00  0.00     0.210 HD
ENDBRANCH  26  34
ENDBRANCH  19  21
ENDBRANCH  11  19
ENDBRANCH   7   8
ENDBRANCH   4   7
BRANCH   1  36
HETATM   36  C   UNK N   1      27.525  20.189   6.833  0.00  0.00     0.198 C 
BRANCH  36  37
HETATM   37  O   UNK N   1      27.528  19.031   7.601  0.00  0.00    -0.398 OA
HETATM   38  H   UNK N   1      26.910  18.680   8.261  0.00  0.00     0.209 HD
ENDBRANCH  36  37
ENDBRANCH   1  36
BRANCH   2  39
HETATM   39  O   UNK N   1      26.857  17.040   3.099  0.00  0.00    -0.390 OA
HETATM   40  H   UNK N   1      26.557  16.197   2.726  0.00  0.00     0.210 HD
ENDBRANCH   2  39
BRANCH   3  41
HETATM   41  O   UNK N   1      25.326  20.146   2.728  0.00  0.00    -0.388 OA
HETATM   42  H   UNK N   1      25.803  20.989   2.681  0.00  0.00     0.210 HD
ENDBRANCH   3  41
BRANCH   5  43
HETATM   43  O   UNK N   1      23.418  19.550   4.793  0.00  0.00    -0.348 OA
BRANCH  43  44
HETATM   44  C   UNK N   1      22.541  18.877   3.860  0.00  0.00     0.187 C 
BRANCH  44  45
HETATM   45  C   UNK N   1      21.741  17.613   4.416  0.00  0.00     0.173 C 
BRANCH  45  46
HETATM   46  C   UNK N   1      21.942  17.455   5.928  0.00  0.00     0.198 C 
BRANCH  46  47
HETATM   47  O   UNK N   1      21.430  18.535   6.643  0.00  0.00    -0.398 OA
HETATM   48  H   UNK N   1      20.805  19.146   6.222  0.00  0.00     0.209 HD
ENDBRANCH  46  47
ENDBRANCH  45  46
BRANCH  45  49
HETATM   49  O   UNK N   1      22.143  16.414   3.843  0.00  0.00    -0.391 OA
HETATM   50  H   UNK N   1      22.271  16.320   2.886  0.00  0.00     0.210 HD
ENDBRANCH  45  49
ENDBRANCH  44  45
BRANCH  44  51
HETATM   51  C   UNK N   1      21.605  19.970   3.246  0.00  0.00     0.185 C 
BRANCH  51  52
HETATM   52  C   UNK N   1      20.788  19.509   1.998  0.00  0.00     0.210 C 
BRANCH  52  53
HETATM   53  C   UNK N   1      20.676  20.640   1.013  0.00  0.00     0.265 C 
HETATM   54  O   UNK N   1      21.449  20.738   0.073  0.00  0.00    -0.304 OA
ENDBRANCH  52  53
BRANCH  52  55
HETATM   55  O   UNK N   1      19.510  19.041   2.299  0.00  0.00    -0.386 OA
HETATM   56  H   UNK N   1      19.313  18.094   2.378  0.00  0.00     0.210 HD
ENDBRANCH  52  55
ENDBRANCH  51  52
BRANCH  51  57
HETATM   57  O   UNK N   1      22.397  21.043   2.819  0.00  0.00    -0.390 OA
HETATM   58  H   UNK N   1      22.055  21.951   2.837  0.00  0.00     0.210 HD
ENDBRANCH  51  57
ENDBRANCH  44  51
ENDBRANCH  43  44
ENDBRANCH   5  43
TORSDOF 26
ENDMDL
MODEL 3
REMARK VINA RESULT:      -6.8      3.564     12.634
REMARK  26 active torsions:
REMARK  status: ('A' for Active; 'I' for Inactive)
REMARK    1  A    between atoms: C_8  and  C_3 
REMARK    2  A    between atoms: O_27  and  C_3 
REMARK    3  A    between atoms: C_10  and  C_4 
REMARK    4  A    between atoms: C_11  and  C_5 
REMARK    5  A    between atoms: O_29  and  C_5 
REMARK    6  A    between atoms: C_12  and  C_6 
REMARK    7  A    between atoms: O_30  and  C_6 
REMARK    8  A    between atoms: C_9  and  N_26 
REMARK    9  A    between atoms: C_16  and  C_10 
REMARK   10  A    between atoms: C_10  and  O_31 
REMARK   11  A    between atoms: C_22  and  C_11 
REMARK   12  A    between atoms: C_11  and  O_32 
REMARK   13  A    between atoms: C_13  and  N_26 
REMARK   14  A    between atoms: C_14  and  O_33 
REMARK   15  A    between atoms: C_15  and  O_34 
REMARK   16  A    between atoms: C_22  and  C_16 
REMARK   17  A    between atoms: C_16  and  O_35 
REMARK   18  A    between atoms: C_17  and  O_36 
REMARK   19  A    between atoms: C_18  and  O_37 
REMARK   20  A    between atoms: C_19  and  O_38 
REMARK   21  A    between atoms: C_20  and  O_39 
REMARK   22  A    between atoms: C_21  and  O_40 
REMARK   23  A    between atoms: C_22  and  O_43 
REMARK   24  A    between atoms: C_23  and  O_44 
REMARK   25  A    between atoms: C_24  and  O_44 
REMARK   26  A    between atoms: C_25  and  O_43 
ROOT
HETATM    1  C   UNK N   1      30.493  17.300   7.250  0.00  0.00     0.180 C 
HETATM    2  C   UNK N   1      31.752  16.147   5.439  0.00  0.00     0.183 C 
HETATM    3  C   UNK N   1      30.580  16.663   4.525  0.00  0.00     0.204 C 
HETATM    4  C   UNK N   1      31.293  16.025   6.920  0.00  0.00     0.187 C 
HETATM    5  C   UNK N   1      29.251  16.601   5.307  0.00  0.00     0.292 C 
HETATM    6  O   UNK N   1      29.322  17.461   6.441  0.00  0.00    -0.348 OA
ENDROOT
BRANCH   4   7
HETATM    7  O   UNK N   1      32.342  15.873   7.871  0.00  0.00    -0.348 OA
BRANCH   7   8
HETATM    8  C   UNK N   1      33.642  16.196   7.385  0.00  0.00     0.292 C 
HETATM    9  C   UNK N   1      34.383  17.104   8.397  0.00  0.00     0.204 C 
HETATM   10  C   UNK N   1      34.862  16.303   9.626  0.00  0.00     0.176 C 
HETATM   11  C   UNK N   1      35.744  15.163   9.097  0.00  0.00     0.137 C 
HETATM   12  C   UNK N   1      34.910  14.307   8.127  0.00  0.00     0.145 C 
HETATM   13  C   UNK N   1      35.761  13.172   7.582  0.00  0.00     0.042 C 
HETATM   14  O   UNK N   1      34.449  15.073   7.018  0.00  0.00    -0.352 OA
BRANCH   9  15
HETATM   15  O   UNK N   1      33.564  18.166   8.784  0.00  0.00    -0.388 OA
HETATM   16  H   UNK N   1      32.739  18.406   9.236  0.00  0.00     0.210 HD
ENDBRANCH   9  15
BRANCH  10  17
HETATM   17  O   UNK N   1      35.605  17.136  10.468  0.00  0.00    -0.391 OA
HETATM   18  H   UNK N   1      36.469  17.485  10.200  0.00  0.00     0.210 HD
ENDBRANCH  10  17
BRANCH  11  19
HETATM   19  N   UNK N   1      36.454  14.370  10.126  0.00  0.00    -0.402 N 
HETATM   20  H   UNK N   1      37.468  14.284  10.058  0.00  0.00     0.154 HD
BRANCH  19  21
HETATM   21  C   UNK N   1      35.768  13.697  11.245  0.00  0.00     0.132 C 
HETATM   22  C   UNK N   1      35.791  12.184  11.137  0.00  0.00     0.008 C 
HETATM   23  C   UNK N   1      36.148  11.354  12.139  0.00  0.00    -0.027 C 
HETATM   24  C   UNK N   1      36.530  11.865  13.514  0.00  0.00     0.180 C 
HETATM   25  C   UNK N   1      36.101  13.325  13.742  0.00  0.00     0.182 C 
HETATM   26  C   UNK N   1      36.499  14.167  12.530  0.00  0.00     0.175 C 
BRANCH  23  27
HETATM   27  C   UNK N   1      36.189   9.882  11.874  0.00  0.00     0.201 C 
BRANCH  27  28
HETATM   28  O   UNK N   1      36.881   9.221  12.888  0.00  0.00    -0.397 OA
HETATM   29  H   UNK N   1      37.748   8.853  13.122  0.00  0.00     0.209 HD
ENDBRANCH  27  28
ENDBRANCH  23  27
BRANCH  24  30
HETATM   30  O   UNK N   1      37.914  11.740  13.661  0.00  0.00    -0.388 OA
HETATM   31  H   UNK N   1      38.750  11.252  13.598  0.00  0.00     0.210 HD
ENDBRANCH  24  30
BRANCH  25  32
HETATM   32  O   UNK N   1      34.717  13.395  13.931  0.00  0.00    -0.390 OA
HETATM   33  H   UNK N   1      33.816  13.241  14.257  0.00  0.00     0.210 HD
ENDBRANCH  25  32
BRANCH  26  34
HETATM   34  O   UNK N   1      36.230  15.517  12.765  0.00  0.00    -0.391 OA
HETATM   35  H   UNK N   1      35.426  15.922  12.403  0.00  0.00     0.210 HD
ENDBRANCH  26  34
ENDBRANCH  19  21
ENDBRANCH  11  19
ENDBRANCH   7   8
ENDBRANCH   4   7
BRANCH   1  36
HETATM   36  C   UNK N   1      30.074  17.338   8.712  0.00  0.00     0.198 C 
BRANCH  36  37
HETATM   37  O   UNK N   1      30.876  18.221   9.424  0.00  0.00    -0.398 OA
HETATM   38  H   UNK N   1      31.627  18.088  10.023  0.00  0.00     0.209 HD
ENDBRANCH  36  37
ENDBRANCH   1  36
BRANCH   2  39
HETATM   39  O   UNK N   1      32.190  14.901   4.986  0.00  0.00    -0.390 OA
HETATM   40  H   UNK N   1      32.178  14.057   4.509  0.00  0.00     0.210 HD
ENDBRANCH   2  39
BRANCH   3  41
HETATM   41  O   UNK N   1      30.816  17.993   4.161  0.00  0.00    -0.388 OA
HETATM   42  H   UNK N   1      30.357  18.837   4.031  0.00  0.00     0.210 HD
ENDBRANCH   3  41
BRANCH   5  43
HETATM   43  O   UNK N   1      28.143  16.999   4.518  0.00  0.00    -0.348 OA
BRANCH  43  44
HETATM   44  C   UNK N   1      26.966  17.440   5.234  0.00  0.00     0.187 C 
BRANCH  44  45
HETATM   45  C   UNK N   1      26.426  18.902   4.889  0.00  0.00     0.173 C 
BRANCH  45  46
HETATM   46  C   UNK N   1      27.513  19.959   5.119  0.00  0.00     0.198 C 
BRANCH  46  47
HETATM   47  O   UNK N   1      28.599  19.793   4.262  0.00  0.00    -0.398 OA
HETATM   48  H   UNK N   1      28.969  20.556   3.791  0.00  0.00     0.209 HD
ENDBRANCH  46  47
ENDBRANCH  45  46
BRANCH  45  49
HETATM   49  O   UNK N   1      25.341  19.285   5.666  0.00  0.00    -0.391 OA
HETATM   50  H   UNK N   1      24.435  19.283   5.317  0.00  0.00     0.210 HD
ENDBRANCH  45  49
ENDBRANCH  44  45
BRANCH  44  51
HETATM   51  C   UNK N   1      25.879  16.330   5.053  0.00  0.00     0.185 C 
BRANCH  51  52
HETATM   52  C   UNK N   1      25.153  16.339   3.671  0.00  0.00     0.210 C 
BRANCH  52  53
HETATM   53  C   UNK N   1      24.162  15.210   3.605  0.00  0.00     0.265 C 
HETATM   54  O   UNK N   1      23.075  15.289   4.155  0.00  0.00    -0.304 OA
ENDBRANCH  52  53
BRANCH  52  55
HETATM   55  O   UNK N   1      26.014  16.253   2.578  0.00  0.00    -0.386 OA
HETATM   56  H   UNK N   1      25.826  16.699   1.738  0.00  0.00     0.210 HD
ENDBRANCH  52  55
ENDBRANCH  51  52
BRANCH  51  57
HETATM   57  O   UNK N   1      24.883  16.523   6.019  0.00  0.00    -0.390 OA
HETATM   58  H   UNK N   1      24.037  16.051   5.961  0.00  0.00     0.210 HD
ENDBRANCH  51  57
ENDBRANCH  44  51
ENDBRANCH  43  44
ENDBRANCH   5  43
TORSDOF 26
ENDMDL
MODEL 4
REMARK VINA RESULT:      -6.7      3.941      7.585
REMARK  26 active torsions:
REMARK  status: ('A' for Active; 'I' for Inactive)
REMARK    1  A    between atoms: C_8  and  C_3 
REMARK    2  A    between atoms: O_27  and  C_3 
REMARK    3  A    between atoms: C_10  and  C_4 
REMARK    4  A    between atoms: C_11  and  C_5 
REMARK    5  A    between atoms: O_29  and  C_5 
REMARK    6  A    between atoms: C_12  and  C_6 
REMARK    7  A    between atoms: O_30  and  C_6 
REMARK    8  A    between atoms: C_9  and  N_26 
REMARK    9  A    between atoms: C_16  and  C_10 
REMARK   10  A    between atoms: C_10  and  O_31 
REMARK   11  A    between atoms: C_22  and  C_11 
REMARK   12  A    between atoms: C_11  and  O_32 
REMARK   13  A    between atoms: C_13  and  N_26 
REMARK   14  A    between atoms: C_14  and  O_33 
REMARK   15  A    between atoms: C_15  and  O_34 
REMARK   16  A    between atoms: C_22  and  C_16 
REMARK   17  A    between atoms: C_16  and  O_35 
REMARK   18  A    between atoms: C_17  and  O_36 
REMARK   19  A    between atoms: C_18  and  O_37 
REMARK   20  A    between atoms: C_19  and  O_38 
REMARK   21  A    between atoms: C_20  and  O_39 
REMARK   22  A    between atoms: C_21  and  O_40 
REMARK   23  A    between atoms: C_22  and  O_43 
REMARK   24  A    between atoms: C_23  and  O_44 
REMARK   25  A    between atoms: C_24  and  O_44 
REMARK   26  A    between atoms: C_25  and  O_43 
ROOT
HETATM    1  C   UNK N   1      34.938  13.719   9.156  0.00  0.00     0.180 C 
HETATM    2  C   UNK N   1      35.314  16.068   9.891  0.00  0.00     0.183 C 
HETATM    3  C   UNK N   1      36.298  15.409  10.928  0.00  0.00     0.204 C 
HETATM    4  C   UNK N   1      34.225  15.056   9.435  0.00  0.00     0.187 C 
HETATM    5  C   UNK N   1      35.712  14.066  11.413  0.00  0.00     0.292 C 
HETATM    6  O   UNK N   1      35.589  13.171  10.309  0.00  0.00    -0.348 OA
ENDROOT
BRANCH   4   7
HETATM    7  O   UNK N   1      33.484  15.440   8.280  0.00  0.00    -0.348 OA
BRANCH   7   8
HETATM    8  C   UNK N   1      33.455  16.841   8.027  0.00  0.00     0.292 C 
HETATM    9  C   UNK N   1      33.698  17.121   6.524  0.00  0.00     0.204 C 
HETATM   10  C   UNK N   1      32.453  16.775   5.679  0.00  0.00     0.176 C 
HETATM   11  C   UNK N   1      31.286  17.592   6.252  0.00  0.00     0.137 C 
HETATM   12  C   UNK N   1      31.110  17.221   7.735  0.00  0.00     0.145 C 
HETATM   13  C   UNK N   1      29.964  18.021   8.332  0.00  0.00     0.042 C 
HETATM   14  O   UNK N   1      32.281  17.517   8.491  0.00  0.00    -0.352 OA
BRANCH   9  15
HETATM   15  O   UNK N   1      34.815  16.414   6.074  0.00  0.00    -0.388 OA
HETATM   16  H   UNK N   1      35.755  16.235   6.234  0.00  0.00     0.210 HD
ENDBRANCH   9  15
BRANCH  10  17
HETATM   17  O   UNK N   1      32.679  17.127   4.345  0.00  0.00    -0.391 OA
HETATM   18  H   UNK N   1      32.094  16.820   3.634  0.00  0.00     0.210 HD
ENDBRANCH  10  17
BRANCH  11  19
HETATM   19  N   UNK N   1      30.026  17.544   5.476  0.00  0.00    -0.402 N 
HETATM   20  H   UNK N   1      29.530  18.417   5.303  0.00  0.00     0.154 HD
BRANCH  19  21
HETATM   21  C   UNK N   1      29.453  16.295   4.941  0.00  0.00     0.132 C 
HETATM   22  C   UNK N   1      28.291  15.770   5.763  0.00  0.00     0.008 C 
HETATM   23  C   UNK N   1      27.104  15.387   5.248  0.00  0.00    -0.027 C 
HETATM   24  C   UNK N   1      26.827  15.407   3.758  0.00  0.00     0.180 C 
HETATM   25  C   UNK N   1      28.112  15.523   2.919  0.00  0.00     0.182 C 
HETATM   26  C   UNK N   1      28.997  16.626   3.496  0.00  0.00     0.175 C 
BRANCH  23  27
HETATM   27  C   UNK N   1      26.021  14.950   6.183  0.00  0.00     0.201 C 
BRANCH  27  28
HETATM   28  O   UNK N   1      25.131  15.996   6.424  0.00  0.00    -0.397 OA
HETATM   29  H   UNK N   1      24.990  16.944   6.272  0.00  0.00     0.209 HD
ENDBRANCH  27  28
ENDBRANCH  23  27
BRANCH  24  30
HETATM   30  O   UNK N   1      25.972  16.477   3.483  0.00  0.00    -0.388 OA
HETATM   31  H   UNK N   1      25.542  17.319   3.702  0.00  0.00     0.210 HD
ENDBRANCH  24  30
BRANCH  25  32
HETATM   32  O   UNK N   1      28.804  14.308   2.930  0.00  0.00    -0.390 OA
HETATM   33  H   UNK N   1      29.177  13.455   3.204  0.00  0.00     0.210 HD
ENDBRANCH  25  32
BRANCH  26  34
HETATM   34  O   UNK N   1      30.111  16.834   2.680  0.00  0.00    -0.391 OA
HETATM   35  H   UNK N   1      30.281  16.241   1.930  0.00  0.00     0.210 HD
ENDBRANCH  26  34
ENDBRANCH  19  21
ENDBRANCH  11  19
ENDBRANCH   7   8
ENDBRANCH   4   7
BRANCH   1  36
HETATM   36  C   UNK N   1      33.981  12.674   8.605  0.00  0.00     0.198 C 
BRANCH  36  37
HETATM   37  O   UNK N   1      32.721  12.822   9.172  0.00  0.00    -0.398 OA
HETATM   38  H   UNK N   1      31.880  12.361   9.032  0.00  0.00     0.209 HD
ENDBRANCH  36  37
ENDBRANCH   1  36
BRANCH   2  39
HETATM   39  O   UNK N   1      34.700  17.181  10.466  0.00  0.00    -0.390 OA
HETATM   40  H   UNK N   1      34.108  17.693  11.040  0.00  0.00     0.210 HD
ENDBRANCH   2  39
BRANCH   3  41
HETATM   41  O   UNK N   1      37.530  15.158  10.316  0.00  0.00    -0.388 OA
HETATM   42  H   UNK N   1      37.918  14.911   9.462  0.00  0.00     0.210 HD
ENDBRANCH   3  41
BRANCH   5  43
HETATM   43  O   UNK N   1      36.525  13.447  12.396  0.00  0.00    -0.348 OA
BRANCH  43  44
HETATM   44  C   UNK N   1      35.879  12.473  13.248  0.00  0.00     0.187 C 
BRANCH  44  45
HETATM   45  C   UNK N   1      36.728  11.174  13.619  0.00  0.00     0.173 C 
BRANCH  45  46
HETATM   46  C   UNK N   1      37.313  10.520  12.362  0.00  0.00     0.198 C 
BRANCH  46  47
HETATM   47  O   UNK N   1      36.465  10.640  11.263  0.00  0.00    -0.398 OA
HETATM   48  H   UNK N   1      36.825  10.880  10.395  0.00  0.00     0.209 HD
ENDBRANCH  46  47
ENDBRANCH  45  46
BRANCH  45  49
HETATM   49  O   UNK N   1      35.981  10.192  14.257  0.00  0.00    -0.391 OA
HETATM   50  H   UNK N   1      35.732   9.367  13.811  0.00  0.00     0.210 HD
ENDBRANCH  45  49
ENDBRANCH  44  45
BRANCH  44  51
HETATM   51  C   UNK N   1      35.357  13.242  14.506  0.00  0.00     0.185 C 
BRANCH  51  52
HETATM   52  C   UNK N   1      36.392  13.380  15.668  0.00  0.00     0.210 C 
BRANCH  52  53
HETATM   53  C   UNK N   1      35.703  13.872  16.911  0.00  0.00     0.265 C 
HETATM   54  O   UNK N   1      35.020  13.124  17.593  0.00  0.00    -0.304 OA
ENDBRANCH  52  53
BRANCH  52  55
HETATM   55  O   UNK N   1      37.461  14.225  15.376  0.00  0.00    -0.386 OA
HETATM   56  H   UNK N   1      38.171  13.966  14.767  0.00  0.00     0.210 HD
ENDBRANCH  52  55
ENDBRANCH  51  52
BRANCH  51  57
HETATM   57  O   UNK N   1      34.268  12.539  15.035  0.00  0.00    -0.390 OA
HETATM   58  H   UNK N   1      34.242  11.570  15.008  0.00  0.00     0.210 HD
ENDBRANCH  51  57
ENDBRANCH  44  51
ENDBRANCH  43  44
ENDBRANCH   5  43
TORSDOF 26
ENDMDL
MODEL 5
REMARK VINA RESULT:      -6.7      2.047     12.123
REMARK  26 active torsions:
REMARK  status: ('A' for Active; 'I' for Inactive)
REMARK    1  A    between atoms: C_8  and  C_3 
REMARK    2  A    between atoms: O_27  and  C_3 
REMARK    3  A    between atoms: C_10  and  C_4 
REMARK    4  A    between atoms: C_11  and  C_5 
REMARK    5  A    between atoms: O_29  and  C_5 
REMARK    6  A    between atoms: C_12  and  C_6 
REMARK    7  A    between atoms: O_30  and  C_6 
REMARK    8  A    between atoms: C_9  and  N_26 
REMARK    9  A    between atoms: C_16  and  C_10 
REMARK   10  A    between atoms: C_10  and  O_31 
REMARK   11  A    between atoms: C_22  and  C_11 
REMARK   12  A    between atoms: C_11  and  O_32 
REMARK   13  A    between atoms: C_13  and  N_26 
REMARK   14  A    between atoms: C_14  and  O_33 
REMARK   15  A    between atoms: C_15  and  O_34 
REMARK   16  A    between atoms: C_22  and  C_16 
REMARK   17  A    between atoms: C_16  and  O_35 
REMARK   18  A    between atoms: C_17  and  O_36 
REMARK   19  A    between atoms: C_18  and  O_37 
REMARK   20  A    between atoms: C_19  and  O_38 
REMARK   21  A    between atoms: C_20  and  O_39 
REMARK   22  A    between atoms: C_21  and  O_40 
REMARK   23  A    between atoms: C_22  and  O_43 
REMARK   24  A    between atoms: C_23  and  O_44 
REMARK   25  A    between atoms: C_24  and  O_44 
REMARK   26  A    between atoms: C_25  and  O_43 
ROOT
HETATM    1  C   UNK N   1      23.653  15.953   5.325  0.00  0.00     0.180 C 
HETATM    2  C   UNK N   1      23.869  18.425   5.128  0.00  0.00     0.183 C 
HETATM    3  C   UNK N   1      22.373  18.349   4.646  0.00  0.00     0.204 C 
HETATM    4  C   UNK N   1      24.605  17.078   4.876  0.00  0.00     0.187 C 
HETATM    5  C   UNK N   1      22.169  17.078   3.794  0.00  0.00     0.292 C 
HETATM    6  O   UNK N   1      22.423  15.923   4.591  0.00  0.00    -0.348 OA
ENDROOT
BRANCH   4   7
HETATM    7  O   UNK N   1      25.851  16.931   5.551  0.00  0.00    -0.348 OA
BRANCH   7   8
HETATM    8  C   UNK N   1      26.957  17.556   4.905  0.00  0.00     0.292 C 
HETATM    9  C   UNK N   1      27.673  18.521   5.882  0.00  0.00     0.204 C 
HETATM   10  C   UNK N   1      28.506  17.750   6.927  0.00  0.00     0.176 C 
HETATM   11  C   UNK N   1      29.487  16.863   6.146  0.00  0.00     0.137 C 
HETATM   12  C   UNK N   1      28.679  15.926   5.231  0.00  0.00     0.145 C 
HETATM   13  C   UNK N   1      29.626  15.039   4.438  0.00  0.00     0.042 C 
HETATM   14  O   UNK N   1      27.890  16.658   4.297  0.00  0.00    -0.352 OA
BRANCH   9  15
HETATM   15  O   UNK N   1      26.744  19.355   6.506  0.00  0.00    -0.388 OA
HETATM   16  H   UNK N   1      25.916  19.848   6.386  0.00  0.00     0.210 HD
ENDBRANCH   9  15
BRANCH  10  17
HETATM   17  O   UNK N   1      29.209  18.654   7.728  0.00  0.00    -0.391 OA
HETATM   18  H   UNK N   1      30.173  18.605   7.822  0.00  0.00     0.210 HD
ENDBRANCH  10  17
BRANCH  11  19
HETATM   19  N   UNK N   1      30.507  16.162   6.958  0.00  0.00    -0.402 N 
HETATM   20  H   UNK N   1      30.291  15.229   7.308  0.00  0.00     0.154 HD
BRANCH  19  21
HETATM   21  C   UNK N   1      31.821  16.746   7.286  0.00  0.00     0.132 C 
HETATM   22  C   UNK N   1      32.368  16.273   8.620  0.00  0.00     0.008 C 
HETATM   23  C   UNK N   1      33.620  15.807   8.808  0.00  0.00    -0.027 C 
HETATM   24  C   UNK N   1      34.636  15.748   7.686  0.00  0.00     0.180 C 
HETATM   25  C   UNK N   1      34.230  16.605   6.474  0.00  0.00     0.182 C 
HETATM   26  C   UNK N   1      32.766  16.333   6.128  0.00  0.00     0.175 C 
BRANCH  23  27
HETATM   27  C   UNK N   1      34.007  15.312  10.166  0.00  0.00     0.201 C 
BRANCH  27  28
HETATM   28  O   UNK N   1      32.874  14.982  10.908  0.00  0.00    -0.397 OA
HETATM   29  H   UNK N   1      31.905  15.024  10.903  0.00  0.00     0.209 HD
ENDBRANCH  27  28
ENDBRANCH  23  27
BRANCH  24  30
HETATM   30  O   UNK N   1      34.792  14.413   7.303  0.00  0.00    -0.388 OA
HETATM   31  H   UNK N   1      35.306  13.595   7.206  0.00  0.00     0.210 HD
ENDBRANCH  24  30
BRANCH  25  32
HETATM   32  O   UNK N   1      34.402  17.962   6.766  0.00  0.00    -0.390 OA
HETATM   33  H   UNK N   1      34.608  18.794   7.219  0.00  0.00     0.210 HD
ENDBRANCH  25  32
BRANCH  26  34
HETATM   34  O   UNK N   1      32.409  17.006   4.958  0.00  0.00    -0.391 OA
HETATM   35  H   UNK N   1      32.566  17.961   4.879  0.00  0.00     0.210 HD
ENDBRANCH  26  34
ENDBRANCH  19  21
ENDBRANCH  11  19
ENDBRANCH   7   8
ENDBRANCH   4   7
BRANCH   1  36
HETATM   36  C   UNK N   1      24.307  14.585   5.218  0.00  0.00     0.198 C 
BRANCH  36  37
HETATM   37  O   UNK N   1      25.141  14.531   4.107  0.00  0.00    -0.398 OA
HETATM   38  H   UNK N   1      25.811  15.140   3.760  0.00  0.00     0.209 HD
ENDBRANCH  36  37
ENDBRANCH   1  36
BRANCH   2  39
HETATM   39  O   UNK N   1      24.532  19.448   4.448  0.00  0.00    -0.390 OA
HETATM   40  H   UNK N   1      25.157  19.874   3.840  0.00  0.00     0.210 HD
ENDBRANCH   2  39
BRANCH   3  41
HETATM   41  O   UNK N   1      21.523  18.279   5.754  0.00  0.00    -0.388 OA
HETATM   42  H   UNK N   1      20.591  18.149   5.989  0.00  0.00     0.210 HD
ENDBRANCH   3  41
BRANCH   5  43
HETATM   43  O   UNK N   1      20.852  16.981   3.279  0.00  0.00    -0.348 OA
BRANCH  43  44
HETATM   44  C   UNK N   1      20.704  17.148   1.850  0.00  0.00     0.187 C 
BRANCH  44  45
HETATM   45  C   UNK N   1      20.030  15.938   1.056  0.00  0.00     0.173 C 
BRANCH  45  46
HETATM   46  C   UNK N   1      19.164  16.452  -0.100  0.00  0.00     0.198 C 
BRANCH  46  47
HETATM   47  O   UNK N   1      17.998  15.707  -0.256  0.00  0.00    -0.398 OA
HETATM   48  H   UNK N   1      17.879  14.879   0.235  0.00  0.00     0.209 HD
ENDBRANCH  46  47
ENDBRANCH  45  46
BRANCH  45  49
HETATM   49  O   UNK N   1      19.199  15.156   1.847  0.00  0.00    -0.391 OA
HETATM   50  H   UNK N   1      19.386  14.996   2.785  0.00  0.00     0.210 HD
ENDBRANCH  45  49
ENDBRANCH  44  45
BRANCH  44  51
HETATM   51  C   UNK N   1      19.970  18.511   1.624  0.00  0.00     0.185 C 
BRANCH  51  52
HETATM   52  C   UNK N   1      20.905  19.709   1.266  0.00  0.00     0.210 C 
BRANCH  52  53
HETATM   53  C   UNK N   1      20.931  20.695   2.401  0.00  0.00     0.265 C 
HETATM   54  O   UNK N   1      21.927  21.362   2.636  0.00  0.00    -0.304 OA
ENDBRANCH  52  53
BRANCH  52  55
HETATM   55  O   UNK N   1      20.549  20.374   0.094  0.00  0.00    -0.386 OA
HETATM   56  H   UNK N   1      19.788  20.102  -0.442  0.00  0.00     0.210 HD
ENDBRANCH  52  55
ENDBRANCH  51  52
BRANCH  51  57
HETATM   57  O   UNK N   1      19.318  18.866   2.812  0.00  0.00    -0.390 OA
HETATM   58  H   UNK N   1      19.003  19.772   2.954  0.00  0.00     0.210 HD
ENDBRANCH  51  57
ENDBRANCH  44  51
ENDBRANCH  43  44
ENDBRANCH   5  43
TORSDOF 26
ENDMDL
MODEL 6
REMARK VINA RESULT:      -6.6      4.844      8.133
REMARK  26 active torsions:
REMARK  status: ('A' for Active; 'I' for Inactive)
REMARK    1  A    between atoms: C_8  and  C_3 
REMARK    2  A    between atoms: O_27  and  C_3 
REMARK    3  A    between atoms: C_10  and  C_4 
REMARK    4  A    between atoms: C_11  and  C_5 
REMARK    5  A    between atoms: O_29  and  C_5 
REMARK    6  A    between atoms: C_12  and  C_6 
REMARK    7  A    between atoms: O_30  and  C_6 
REMARK    8  A    between atoms: C_9  and  N_26 
REMARK    9  A    between atoms: C_16  and  C_10 
REMARK   10  A    between atoms: C_10  and  O_31 
REMARK   11  A    between atoms: C_22  and  C_11 
REMARK   12  A    between atoms: C_11  and  O_32 
REMARK   13  A    between atoms: C_13  and  N_26 
REMARK   14  A    between atoms: C_14  and  O_33 
REMARK   15  A    between atoms: C_15  and  O_34 
REMARK   16  A    between atoms: C_22  and  C_16 
REMARK   17  A    between atoms: C_16  and  O_35 
REMARK   18  A    between atoms: C_17  and  O_36 
REMARK   19  A    between atoms: C_18  and  O_37 
REMARK   20  A    between atoms: C_19  and  O_38 
REMARK   21  A    between atoms: C_20  and  O_39 
REMARK   22  A    between atoms: C_21  and  O_40 
REMARK   23  A    between atoms: C_22  and  O_43 
REMARK   24  A    between atoms: C_23  and  O_44 
REMARK   25  A    between atoms: C_24  and  O_44 
REMARK   26  A    between atoms: C_25  and  O_43 
ROOT
HETATM    1  C   UNK N   1      34.361  12.634   8.302  0.00  0.00     0.180 C 
HETATM    2  C   UNK N   1      36.743  12.979   7.667  0.00  0.00     0.183 C 
HETATM    3  C   UNK N   1      37.023  12.607   9.170  0.00  0.00     0.204 C 
HETATM    4  C   UNK N   1      35.304  13.543   7.491  0.00  0.00     0.187 C 
HETATM    5  C   UNK N   1      35.909  13.194  10.063  0.00  0.00     0.292 C 
HETATM    6  O   UNK N   1      34.655  12.618   9.704  0.00  0.00    -0.348 OA
ENDROOT
BRANCH   4   7
HETATM    7  O   UNK N   1      34.840  13.615   6.145  0.00  0.00    -0.348 OA
BRANCH   7   8
HETATM    8  C   UNK N   1      35.271  14.766   5.425  0.00  0.00     0.292 C 
HETATM    9  C   UNK N   1      34.440  14.931   4.129  0.00  0.00     0.204 C 
HETATM   10  C   UNK N   1      33.018  15.449   4.434  0.00  0.00     0.176 C 
HETATM   11  C   UNK N   1      33.182  16.767   5.204  0.00  0.00     0.137 C 
HETATM   12  C   UNK N   1      33.993  16.492   6.483  0.00  0.00     0.145 C 
HETATM   13  C   UNK N   1      34.177  17.783   7.262  0.00  0.00     0.042 C 
HETATM   14  O   UNK N   1      35.289  15.982   6.180  0.00  0.00    -0.352 OA
BRANCH   9  15
HETATM   15  O   UNK N   1      34.389  13.723   3.431  0.00  0.00    -0.388 OA
HETATM   16  H   UNK N   1      34.078  13.290   2.620  0.00  0.00     0.210 HD
ENDBRANCH   9  15
BRANCH  10  17
HETATM   17  O   UNK N   1      32.333  15.672   3.236  0.00  0.00    -0.391 OA
HETATM   18  H   UNK N   1      31.743  15.002   2.858  0.00  0.00     0.210 HD
ENDBRANCH  10  17
BRANCH  11  19
HETATM   19  N   UNK N   1      31.936  17.529   5.446  0.00  0.00    -0.402 N 
HETATM   20  H   UNK N   1      31.963  18.544   5.357  0.00  0.00     0.154 HD
BRANCH  19  21
HETATM   21  C   UNK N   1      30.656  16.892   5.809  0.00  0.00     0.132 C 
HETATM   22  C   UNK N   1      30.275  17.104   7.262  0.00  0.00     0.008 C 
HETATM   23  C   UNK N   1      29.061  17.526   7.677  0.00  0.00    -0.027 C 
HETATM   24  C   UNK N   1      27.925  17.793   6.711  0.00  0.00     0.180 C 
HETATM   25  C   UNK N   1      28.174  17.180   5.322  0.00  0.00     0.182 C 
HETATM   26  C   UNK N   1      29.594  17.514   4.866  0.00  0.00     0.175 C 
BRANCH  23  27
HETATM   27  C   UNK N   1      28.842  17.756   9.139  0.00  0.00     0.201 C 
BRANCH  27  28
HETATM   28  O   UNK N   1      27.507  18.073   9.390  0.00  0.00    -0.397 OA
HETATM   29  H   UNK N   1      26.689  17.728   9.780  0.00  0.00     0.209 HD
ENDBRANCH  27  28
ENDBRANCH  23  27
BRANCH  24  30
HETATM   30  O   UNK N   1      27.754  19.176   6.605  0.00  0.00    -0.388 OA
HETATM   31  H   UNK N   1      27.642  19.998   6.102  0.00  0.00     0.210 HD
ENDBRANCH  24  30
BRANCH  25  32
HETATM   32  O   UNK N   1      28.008  15.792   5.372  0.00  0.00    -0.390 OA
HETATM   33  H   UNK N   1      27.636  14.899   5.301  0.00  0.00     0.210 HD
ENDBRANCH  25  32
BRANCH  26  34
HETATM   34  O   UNK N   1      29.801  17.074   3.557  0.00  0.00    -0.391 OA
HETATM   35  H   UNK N   1      29.914  17.719   2.840  0.00  0.00     0.210 HD
ENDBRANCH  26  34
ENDBRANCH  19  21
ENDBRANCH  11  19
ENDBRANCH   7   8
ENDBRANCH   4   7
BRANCH   1  36
HETATM   36  C   UNK N   1      32.904  13.033   8.123  0.00  0.00     0.198 C 
BRANCH  36  37
HETATM   37  O   UNK N   1      32.262  13.090   9.354  0.00  0.00    -0.398 OA
HETATM   38  H   UNK N   1      31.331  13.002   9.614  0.00  0.00     0.209 HD
ENDBRANCH  36  37
ENDBRANCH   1  36
BRANCH   2  39
HETATM   39  O   UNK N   1      37.669  13.930   7.237  0.00  0.00    -0.390 OA
HETATM   40  H   UNK N   1      38.053  14.803   7.059  0.00  0.00     0.210 HD
ENDBRANCH   2  39
BRANCH   3  41
HETATM   41  O   UNK N   1      37.022  11.216   9.320  0.00  0.00    -0.388 OA
HETATM   42  H   UNK N   1      36.601  10.415   8.972  0.00  0.00     0.210 HD
ENDBRANCH   3  41
BRANCH   5  43
HETATM   43  O   UNK N   1      36.134  12.943  11.440  0.00  0.00    -0.348 OA
BRANCH  43  44
HETATM   44  C   UNK N   1      36.276  14.103  12.292  0.00  0.00     0.187 C 
BRANCH  44  45
HETATM   45  C   UNK N   1      35.896  15.513  11.649  0.00  0.00     0.173 C 
BRANCH  45  46
HETATM   46  C   UNK N   1      34.684  15.386  10.719  0.00  0.00     0.198 C 
BRANCH  46  47
HETATM   47  O   UNK N   1      33.555  14.913  11.385  0.00  0.00    -0.398 OA
HETATM   48  H   UNK N   1      33.652  14.363  12.177  0.00  0.00     0.209 HD
ENDBRANCH  46  47
ENDBRANCH  45  46
BRANCH  45  49
HETATM   49  O   UNK N   1      36.917  16.062  10.885  0.00  0.00    -0.391 OA
HETATM   50  H   UNK N   1      37.829  16.116  11.212  0.00  0.00     0.210 HD
ENDBRANCH  45  49
ENDBRANCH  44  45
BRANCH  44  51
HETATM   51  C   UNK N   1      35.488  13.799  13.609  0.00  0.00     0.185 C 
BRANCH  51  52
HETATM   52  C   UNK N   1      36.319  13.092  14.725  0.00  0.00     0.210 C 
BRANCH  52  53
HETATM   53  C   UNK N   1      35.539  13.070  16.010  0.00  0.00     0.265 C 
HETATM   54  O   UNK N   1      34.325  13.209  16.015  0.00  0.00    -0.304 OA
ENDBRANCH  52  53
BRANCH  52  55
HETATM   55  O   UNK N   1      37.564  13.674  14.959  0.00  0.00    -0.386 OA
HETATM   56  H   UNK N   1      38.309  13.561  14.349  0.00  0.00     0.210 HD
ENDBRANCH  52  55
ENDBRANCH  51  52
BRANCH  51  57
HETATM   57  O   UNK N   1      34.429  12.934  13.303  0.00  0.00    -0.390 OA
HETATM   58  H   UNK N   1      34.437  12.411  12.486  0.00  0.00     0.210 HD
ENDBRANCH  51  57
ENDBRANCH  44  51
ENDBRANCH  43  44
ENDBRANCH   5  43
TORSDOF 26
ENDMDL
MODEL 7
REMARK VINA RESULT:      -6.6      3.751     12.699
REMARK  26 active torsions:
REMARK  status: ('A' for Active; 'I' for Inactive)
REMARK    1  A    between atoms: C_8  and  C_3 
REMARK    2  A    between atoms: O_27  and  C_3 
REMARK    3  A    between atoms: C_10  and  C_4 
REMARK    4  A    between atoms: C_11  and  C_5 
REMARK    5  A    between atoms: O_29  and  C_5 
REMARK    6  A    between atoms: C_12  and  C_6 
REMARK    7  A    between atoms: O_30  and  C_6 
REMARK    8  A    between atoms: C_9  and  N_26 
REMARK    9  A    between atoms: C_16  and  C_10 
REMARK   10  A    between atoms: C_10  and  O_31 
REMARK   11  A    between atoms: C_22  and  C_11 
REMARK   12  A    between atoms: C_11  and  O_32 
REMARK   13  A    between atoms: C_13  and  N_26 
REMARK   14  A    between atoms: C_14  and  O_33 
REMARK   15  A    between atoms: C_15  and  O_34 
REMARK   16  A    between atoms: C_22  and  C_16 
REMARK   17  A    between atoms: C_16  and  O_35 
REMARK   18  A    between atoms: C_17  and  O_36 
REMARK   19  A    between atoms: C_18  and  O_37 
REMARK   20  A    between atoms: C_19  and  O_38 
REMARK   21  A    between atoms: C_20  and  O_39 
REMARK   22  A    between atoms: C_21  and  O_40 
REMARK   23  A    between atoms: C_22  and  O_43 
REMARK   24  A    between atoms: C_23  and  O_44 
REMARK   25  A    between atoms: C_24  and  O_44 
REMARK   26  A    between atoms: C_25  and  O_43 
ROOT
HETATM    1  C   UNK N   1      30.912  17.284   6.958  0.00  0.00     0.180 C 
HETATM    2  C   UNK N   1      32.302  16.158   5.227  0.00  0.00     0.183 C 
HETATM    3  C   UNK N   1      31.208  16.700   4.235  0.00  0.00     0.204 C 
HETATM    4  C   UNK N   1      31.728  16.011   6.665  0.00  0.00     0.187 C 
HETATM    5  C   UNK N   1      29.821  16.632   4.909  0.00  0.00     0.292 C 
HETATM    6  O   UNK N   1      29.808  17.470   6.063  0.00  0.00    -0.348 OA
ENDROOT
BRANCH   4   7
HETATM    7  O   UNK N   1      32.699  15.832   7.692  0.00  0.00    -0.348 OA
BRANCH   7   8
HETATM    8  C   UNK N   1      34.027  16.198   7.329  0.00  0.00     0.292 C 
HETATM    9  C   UNK N   1      34.657  17.091   8.427  0.00  0.00     0.204 C 
HETATM   10  C   UNK N   1      35.048  16.263   9.669  0.00  0.00     0.176 C 
HETATM   11  C   UNK N   1      35.999  15.159   9.186  0.00  0.00     0.137 C 
HETATM   12  C   UNK N   1      35.272  14.315   8.124  0.00  0.00     0.145 C 
HETATM   13  C   UNK N   1      36.194  13.217   7.621  0.00  0.00     0.042 C 
HETATM   14  O   UNK N   1      34.889  15.105   7.001  0.00  0.00    -0.352 OA
BRANCH   9  15
HETATM   15  O   UNK N   1      33.782  18.122   8.773  0.00  0.00    -0.388 OA
HETATM   16  H   UNK N   1      33.443  18.661   9.506  0.00  0.00     0.210 HD
ENDBRANCH   9  15
BRANCH  10  17
HETATM   17  O   UNK N   1      35.695  17.085  10.596  0.00  0.00    -0.391 OA
HETATM   18  H   UNK N   1      36.093  16.722  11.403  0.00  0.00     0.210 HD
ENDBRANCH  10  17
BRANCH  11  19
HETATM   19  N   UNK N   1      36.638  14.350  10.249  0.00  0.00    -0.402 N 
HETATM   20  H   UNK N   1      37.654  14.264  10.248  0.00  0.00     0.154 HD
BRANCH  19  21
HETATM   21  C   UNK N   1      35.877  13.663  11.310  0.00  0.00     0.132 C 
HETATM   22  C   UNK N   1      35.903  12.152  11.179  0.00  0.00     0.008 C 
HETATM   23  C   UNK N   1      36.191  11.304  12.189  0.00  0.00    -0.027 C 
HETATM   24  C   UNK N   1      36.483  11.793  13.594  0.00  0.00     0.180 C 
HETATM   25  C   UNK N   1      36.044  13.251  13.816  0.00  0.00     0.182 C 
HETATM   26  C   UNK N   1      36.523  14.110  12.647  0.00  0.00     0.175 C 
BRANCH  23  27
HETATM   27  C   UNK N   1      36.244   9.837  11.904  0.00  0.00     0.201 C 
BRANCH  27  28
HETATM   28  O   UNK N   1      37.492   9.317  12.244  0.00  0.00    -0.397 OA
HETATM   29  H   UNK N   1      38.022   8.999  12.992  0.00  0.00     0.209 HD
ENDBRANCH  27  28
ENDBRANCH  23  27
BRANCH  24  30
HETATM   30  O   UNK N   1      37.853  11.659  13.830  0.00  0.00    -0.388 OA
HETATM   31  H   UNK N   1      38.787  11.814  13.616  0.00  0.00     0.210 HD
ENDBRANCH  24  30
BRANCH  25  32
HETATM   32  O   UNK N   1      34.650  13.323  13.915  0.00  0.00    -0.390 OA
HETATM   33  H   UNK N   1      33.709  13.091  13.944  0.00  0.00     0.210 HD
ENDBRANCH  25  32
BRANCH  26  34
HETATM   34  O   UNK N   1      36.244  15.457  12.885  0.00  0.00    -0.391 OA
HETATM   35  H   UNK N   1      35.410  15.712  13.312  0.00  0.00     0.210 HD
ENDBRANCH  26  34
ENDBRANCH  19  21
ENDBRANCH  11  19
ENDBRANCH   7   8
ENDBRANCH   4   7
BRANCH   1  36
HETATM   36  C   UNK N   1      30.380  17.297   8.383  0.00  0.00     0.198 C 
BRANCH  36  37
HETATM   37  O   UNK N   1      31.099  18.196   9.161  0.00  0.00    -0.398 OA
HETATM   38  H   UNK N   1      31.642  18.086   9.957  0.00  0.00     0.209 HD
ENDBRANCH  36  37
ENDBRANCH   1  36
BRANCH   2  39
HETATM   39  O   UNK N   1      32.766  14.918   4.785  0.00  0.00    -0.390 OA
HETATM   40  H   UNK N   1      33.370  14.168   4.666  0.00  0.00     0.210 HD
ENDBRANCH   2  39
BRANCH   3  41
HETATM   41  O   UNK N   1      31.478  18.035   3.917  0.00  0.00    -0.388 OA
HETATM   42  H   UNK N   1      31.177  18.755   3.342  0.00  0.00     0.210 HD
ENDBRANCH   3  41
BRANCH   5  43
HETATM   43  O   UNK N   1      28.780  17.054   4.045  0.00  0.00    -0.348 OA
BRANCH  43  44
HETATM   44  C   UNK N   1      27.447  17.081   4.605  0.00  0.00     0.187 C 
BRANCH  44  45
HETATM   45  C   UNK N   1      27.236  16.310   5.986  0.00  0.00     0.173 C 
BRANCH  45  46
HETATM   46  C   UNK N   1      26.019  15.380   5.919  0.00  0.00     0.198 C 
BRANCH  46  47
HETATM   47  O   UNK N   1      24.878  15.966   6.463  0.00  0.00    -0.398 OA
HETATM   48  H   UNK N   1      24.335  16.565   5.926  0.00  0.00     0.209 HD
ENDBRANCH  46  47
ENDBRANCH  45  46
BRANCH  45  49
HETATM   49  O   UNK N   1      27.017  17.160   7.062  0.00  0.00    -0.391 OA
HETATM   50  H   UNK N   1      27.265  16.915   7.968  0.00  0.00     0.210 HD
ENDBRANCH  45  49
ENDBRANCH  44  45
BRANCH  44  51
HETATM   51  C   UNK N   1      27.010  18.582   4.670  0.00  0.00     0.185 C 
BRANCH  51  52
HETATM   52  C   UNK N   1      25.502  18.842   4.359  0.00  0.00     0.210 C 
BRANCH  52  53
HETATM   53  C   UNK N   1      25.327  20.224   3.794  0.00  0.00     0.265 C 
HETATM   54  O   UNK N   1      25.256  20.411   2.589  0.00  0.00    -0.304 OA
ENDBRANCH  52  53
BRANCH  52  55
HETATM   55  O   UNK N   1      24.663  18.691   5.461  0.00  0.00    -0.386 OA
HETATM   56  H   UNK N   1      24.280  19.452   5.925  0.00  0.00     0.210 HD
ENDBRANCH  52  55
ENDBRANCH  51  52
BRANCH  51  57
HETATM   57  O   UNK N   1      27.736  19.297   3.709  0.00  0.00    -0.390 OA
HETATM   58  H   UNK N   1      28.092  18.852   2.923  0.00  0.00     0.210 HD
ENDBRANCH  51  57
ENDBRANCH  44  51
ENDBRANCH  43  44
ENDBRANCH   5  43
TORSDOF 26
ENDMDL
MODEL 8
REMARK VINA RESULT:      -6.6      2.754      5.530
REMARK  26 active torsions:
REMARK  status: ('A' for Active; 'I' for Inactive)
REMARK    1  A    between atoms: C_8  and  C_3 
REMARK    2  A    between atoms: O_27  and  C_3 
REMARK    3  A    between atoms: C_10  and  C_4 
REMARK    4  A    between atoms: C_11  and  C_5 
REMARK    5  A    between atoms: O_29  and  C_5 
REMARK    6  A    between atoms: C_12  and  C_6 
REMARK    7  A    between atoms: O_30  and  C_6 
REMARK    8  A    between atoms: C_9  and  N_26 
REMARK    9  A    between atoms: C_16  and  C_10 
REMARK   10  A    between atoms: C_10  and  O_31 
REMARK   11  A    between atoms: C_22  and  C_11 
REMARK   12  A    between atoms: C_11  and  O_32 
REMARK   13  A    between atoms: C_13  and  N_26 
REMARK   14  A    between atoms: C_14  and  O_33 
REMARK   15  A    between atoms: C_15  and  O_34 
REMARK   16  A    between atoms: C_22  and  C_16 
REMARK   17  A    between atoms: C_16  and  O_35 
REMARK   18  A    between atoms: C_17  and  O_36 
REMARK   19  A    between atoms: C_18  and  O_37 
REMARK   20  A    between atoms: C_19  and  O_38 
REMARK   21  A    between atoms: C_20  and  O_39 
REMARK   22  A    between atoms: C_21  and  O_40 
REMARK   23  A    between atoms: C_22  and  O_43 
REMARK   24  A    between atoms: C_23  and  O_44 
REMARK   25  A    between atoms: C_24  and  O_44 
REMARK   26  A    between atoms: C_25  and  O_43 
ROOT
HETATM    1  C   UNK N   1      33.932  17.237   8.939  0.00  0.00     0.180 C 
HETATM    2  C   UNK N   1      32.541  15.196   9.247  0.00  0.00     0.183 C 
HETATM    3  C   UNK N   1      33.808  14.650  10.004  0.00  0.00     0.204 C 
HETATM    4  C   UNK N   1      32.933  16.304   8.228  0.00  0.00     0.187 C 
HETATM    5  C   UNK N   1      35.086  15.151   9.298  0.00  0.00     0.292 C 
HETATM    6  O   UNK N   1      35.134  16.576   9.350  0.00  0.00    -0.348 OA
ENDROOT
BRANCH   4   7
HETATM    7  O   UNK N   1      31.849  17.077   7.724  0.00  0.00    -0.348 OA
BRANCH   7   8
HETATM    8  C   UNK N   1      30.740  16.317   7.254  0.00  0.00     0.292 C 
HETATM    9  C   UNK N   1      29.413  16.923   7.774  0.00  0.00     0.204 C 
HETATM   10  C   UNK N   1      29.054  18.221   7.021  0.00  0.00     0.176 C 
HETATM   11  C   UNK N   1      28.997  17.867   5.528  0.00  0.00     0.137 C 
HETATM   12  C   UNK N   1      30.365  17.302   5.105  0.00  0.00     0.145 C 
HETATM   13  C   UNK N   1      30.335  16.935   3.631  0.00  0.00     0.042 C 
HETATM   14  O   UNK N   1      30.693  16.124   5.837  0.00  0.00    -0.352 OA
BRANCH   9  15
HETATM   15  O   UNK N   1      29.493  17.153   9.149  0.00  0.00    -0.388 OA
HETATM   16  H   UNK N   1      29.160  16.880  10.019  0.00  0.00     0.210 HD
ENDBRANCH   9  15
BRANCH  10  17
HETATM   17  O   UNK N   1      27.809  18.686   7.454  0.00  0.00    -0.391 OA
HETATM   18  H   UNK N   1      27.591  19.631   7.448  0.00  0.00     0.210 HD
ENDBRANCH  10  17
BRANCH  11  19
HETATM   19  N   UNK N   1      28.495  18.934   4.633  0.00  0.00    -0.402 N 
HETATM   20  H   UNK N   1      29.075  19.761   4.492  0.00  0.00     0.154 HD
BRANCH  19  21
HETATM   21  C   UNK N   1      27.198  18.861   3.935  0.00  0.00     0.132 C 
HETATM   22  C   UNK N   1      26.810  17.448   3.543  0.00  0.00     0.008 C 
HETATM   23  C   UNK N   1      25.603  16.893   3.786  0.00  0.00    -0.027 C 
HETATM   24  C   UNK N   1      24.482  17.663   4.453  0.00  0.00     0.180 C 
HETATM   25  C   UNK N   1      24.727  19.182   4.456  0.00  0.00     0.182 C 
HETATM   26  C   UNK N   1      26.158  19.465   4.913  0.00  0.00     0.175 C 
BRANCH  23  27
HETATM   27  C   UNK N   1      25.377  15.465   3.403  0.00  0.00     0.201 C 
BRANCH  27  28
HETATM   28  O   UNK N   1      24.013  15.188   3.328  0.00  0.00    -0.397 OA
HETATM   29  H   UNK N   1      23.369  14.463   3.312  0.00  0.00     0.209 HD
ENDBRANCH  27  28
ENDBRANCH  23  27
BRANCH  24  30
HETATM   30  O   UNK N   1      24.342  17.194   5.762  0.00  0.00    -0.388 OA
HETATM   31  H   UNK N   1      24.193  17.314   6.713  0.00  0.00     0.210 HD
ENDBRANCH  24  30
BRANCH  25  32
HETATM   32  O   UNK N   1      24.530  19.704   3.173  0.00  0.00    -0.390 OA
HETATM   33  H   UNK N   1      24.602  19.879   2.222  0.00  0.00     0.210 HD
ENDBRANCH  25  32
BRANCH  26  34
HETATM   34  O   UNK N   1      26.366  20.839   5.042  0.00  0.00    -0.391 OA
HETATM   35  H   UNK N   1      27.131  21.170   5.539  0.00  0.00     0.210 HD
ENDBRANCH  26  34
ENDBRANCH  19  21
ENDBRANCH  11  19
ENDBRANCH   7   8
ENDBRANCH   4   7
BRANCH   1  36
HETATM   36  C   UNK N   1      34.313  18.423   8.067  0.00  0.00     0.198 C 
BRANCH  36  37
HETATM   37  O   UNK N   1      35.334  19.155   8.661  0.00  0.00    -0.398 OA
HETATM   38  H   UNK N   1      35.824  19.044   9.490  0.00  0.00     0.209 HD
ENDBRANCH  36  37
ENDBRANCH   1  36
BRANCH   2  39
HETATM   39  O   UNK N   1      31.908  14.150   8.573  0.00  0.00    -0.390 OA
HETATM   40  H   UNK N   1      31.204  13.534   8.316  0.00  0.00     0.210 HD
ENDBRANCH   2  39
BRANCH   3  41
HETATM   41  O   UNK N   1      33.814  15.127  11.319  0.00  0.00    -0.388 OA
HETATM   42  H   UNK N   1      34.407  15.508  11.985  0.00  0.00     0.210 HD
ENDBRANCH   3  41
BRANCH   5  43
HETATM   43  O   UNK N   1      36.266  14.646   9.898  0.00  0.00    -0.348 OA
BRANCH  43  44
HETATM   44  C   UNK N   1      36.415  13.207   9.917  0.00  0.00     0.187 C 
BRANCH  44  45
HETATM   45  C   UNK N   1      36.915  12.522   8.565  0.00  0.00     0.173 C 
BRANCH  45  46
HETATM   46  C   UNK N   1      35.810  11.661   7.943  0.00  0.00     0.198 C 
BRANCH  46  47
HETATM   47  O   UNK N   1      34.750  11.446   8.823  0.00  0.00    -0.398 OA
HETATM   48  H   UNK N   1      34.768  11.837   9.710  0.00  0.00     0.209 HD
ENDBRANCH  46  47
ENDBRANCH  45  46
BRANCH  45  49
HETATM   49  O   UNK N   1      38.007  11.684   8.745  0.00  0.00    -0.391 OA
HETATM   50  H   UNK N   1      37.901  10.739   8.942  0.00  0.00     0.210 HD
ENDBRANCH  45  49
ENDBRANCH  44  45
BRANCH  44  51
HETATM   51  C   UNK N   1      37.316  12.859  11.148  0.00  0.00     0.185 C 
BRANCH  51  52
HETATM   52  C   UNK N   1      36.752  13.323  12.528  0.00  0.00     0.210 C 
BRANCH  52  53
HETATM   53  C   UNK N   1      35.469  12.599  12.827  0.00  0.00     0.265 C 
HETATM   54  O   UNK N   1      34.565  13.144  13.442  0.00  0.00    -0.304 OA
ENDBRANCH  52  53
BRANCH  52  55
HETATM   55  O   UNK N   1      36.531  14.696  12.615  0.00  0.00    -0.386 OA
HETATM   56  H   UNK N   1      35.649  15.085  12.506  0.00  0.00     0.210 HD
ENDBRANCH  52  55
ENDBRANCH  51  52
BRANCH  51  57
HETATM   57  O   UNK N   1      38.549  13.506  10.992  0.00  0.00    -0.390 OA
HETATM   58  H   UNK N   1      38.594  14.408  10.638  0.00  0.00     0.210 HD
ENDBRANCH  51  57
ENDBRANCH  44  51
ENDBRANCH  43  44
ENDBRANCH   5  43
TORSDOF 26
ENDMDL
MODEL 9
REMARK VINA RESULT:      -6.6      2.326     11.647
REMARK  26 active torsions:
REMARK  status: ('A' for Active; 'I' for Inactive)
REMARK    1  A    between atoms: C_8  and  C_3 
REMARK    2  A    between atoms: O_27  and  C_3 
REMARK    3  A    between atoms: C_10  and  C_4 
REMARK    4  A    between atoms: C_11  and  C_5 
REMARK    5  A    between atoms: O_29  and  C_5 
REMARK    6  A    between atoms: C_12  and  C_6 
REMARK    7  A    between atoms: O_30  and  C_6 
REMARK    8  A    between atoms: C_9  and  N_26 
REMARK    9  A    between atoms: C_16  and  C_10 
REMARK   10  A    between atoms: C_10  and  O_31 
REMARK   11  A    between atoms: C_22  and  C_11 
REMARK   12  A    between atoms: C_11  and  O_32 
REMARK   13  A    between atoms: C_13  and  N_26 
REMARK   14  A    between atoms: C_14  and  O_33 
REMARK   15  A    between atoms: C_15  and  O_34 
REMARK   16  A    between atoms: C_22  and  C_16 
REMARK   17  A    between atoms: C_16  and  O_35 
REMARK   18  A    between atoms: C_17  and  O_36 
REMARK   19  A    between atoms: C_18  and  O_37 
REMARK   20  A    between atoms: C_19  and  O_38 
REMARK   21  A    between atoms: C_20  and  O_39 
REMARK   22  A    between atoms: C_21  and  O_40 
REMARK   23  A    between atoms: C_22  and  O_43 
REMARK   24  A    between atoms: C_23  and  O_44 
REMARK   25  A    between atoms: C_24  and  O_44 
REMARK   26  A    between atoms: C_25  and  O_43 
ROOT
HETATM    1  C   UNK N   1      26.339  20.559   4.898  0.00  0.00     0.180 C 
HETATM    2  C   UNK N   1      26.359  18.662   3.286  0.00  0.00     0.183 C 
HETATM    3  C   UNK N   1      25.030  19.317   2.757  0.00  0.00     0.204 C 
HETATM    4  C   UNK N   1      26.620  19.049   4.769  0.00  0.00     0.187 C 
HETATM    5  C   UNK N   1      24.228  19.889   3.945  0.00  0.00     0.292 C 
HETATM    6  O   UNK N   1      24.987  20.913   4.585  0.00  0.00    -0.348 OA
ENDROOT
BRANCH   4   7
HETATM    7  O   UNK N   1      27.935  18.777   5.247  0.00  0.00    -0.348 OA
BRANCH   7   8
HETATM    8  C   UNK N   1      28.111  17.476   5.801  0.00  0.00     0.292 C 
HETATM    9  C   UNK N   1      29.282  16.747   5.096  0.00  0.00     0.204 C 
HETATM   10  C   UNK N   1      30.647  17.307   5.549  0.00  0.00     0.176 C 
HETATM   11  C   UNK N   1      30.699  17.169   7.078  0.00  0.00     0.137 C 
HETATM   12  C   UNK N   1      29.516  17.949   7.680  0.00  0.00     0.145 C 
HETATM   13  C   UNK N   1      29.537  17.824   9.195  0.00  0.00     0.042 C 
HETATM   14  O   UNK N   1      28.267  17.439   7.223  0.00  0.00    -0.352 OA
BRANCH   9  15
HETATM   15  O   UNK N   1      29.144  16.838   3.710  0.00  0.00    -0.388 OA
HETATM   16  H   UNK N   1      29.363  17.365   2.925  0.00  0.00     0.210 HD
ENDBRANCH   9  15
BRANCH  10  17
HETATM   17  O   UNK N   1      31.676  16.563   4.964  0.00  0.00    -0.391 OA
HETATM   18  H   UNK N   1      31.500  15.723   4.513  0.00  0.00     0.210 HD
ENDBRANCH  10  17
BRANCH  11  19
HETATM   19  N   UNK N   1      32.000  17.488   7.708  0.00  0.00    -0.402 N 
HETATM   20  H   UNK N   1      32.162  18.441   8.030  0.00  0.00     0.154 HD
BRANCH  19  21
HETATM   21  C   UNK N   1      33.073  16.494   7.895  0.00  0.00     0.132 C 
HETATM   22  C   UNK N   1      34.141  16.945   8.873  0.00  0.00     0.008 C 
HETATM   23  C   UNK N   1      34.606  16.194   9.894  0.00  0.00    -0.027 C 
HETATM   24  C   UNK N   1      34.121  14.780  10.141  0.00  0.00     0.180 C 
HETATM   25  C   UNK N   1      33.381  14.188   8.929  0.00  0.00     0.182 C 
HETATM   26  C   UNK N   1      32.372  15.207   8.403  0.00  0.00     0.175 C 
BRANCH  23  27
HETATM   27  C   UNK N   1      35.616  16.790  10.823  0.00  0.00     0.201 C 
BRANCH  27  28
HETATM   28  O   UNK N   1      36.806  16.065  10.781  0.00  0.00    -0.397 OA
HETATM   29  H   UNK N   1      37.179  15.179  10.909  0.00  0.00     0.209 HD
ENDBRANCH  27  28
ENDBRANCH  23  27
BRANCH  24  30
HETATM   30  O   UNK N   1      33.285  14.790  11.260  0.00  0.00    -0.388 OA
HETATM   31  H   UNK N   1      32.567  15.157  11.800  0.00  0.00     0.210 HD
ENDBRANCH  24  30
BRANCH  25  32
HETATM   32  O   UNK N   1      34.294  13.863   7.920  0.00  0.00    -0.390 OA
HETATM   33  H   UNK N   1      34.696  13.509   7.111  0.00  0.00     0.210 HD
ENDBRANCH  25  32
BRANCH  26  34
HETATM   34  O   UNK N   1      31.602  14.647   7.381  0.00  0.00    -0.391 OA
HETATM   35  H   UNK N   1      30.674  14.909   7.273  0.00  0.00     0.210 HD
ENDBRANCH  26  34
ENDBRANCH  19  21
ENDBRANCH  11  19
ENDBRANCH   7   8
ENDBRANCH   4   7
BRANCH   1  36
HETATM   36  C   UNK N   1      26.658  21.074   6.293  0.00  0.00     0.198 C 
BRANCH  36  37
HETATM   37  O   UNK N   1      26.572  20.045   7.222  0.00  0.00    -0.398 OA
HETATM   38  H   UNK N   1      26.621  20.029   8.191  0.00  0.00     0.209 HD
ENDBRANCH  36  37
ENDBRANCH   1  36
BRANCH   2  39
HETATM   39  O   UNK N   1      26.276  17.273   3.178  0.00  0.00    -0.390 OA
HETATM   40  H   UNK N   1      25.876  16.390   3.151  0.00  0.00     0.210 HD
ENDBRANCH   2  39
BRANCH   3  41
HETATM   41  O   UNK N   1      25.335  20.366   1.884  0.00  0.00    -0.388 OA
HETATM   42  H   UNK N   1      24.956  21.177   1.510  0.00  0.00     0.210 HD
ENDBRANCH   3  41
BRANCH   5  43
HETATM   43  O   UNK N   1      22.988  20.444   3.541  0.00  0.00    -0.348 OA
BRANCH  43  44
HETATM   44  C   UNK N   1      21.814  19.628   3.762  0.00  0.00     0.187 C 
BRANCH  44  45
HETATM   45  C   UNK N   1      20.951  19.254   2.473  0.00  0.00     0.173 C 
BRANCH  45  46
HETATM   46  C   UNK N   1      20.986  20.386   1.440  0.00  0.00     0.198 C 
BRANCH  46  47
HETATM   47  O   UNK N   1      20.996  21.645   2.037  0.00  0.00    -0.398 OA
HETATM   48  H   UNK N   1      21.170  22.436   1.503  0.00  0.00     0.209 HD
ENDBRANCH  46  47
ENDBRANCH  45  46
BRANCH  45  49
HETATM   49  O   UNK N   1      19.610  19.028   2.755  0.00  0.00    -0.391 OA
HETATM   50  H   UNK N   1      18.903  19.534   2.325  0.00  0.00     0.210 HD
ENDBRANCH  45  49
ENDBRANCH  44  45
BRANCH  44  51
HETATM   51  C   UNK N   1      22.277  18.372   4.572  0.00  0.00     0.185 C 
BRANCH  51  52
HETATM   52  C   UNK N   1      22.184  17.019   3.797  0.00  0.00     0.210 C 
BRANCH  52  53
HETATM   53  C   UNK N   1      21.121  16.150   4.411  0.00  0.00     0.265 C 
HETATM   54  O   UNK N   1      19.957  16.225   4.050  0.00  0.00    -0.304 OA
ENDBRANCH  52  53
BRANCH  52  55
HETATM   55  O   UNK N   1      23.382  16.309   3.752  0.00  0.00    -0.386 OA
HETATM   56  H   UNK N   1      24.006  16.302   4.495  0.00  0.00     0.210 HD
ENDBRANCH  52  55
ENDBRANCH  51  52
BRANCH  51  57
HETATM   57  O   UNK N   1      21.449  18.237   5.693  0.00  0.00    -0.390 OA
HETATM   58  H   UNK N   1      21.296  17.368   6.096  0.00  0.00     0.210 HD
ENDBRANCH  51  57
ENDBRANCH  44  51
ENDBRANCH  43  44
ENDBRANCH   5  43
TORSDOF 26
ENDMDL
