MODEL 1
REMARK VINA RESULT:      -6.8      0.000      0.000
REMARK  5 active torsions:
REMARK  status: ('A' for Active; 'I' for Inactive)
REMARK    1  A    between atoms: C_4  and  C_7 
REMARK    2  A    between atoms: C_16  and  C_7 
REMARK    3  A    between atoms: C_9  and  C_10 
REMARK    4  A    between atoms: C_10  and  C_14 
REMARK    5  A    between atoms: C_14  and  N_11 
ROOT
HETATM    1  C   UNK N   1      31.685  17.376   6.802  0.00  0.00     0.021 A 
HETATM    2  C   UNK N   1      30.813  17.238   5.722  0.00  0.00    -0.001 A 
HETATM    3  C   UNK N   1      32.603  17.367   4.116  0.00  0.00     0.031 A 
HETATM    4  C   UNK N   1      33.058  17.512   6.522  0.00  0.00    -0.055 A 
HETATM    5  C   UNK N   1      33.510  17.518   5.179  0.00  0.00     0.009 A 
HETATM    6  C   UNK N   1      31.256  17.231   4.431  0.00  0.00     0.043 A 
HETATM    7  C   UNK N   1      29.105  17.049   4.327  0.00  0.00     0.096 A 
HETATM    8  C   UNK N   1      29.449  17.125   5.673  0.00  0.00    -0.029 A 
HETATM    9  N   UNK N   1      30.231  17.110   3.568  0.00  0.00    -0.365 N 
HETATM   10  H   UNK N   1      30.285  17.073   2.585  0.00  0.00     0.165 HD
ENDROOT
BRANCH   4  11
HETATM   11  C   UNK N   1      34.019  17.725   7.650  0.00  0.00     0.066 C 
BRANCH  11  12
HETATM   12  C   UNK N   1      33.799  16.793   8.838  0.00  0.00     0.115 A 
HETATM   13  N   UNK N   1      34.669  17.206   9.906  0.00  0.00    -0.330 N 
HETATM   14  C   UNK N   1      35.546  16.240  10.145  0.00  0.00     0.361 A 
HETATM   15  H   UNK N   1      34.622  18.066  10.382  0.00  0.00     0.165 HD
HETATM   16  O   UNK N   1      36.424  16.333  10.990  0.00  0.00    -0.239 OA
HETATM   17  O   UNK N   1      35.391  15.171   9.372  0.00  0.00    -0.302 OA
HETATM   18  C   UNK N   1      34.320  15.358   8.520  0.00  0.00     0.206 A 
ENDBRANCH  11  12
ENDBRANCH   4  11
BRANCH   8  19
HETATM   19  C   UNK N   1      28.518  17.172   6.838  0.00  0.00     0.071 C 
BRANCH  19  20
HETATM   20  C   UNK N   1      28.478  18.529   7.541  0.00  0.00     0.276 C 
BRANCH  20  21
HETATM   21  N   UNK N   1      28.319  18.451   8.998  0.00  0.00     0.080 N 
HETATM   22  C   UNK N   1      27.928  17.117   9.441  0.00  0.00     0.309 C 
HETATM   23  C   UNK N   1      29.641  18.680   9.556  0.00  0.00     0.309 C 
ENDBRANCH  20  21
ENDBRANCH  19  20
ENDBRANCH   8  19
TORSDOF 5
ENDMDL
MODEL 2
REMARK VINA RESULT:      -6.6      0.935      1.285
REMARK  5 active torsions:
REMARK  status: ('A' for Active; 'I' for Inactive)
REMARK    1  A    between atoms: C_4  and  C_7 
REMARK    2  A    between atoms: C_16  and  C_7 
REMARK    3  A    between atoms: C_9  and  C_10 
REMARK    4  A    between atoms: C_10  and  C_14 
REMARK    5  A    between atoms: C_14  and  N_11 
ROOT
HETATM    1  C   UNK N   1      31.418  17.214   6.500  0.00  0.00     0.021 A 
HETATM    2  C   UNK N   1      30.744  16.975   5.303  0.00  0.00    -0.001 A 
HETATM    3  C   UNK N   1      32.731  17.312   3.985  0.00  0.00     0.031 A 
HETATM    4  C   UNK N   1      32.793  17.510   6.430  0.00  0.00    -0.055 A 
HETATM    5  C   UNK N   1      33.441  17.568   5.172  0.00  0.00     0.009 A 
HETATM    6  C   UNK N   1      31.377  17.019   4.095  0.00  0.00     0.043 A 
HETATM    7  C   UNK N   1      29.303  16.586   3.668  0.00  0.00     0.096 A 
HETATM    8  C   UNK N   1      29.426  16.702   5.049  0.00  0.00    -0.029 A 
HETATM    9  N   UNK N   1      30.517  16.778   3.088  0.00  0.00    -0.365 N 
HETATM   10  H   UNK N   1      30.725  16.746   2.126  0.00  0.00     0.165 HD
ENDROOT
BRANCH   4  11
HETATM   11  C   UNK N   1      33.539  17.835   7.687  0.00  0.00     0.066 C 
BRANCH  11  12
HETATM   12  C   UNK N   1      33.546  16.707   8.715  0.00  0.00     0.115 A 
HETATM   13  N   UNK N   1      34.330  17.127   9.844  0.00  0.00    -0.330 N 
HETATM   14  C   UNK N   1      35.396  16.344   9.942  0.00  0.00     0.361 A 
HETATM   15  H   UNK N   1      34.112  17.875  10.446  0.00  0.00     0.165 HD
HETATM   16  O   UNK N   1      36.251  16.490  10.803  0.00  0.00    -0.239 OA
HETATM   17  O   UNK N   1      35.454  15.397   9.013  0.00  0.00    -0.302 OA
HETATM   18  C   UNK N   1      34.351  15.481   8.186  0.00  0.00     0.206 A 
ENDBRANCH  11  12
ENDBRANCH   4  11
BRANCH   8  19
HETATM   19  C   UNK N   1      28.328  16.640   6.058  0.00  0.00     0.071 C 
BRANCH  19  20
HETATM   20  C   UNK N   1      27.481  17.912   6.126  0.00  0.00     0.276 C 
BRANCH  20  21
HETATM   21  N   UNK N   1      28.161  19.058   6.742  0.00  0.00     0.080 N 
HETATM   22  C   UNK N   1      27.350  20.269   6.701  0.00  0.00     0.309 C 
HETATM   23  C   UNK N   1      28.303  18.727   8.150  0.00  0.00     0.309 C 
ENDBRANCH  20  21
ENDBRANCH  19  20
ENDBRANCH   8  19
TORSDOF 5
ENDMDL
MODEL 3
REMARK VINA RESULT:      -6.3      2.462      3.239
REMARK  5 active torsions:
REMARK  status: ('A' for Active; 'I' for Inactive)
REMARK    1  A    between atoms: C_4  and  C_7 
REMARK    2  A    between atoms: C_16  and  C_7 
REMARK    3  A    between atoms: C_9  and  C_10 
REMARK    4  A    between atoms: C_10  and  C_14 
REMARK    5  A    between atoms: C_14  and  N_11 
ROOT
HETATM    1  C   UNK N   1      30.089  17.219   6.385  0.00  0.00     0.021 A 
HETATM    2  C   UNK N   1      29.415  16.716   5.273  0.00  0.00    -0.001 A 
HETATM    3  C   UNK N   1      30.507  14.576   5.438  0.00  0.00     0.031 A 
HETATM    4  C   UNK N   1      30.998  16.367   7.041  0.00  0.00    -0.055 A 
HETATM    5  C   UNK N   1      31.212  15.053   6.557  0.00  0.00     0.009 A 
HETATM    6  C   UNK N   1      29.614  15.445   4.820  0.00  0.00     0.043 A 
HETATM    7  C   UNK N   1      28.191  16.345   3.466  0.00  0.00     0.096 A 
HETATM    8  C   UNK N   1      28.515  17.302   4.422  0.00  0.00    -0.029 A 
HETATM    9  N   UNK N   1      28.872  15.198   3.725  0.00  0.00    -0.365 N 
HETATM   10  H   UNK N   1      28.831  14.357   3.214  0.00  0.00     0.165 HD
ENDROOT
BRANCH   4  11
HETATM   11  C   UNK N   1      31.788  16.890   8.200  0.00  0.00     0.066 C 
BRANCH  11  12
HETATM   12  C   UNK N   1      33.292  16.658   8.083  0.00  0.00     0.115 A 
HETATM   13  N   UNK N   1      33.964  17.594   8.943  0.00  0.00    -0.330 N 
HETATM   14  C   UNK N   1      34.691  18.417   8.200  0.00  0.00     0.361 A 
HETATM   15  H   UNK N   1      33.894  17.621   9.925  0.00  0.00     0.165 HD
HETATM   16  O   UNK N   1      35.351  19.331   8.670  0.00  0.00    -0.239 OA
HETATM   17  O   UNK N   1      34.625  18.163   6.897  0.00  0.00    -0.302 OA
HETATM   18  C   UNK N   1      33.807  17.073   6.671  0.00  0.00     0.206 A 
ENDBRANCH  11  12
ENDBRANCH   4  11
BRANCH   8  19
HETATM   19  C   UNK N   1      28.053  18.720   4.468  0.00  0.00     0.071 C 
BRANCH  19  20
HETATM   20  C   UNK N   1      27.095  19.019   5.623  0.00  0.00     0.276 C 
BRANCH  20  21
HETATM   21  N   UNK N   1      26.294  20.236   5.443  0.00  0.00     0.080 N 
HETATM   22  C   UNK N   1      26.932  21.410   6.027  0.00  0.00     0.309 C 
HETATM   23  C   UNK N   1      26.255  20.480   4.011  0.00  0.00     0.309 C 
ENDBRANCH  20  21
ENDBRANCH  19  20
ENDBRANCH   8  19
TORSDOF 5
ENDMDL
MODEL 4
REMARK VINA RESULT:      -6.2      1.225      3.748
REMARK  5 active torsions:
REMARK  status: ('A' for Active; 'I' for Inactive)
REMARK    1  A    between atoms: C_4  and  C_7 
REMARK    2  A    between atoms: C_16  and  C_7 
REMARK    3  A    between atoms: C_9  and  C_10 
REMARK    4  A    between atoms: C_10  and  C_14 
REMARK    5  A    between atoms: C_14  and  N_11 
ROOT
HETATM    1  C   UNK N   1      31.018  17.072   6.960  0.00  0.00     0.021 A 
HETATM    2  C   UNK N   1      29.639  17.153   6.768  0.00  0.00    -0.001 A 
HETATM    3  C   UNK N   1      29.326  18.470   8.760  0.00  0.00     0.031 A 
HETATM    4  C   UNK N   1      31.562  17.714   8.089  0.00  0.00    -0.055 A 
HETATM    5  C   UNK N   1      30.712  18.401   8.990  0.00  0.00     0.009 A 
HETATM    6  C   UNK N   1      28.827  17.827   7.633  0.00  0.00     0.043 A 
HETATM    7  C   UNK N   1      27.528  16.990   6.123  0.00  0.00     0.096 A 
HETATM    8  C   UNK N   1      28.829  16.613   5.804  0.00  0.00    -0.029 A 
HETATM    9  N   UNK N   1      27.539  17.745   7.252  0.00  0.00    -0.365 N 
HETATM   10  H   UNK N   1      26.762  18.150   7.701  0.00  0.00     0.165 HD
ENDROOT
BRANCH   4  11
HETATM   11  C   UNK N   1      33.029  17.598   8.364  0.00  0.00     0.066 C 
BRANCH  11  12
HETATM   12  C   UNK N   1      33.407  16.391   9.218  0.00  0.00     0.115 A 
HETATM   13  N   UNK N   1      34.328  16.825  10.234  0.00  0.00    -0.330 N 
HETATM   14  C   UNK N   1      35.497  16.231  10.037  0.00  0.00     0.361 A 
HETATM   15  H   UNK N   1      34.123  17.460  10.958  0.00  0.00     0.165 HD
HETATM   16  O   UNK N   1      36.474  16.436  10.742  0.00  0.00    -0.239 OA
HETATM   17  O   UNK N   1      35.512  15.406   8.996  0.00  0.00    -0.302 OA
HETATM   18  C   UNK N   1      34.267  15.381   8.398  0.00  0.00     0.206 A 
ENDBRANCH  11  12
ENDBRANCH   4  11
BRANCH   8  19
HETATM   19  C   UNK N   1      29.260  15.720   4.690  0.00  0.00     0.071 C 
BRANCH  19  20
HETATM   20  C   UNK N   1      29.743  16.472   3.449  0.00  0.00     0.276 C 
BRANCH  20  21
HETATM   21  N   UNK N   1      31.099  16.112   3.014  0.00  0.00     0.080 N 
HETATM   22  C   UNK N   1      32.084  17.124   3.381  0.00  0.00     0.309 C 
HETATM   23  C   UNK N   1      31.457  14.923   3.768  0.00  0.00     0.309 C 
ENDBRANCH  20  21
ENDBRANCH  19  20
ENDBRANCH   8  19
TORSDOF 5
ENDMDL
MODEL 5
REMARK VINA RESULT:      -6.0     13.684     15.909
REMARK  5 active torsions:
REMARK  status: ('A' for Active; 'I' for Inactive)
REMARK    1  A    between atoms: C_4  and  C_7 
REMARK    2  A    between atoms: C_16  and  C_7 
REMARK    3  A    between atoms: C_9  and  C_10 
REMARK    4  A    between atoms: C_10  and  C_14 
REMARK    5  A    between atoms: C_14  and  N_11 
ROOT
HETATM    1  C   UNK N   1      26.935  26.822  -3.822  0.00  0.00     0.021 A 
HETATM    2  C   UNK N   1      26.510  25.692  -4.519  0.00  0.00    -0.001 A 
HETATM    3  C   UNK N   1      24.764  26.906  -5.648  0.00  0.00     0.031 A 
HETATM    4  C   UNK N   1      26.249  28.030  -4.051  0.00  0.00    -0.055 A 
HETATM    5  C   UNK N   1      25.159  28.064  -4.955  0.00  0.00     0.009 A 
HETATM    6  C   UNK N   1      25.468  25.733  -5.398  0.00  0.00     0.043 A 
HETATM    7  C   UNK N   1      26.137  23.679  -5.362  0.00  0.00     0.096 A 
HETATM    8  C   UNK N   1      26.946  24.393  -4.483  0.00  0.00    -0.029 A 
HETATM    9  N   UNK N   1      25.231  24.519  -5.927  0.00  0.00    -0.365 N 
HETATM   10  H   UNK N   1      24.540  24.286  -6.589  0.00  0.00     0.165 HD
ENDROOT
BRANCH   4  11
HETATM   11  C   UNK N   1      26.634  29.252  -3.276  0.00  0.00     0.066 C 
BRANCH  11  12
HETATM   12  C   UNK N   1      27.975  29.134  -2.556  0.00  0.00     0.115 A 
HETATM   13  N   UNK N   1      27.761  29.381  -1.156  0.00  0.00    -0.330 N 
HETATM   14  C   UNK N   1      28.410  30.484  -0.809  0.00  0.00     0.361 A 
HETATM   15  H   UNK N   1      27.219  28.822  -0.553  0.00  0.00     0.165 HD
HETATM   16  O   UNK N   1      28.384  30.943   0.323  0.00  0.00    -0.239 OA
HETATM   17  O   UNK N   1      29.081  31.048  -1.807  0.00  0.00    -0.302 OA
HETATM   18  C   UNK N   1      28.924  30.303  -2.960  0.00  0.00     0.206 A 
ENDBRANCH  11  12
ENDBRANCH   4  11
BRANCH   8  19
HETATM   19  C   UNK N   1      28.016  23.846  -3.599  0.00  0.00     0.071 C 
BRANCH  19  20
HETATM   20  C   UNK N   1      29.207  23.265  -4.361  0.00  0.00     0.276 C 
BRANCH  20  21
HETATM   21  N   UNK N   1      30.500  23.446  -3.689  0.00  0.00     0.080 N 
HETATM   22  C   UNK N   1      30.859  24.852  -3.548  0.00  0.00     0.309 C 
HETATM   23  C   UNK N   1      30.319  22.949  -2.336  0.00  0.00     0.309 C 
ENDBRANCH  20  21
ENDBRANCH  19  20
ENDBRANCH   8  19
TORSDOF 5
ENDMDL
MODEL 6
REMARK VINA RESULT:      -6.0      4.541      7.705
REMARK  5 active torsions:
REMARK  status: ('A' for Active; 'I' for Inactive)
REMARK    1  A    between atoms: C_4  and  C_7 
REMARK    2  A    between atoms: C_16  and  C_7 
REMARK    3  A    between atoms: C_9  and  C_10 
REMARK    4  A    between atoms: C_10  and  C_14 
REMARK    5  A    between atoms: C_14  and  N_11 
ROOT
HETATM    1  C   UNK N   1      29.142  17.926   6.358  0.00  0.00     0.021 A 
HETATM    2  C   UNK N   1      30.057  17.323   7.220  0.00  0.00    -0.001 A 
HETATM    3  C   UNK N   1      29.086  18.364   9.162  0.00  0.00     0.031 A 
HETATM    4  C   UNK N   1      28.169  18.773   6.923  0.00  0.00    -0.055 A 
HETATM    5  C   UNK N   1      28.153  18.998   8.322  0.00  0.00     0.009 A 
HETATM    6  C   UNK N   1      30.028  17.531   8.568  0.00  0.00     0.043 A 
HETATM    7  C   UNK N   1      31.706  16.221   8.202  0.00  0.00     0.096 A 
HETATM    8  C   UNK N   1      31.119  16.493   6.971  0.00  0.00    -0.029 A 
HETATM    9  N   UNK N   1      31.020  16.863   9.183  0.00  0.00    -0.365 N 
HETATM   10  H   UNK N   1      31.211  16.844  10.149  0.00  0.00     0.165 HD
ENDROOT
BRANCH   4  11
HETATM   11  C   UNK N   1      27.209  19.489   6.026  0.00  0.00     0.066 C 
BRANCH  11  12
HETATM   12  C   UNK N   1      27.225  18.999   4.580  0.00  0.00     0.115 A 
HETATM   13  N   UNK N   1      27.055  20.135   3.714  0.00  0.00    -0.330 N 
HETATM   14  C   UNK N   1      25.909  20.008   3.059  0.00  0.00     0.361 A 
HETATM   15  H   UNK N   1      27.686  20.885   3.624  0.00  0.00     0.165 HD
HETATM   16  O   UNK N   1      25.499  20.845   2.269  0.00  0.00    -0.239 OA
HETATM   17  O   UNK N   1      25.244  18.895   3.350  0.00  0.00    -0.302 OA
HETATM   18  C   UNK N   1      25.956  18.149   4.270  0.00  0.00     0.206 A 
ENDBRANCH  11  12
ENDBRANCH   4  11
BRANCH   8  19
HETATM   19  C   UNK N   1      31.598  16.053   5.628  0.00  0.00     0.071 C 
BRANCH  19  20
HETATM   20  C   UNK N   1      32.483  17.081   4.923  0.00  0.00     0.276 C 
BRANCH  20  21
HETATM   21  N   UNK N   1      32.444  17.007   3.457  0.00  0.00     0.080 N 
HETATM   22  C   UNK N   1      33.344  15.988   2.930  0.00  0.00     0.309 C 
HETATM   23  C   UNK N   1      31.103  16.563   3.115  0.00  0.00     0.309 C 
ENDBRANCH  20  21
ENDBRANCH  19  20
ENDBRANCH   8  19
TORSDOF 5
ENDMDL
MODEL 7
REMARK VINA RESULT:      -6.0      2.900      4.700
REMARK  5 active torsions:
REMARK  status: ('A' for Active; 'I' for Inactive)
REMARK    1  A    between atoms: C_4  and  C_7 
REMARK    2  A    between atoms: C_16  and  C_7 
REMARK    3  A    between atoms: C_9  and  C_10 
REMARK    4  A    between atoms: C_10  and  C_14 
REMARK    5  A    between atoms: C_14  and  N_11 
ROOT
HETATM    1  C   UNK N   1      29.729  17.572   6.324  0.00  0.00     0.021 A 
HETATM    2  C   UNK N   1      28.712  18.463   6.664  0.00  0.00    -0.001 A 
HETATM    3  C   UNK N   1      29.167  18.262   9.020  0.00  0.00     0.031 A 
HETATM    4  C   UNK N   1      30.487  17.012   7.371  0.00  0.00    -0.055 A 
HETATM    5  C   UNK N   1      30.195  17.352   8.715  0.00  0.00     0.009 A 
HETATM    6  C   UNK N   1      28.444  18.797   7.959  0.00  0.00     0.043 A 
HETATM    7  C   UNK N   1      26.997  19.860   6.758  0.00  0.00     0.096 A 
HETATM    8  C   UNK N   1      27.800  19.129   5.888  0.00  0.00    -0.029 A 
HETATM    9  N   UNK N   1      27.408  19.651   8.036  0.00  0.00    -0.365 N 
HETATM   10  H   UNK N   1      27.025  20.046   8.853  0.00  0.00     0.165 HD
ENDROOT
BRANCH   4  11
HETATM   11  C   UNK N   1      31.546  16.004   7.053  0.00  0.00     0.066 C 
BRANCH  11  12
HETATM   12  C   UNK N   1      32.448  16.396   5.885  0.00  0.00     0.115 A 
HETATM   13  N   UNK N   1      33.480  15.404   5.756  0.00  0.00    -0.330 N 
HETATM   14  C   UNK N   1      34.654  15.970   6.003  0.00  0.00     0.361 A 
HETATM   15  H   UNK N   1      33.339  14.458   5.522  0.00  0.00     0.165 HD
HETATM   16  O   UNK N   1      35.707  15.351   5.987  0.00  0.00    -0.239 OA
HETATM   17  O   UNK N   1      34.577  17.266   6.283  0.00  0.00    -0.302 OA
HETATM   18  C   UNK N   1      33.261  17.683   6.223  0.00  0.00     0.206 A 
ENDBRANCH  11  12
ENDBRANCH   4  11
BRANCH   8  19
HETATM   19  C   UNK N   1      27.648  19.011   4.408  0.00  0.00     0.071 C 
BRANCH  19  20
HETATM   20  C   UNK N   1      26.687  20.035   3.804  0.00  0.00     0.276 C 
BRANCH  20  21
HETATM   21  N   UNK N   1      25.533  19.446   3.112  0.00  0.00     0.080 N 
HETATM   22  C   UNK N   1      24.705  18.643   4.004  0.00  0.00     0.309 C 
HETATM   23  C   UNK N   1      24.701  20.564   2.702  0.00  0.00     0.309 C 
ENDBRANCH  20  21
ENDBRANCH  19  20
ENDBRANCH   8  19
TORSDOF 5
ENDMDL
MODEL 8
REMARK VINA RESULT:      -6.0      4.010      7.099
REMARK  5 active torsions:
REMARK  status: ('A' for Active; 'I' for Inactive)
REMARK    1  A    between atoms: C_4  and  C_7 
REMARK    2  A    between atoms: C_16  and  C_7 
REMARK    3  A    between atoms: C_9  and  C_10 
REMARK    4  A    between atoms: C_10  and  C_14 
REMARK    5  A    between atoms: C_14  and  N_11 
ROOT
HETATM    1  C   UNK N   1      30.326  17.408   6.273  0.00  0.00     0.021 A 
HETATM    2  C   UNK N   1      31.470  17.334   7.066  0.00  0.00    -0.001 A 
HETATM    3  C   UNK N   1      30.195  17.374   9.109  0.00  0.00     0.031 A 
HETATM    4  C   UNK N   1      29.079  17.464   6.926  0.00  0.00    -0.055 A 
HETATM    5  C   UNK N   1      29.020  17.459   8.341  0.00  0.00     0.009 A 
HETATM    6  C   UNK N   1      31.407  17.315   8.429  0.00  0.00     0.043 A 
HETATM    7  C   UNK N   1      33.508  17.264   7.928  0.00  0.00     0.096 A 
HETATM    8  C   UNK N   1      32.799  17.304   6.732  0.00  0.00    -0.029 A 
HETATM    9  N   UNK N   1      32.637  17.265   8.971  0.00  0.00    -0.365 N 
HETATM   10  H   UNK N   1      32.861  17.236   9.930  0.00  0.00     0.165 HD
ENDROOT
BRANCH   4  11
HETATM   11  C   UNK N   1      27.831  17.607   6.112  0.00  0.00     0.066 C 
BRANCH  11  12
HETATM   12  C   UNK N   1      27.752  18.908   5.317  0.00  0.00     0.115 A 
HETATM   13  N   UNK N   1      27.745  20.007   6.245  0.00  0.00    -0.330 N 
HETATM   14  C   UNK N   1      26.584  20.641   6.152  0.00  0.00     0.361 A 
HETATM   15  H   UNK N   1      28.482  20.248   6.851  0.00  0.00     0.165 HD
HETATM   16  O   UNK N   1      26.296  21.605   6.845  0.00  0.00    -0.239 OA
HETATM   17  O   UNK N   1      25.761  20.124   5.246  0.00  0.00    -0.302 OA
HETATM   18  C   UNK N   1      26.363  19.048   4.623  0.00  0.00     0.206 A 
ENDBRANCH  11  12
ENDBRANCH   4  11
BRANCH   8  19
HETATM   19  C   UNK N   1      33.363  17.393   5.354  0.00  0.00     0.071 C 
BRANCH  19  20
HETATM   20  C   UNK N   1      33.692  16.034   4.734  0.00  0.00     0.276 C 
BRANCH  20  21
HETATM   21  N   UNK N   1      32.897  15.704   3.544  0.00  0.00     0.080 N 
HETATM   22  C   UNK N   1      31.732  14.887   3.866  0.00  0.00     0.309 C 
HETATM   23  C   UNK N   1      32.369  16.966   3.055  0.00  0.00     0.309 C 
ENDBRANCH  20  21
ENDBRANCH  19  20
ENDBRANCH   8  19
TORSDOF 5
ENDMDL
MODEL 9
REMARK VINA RESULT:      -5.9     12.573     14.895
REMARK  5 active torsions:
REMARK  status: ('A' for Active; 'I' for Inactive)
REMARK    1  A    between atoms: C_4  and  C_7 
REMARK    2  A    between atoms: C_16  and  C_7 
REMARK    3  A    between atoms: C_9  and  C_10 
REMARK    4  A    between atoms: C_10  and  C_14 
REMARK    5  A    between atoms: C_14  and  N_11 
ROOT
HETATM    1  C   UNK N   1      28.419  22.693  -6.249  0.00  0.00     0.021 A 
HETATM    2  C   UNK N   1      27.292  22.538  -7.056  0.00  0.00    -0.001 A 
HETATM    3  C   UNK N   1      28.170  20.549  -8.093  0.00  0.00     0.031 A 
HETATM    4  C   UNK N   1      29.450  21.742  -6.372  0.00  0.00    -0.055 A 
HETATM    5  C   UNK N   1      29.326  20.680  -7.302  0.00  0.00     0.009 A 
HETATM    6  C   UNK N   1      27.173  21.505  -7.940  0.00  0.00     0.043 A 
HETATM    7  C   UNK N   1      25.383  22.695  -8.165  0.00  0.00     0.096 A 
HETATM    8  C   UNK N   1      26.164  23.304  -7.188  0.00  0.00    -0.029 A 
HETATM    9  N   UNK N   1      26.013  21.581  -8.619  0.00  0.00    -0.365 N 
HETATM   10  H   UNK N   1      25.688  20.955  -9.307  0.00  0.00     0.165 HD
ENDROOT
BRANCH   4  11
HETATM   11  C   UNK N   1      30.702  21.908  -5.569  0.00  0.00     0.066 C 
BRANCH  11  12
HETATM   12  C   UNK N   1      30.668  21.207  -4.213  0.00  0.00     0.115 A 
HETATM   13  N   UNK N   1      29.928  22.030  -3.295  0.00  0.00    -0.330 N 
HETATM   14  C   UNK N   1      30.742  22.441  -2.332  0.00  0.00     0.361 A 
HETATM   15  H   UNK N   1      28.972  22.253  -3.370  0.00  0.00     0.165 HD
HETATM   16  O   UNK N   1      30.382  23.176  -1.425  0.00  0.00    -0.239 OA
HETATM   17  O   UNK N   1      31.986  21.989  -2.452  0.00  0.00    -0.302 OA
HETATM   18  C   UNK N   1      32.088  21.182  -3.569  0.00  0.00     0.206 A 
ENDBRANCH  11  12
ENDBRANCH   4  11
BRANCH   8  19
HETATM   19  C   UNK N   1      25.884  24.589  -6.484  0.00  0.00     0.071 C 
BRANCH  19  20
HETATM   20  C   UNK N   1      26.556  25.803  -7.127  0.00  0.00     0.276 C 
BRANCH  20  21
HETATM   21  N   UNK N   1      27.368  26.605  -6.204  0.00  0.00     0.080 N 
HETATM   22  C   UNK N   1      26.848  27.958  -6.042  0.00  0.00     0.309 C 
HETATM   23  C   UNK N   1      27.232  25.973  -4.902  0.00  0.00     0.309 C 
ENDBRANCH  20  21
ENDBRANCH  19  20
ENDBRANCH   8  19
TORSDOF 5
ENDMDL
