MODEL 1
REMARK VINA RESULT:      -6.8      0.000      0.000
REMARK  6 active torsions:
REMARK  status: ('A' for Active; 'I' for Inactive)
REMARK    1  A    between atoms: C_19  and  C_15 
REMARK    2  A    between atoms: C_19  and  C_16 
REMARK    3  A    between atoms: C_17  and  O_23 
REMARK    4  A    between atoms: C_19  and  C_18 
REMARK    5  A    between atoms: O_23  and  C_18 
REMARK    6  A    between atoms: C_19  and  O_22 
ROOT
HETATM    1  C   UNK N   1      35.046  12.029  15.200  0.00  0.00     0.176 C 
ENDROOT
BRANCH   1   2
HETATM    2  C   UNK N   1      35.209  12.167  16.709  0.00  0.00    -0.014 A 
HETATM    3  C   UNK N   1      35.531  11.069  17.528  0.00  0.00     0.011 A 
HETATM    4  C   UNK N   1      35.626  11.218  18.914  0.00  0.00     0.001 A 
HETATM    5  C   UNK N   1      35.398  12.465  19.499  0.00  0.00     0.000 A 
HETATM    6  C   UNK N   1      35.075  13.563  18.700  0.00  0.00     0.001 A 
HETATM    7  C   UNK N   1      34.976  13.415  17.313  0.00  0.00     0.011 A 
ENDBRANCH   1   2
BRANCH   1   8
HETATM    8  C   UNK N   1      35.576  10.663  14.675  0.00  0.00     0.035 C 
HETATM    9  C   UNK N   1      36.944  10.694  14.017  0.00  0.00     0.008 C 
HETATM   10  C   UNK N   1      37.019   9.395  13.244  0.00  0.00     0.001 C 
HETATM   11  C   UNK N   1      35.581   8.976  12.971  0.00  0.00     0.001 C 
HETATM   12  C   UNK N   1      34.688  10.006  13.639  0.00  0.00     0.008 C 
ENDBRANCH   1   8
BRANCH   1  13
HETATM   13  C   UNK N   1      35.768  13.194  14.489  0.00  0.00     0.299 C 
HETATM   14  O   UNK N   1      36.843  13.560  14.943  0.00  0.00    -0.261 OA
BRANCH  13  15
HETATM   15  O   UNK N   1      35.275  13.883  13.413  0.00  0.00    -0.312 OA
BRANCH  15  16
HETATM   16  C   UNK N   1      35.104  13.449  12.108  0.00  0.00     0.159 C 
HETATM   17  C   UNK N   1      36.424  13.243  11.393  0.00  0.00     0.062 C 
HETATM   18  C   UNK N   1      36.723  14.589  10.779  0.00  0.00     0.239 C 
HETATM   19  N   UNK N   1      35.437  15.193  10.468  0.00  0.00    -0.072 N 
HETATM   20  C   UNK N   1      35.487  16.619  10.731  0.00  0.00     0.272 C 
HETATM   21  C   UNK N   1      35.106  14.970   9.070  0.00  0.00     0.272 C 
HETATM   22  C   UNK N   1      34.430  14.552  11.308  0.00  0.00     0.268 C 
ENDBRANCH  15  16
ENDBRANCH  13  15
ENDBRANCH   1  13
BRANCH   1  23
HETATM   23  O   UNK N   1      33.674  12.045  14.959  0.00  0.00    -0.374 OA
HETATM   24  H   UNK N   1      32.800  12.354  15.241  0.00  0.00     0.211 HD
ENDBRANCH   1  23
TORSDOF 6
ENDMDL
MODEL 2
REMARK VINA RESULT:      -6.6      4.693     10.158
REMARK  6 active torsions:
REMARK  status: ('A' for Active; 'I' for Inactive)
REMARK    1  A    between atoms: C_19  and  C_15 
REMARK    2  A    between atoms: C_19  and  C_16 
REMARK    3  A    between atoms: C_17  and  O_23 
REMARK    4  A    between atoms: C_19  and  C_18 
REMARK    5  A    between atoms: O_23  and  C_18 
REMARK    6  A    between atoms: C_19  and  O_22 
ROOT
HETATM    1  C   UNK N   1      32.770  16.479   6.923  0.00  0.00     0.176 C 
ENDROOT
BRANCH   1   2
HETATM    2  C   UNK N   1      32.975  16.351   5.419  0.00  0.00    -0.014 A 
HETATM    3  C   UNK N   1      32.468  17.301   4.514  0.00  0.00     0.011 A 
HETATM    4  C   UNK N   1      32.629  17.131   3.137  0.00  0.00     0.001 A 
HETATM    5  C   UNK N   1      33.298  16.008   2.646  0.00  0.00     0.000 A 
HETATM    6  C   UNK N   1      33.804  15.054   3.532  0.00  0.00     0.001 A 
HETATM    7  C   UNK N   1      33.639  15.221   4.909  0.00  0.00     0.011 A 
ENDBRANCH   1   2
BRANCH   1   8
HETATM    8  C   UNK N   1      31.588  17.426   7.277  0.00  0.00     0.035 C 
HETATM    9  C   UNK N   1      31.597  17.997   8.684  0.00  0.00     0.008 C 
HETATM   10  C   UNK N   1      30.185  18.498   8.897  0.00  0.00     0.001 C 
HETATM   11  C   UNK N   1      29.301  17.704   7.944  0.00  0.00     0.001 C 
HETATM   12  C   UNK N   1      30.220  16.791   7.150  0.00  0.00     0.008 C 
ENDBRANCH   1   8
BRANCH   1  13
HETATM   13  C   UNK N   1      34.074  16.976   7.586  0.00  0.00     0.299 C 
HETATM   14  O   UNK N   1      34.549  18.030   7.187  0.00  0.00    -0.261 OA
BRANCH  13  15
HETATM   15  O   UNK N   1      34.767  16.303   8.557  0.00  0.00    -0.312 OA
BRANCH  15  16
HETATM   16  C   UNK N   1      34.459  16.157   9.900  0.00  0.00     0.159 C 
HETATM   17  C   UNK N   1      35.591  16.603  10.802  0.00  0.00     0.062 C 
HETATM   18  C   UNK N   1      36.429  15.360  10.982  0.00  0.00     0.239 C 
HETATM   19  N   UNK N   1      35.511  14.233  10.918  0.00  0.00    -0.072 N 
HETATM   20  C   UNK N   1      36.138  13.128  10.218  0.00  0.00     0.272 C 
HETATM   21  C   UNK N   1      35.145  13.811  12.261  0.00  0.00     0.272 C 
HETATM   22  C   UNK N   1      34.314  14.675  10.211  0.00  0.00     0.268 C 
ENDBRANCH  15  16
ENDBRANCH  13  15
ENDBRANCH   1  13
BRANCH   1  23
HETATM   23  O   UNK N   1      32.413  15.209   7.372  0.00  0.00    -0.374 OA
HETATM   24  H   UNK N   1      32.682  14.289   7.518  0.00  0.00     0.211 HD
ENDBRANCH   1  23
TORSDOF 6
ENDMDL
MODEL 3
REMARK VINA RESULT:      -6.5      4.875      9.571
REMARK  6 active torsions:
REMARK  status: ('A' for Active; 'I' for Inactive)
REMARK    1  A    between atoms: C_19  and  C_15 
REMARK    2  A    between atoms: C_19  and  C_16 
REMARK    3  A    between atoms: C_17  and  O_23 
REMARK    4  A    between atoms: C_19  and  C_18 
REMARK    5  A    between atoms: O_23  and  C_18 
REMARK    6  A    between atoms: C_19  and  O_22 
ROOT
HETATM    1  C   UNK N   1      32.450  16.765   6.941  0.00  0.00     0.176 C 
ENDROOT
BRANCH   1   2
HETATM    2  C   UNK N   1      31.150  17.288   7.540  0.00  0.00    -0.014 A 
HETATM    3  C   UNK N   1      29.897  17.011   6.960  0.00  0.00     0.011 A 
HETATM    4  C   UNK N   1      28.727  17.545   7.504  0.00  0.00     0.001 A 
HETATM    5  C   UNK N   1      28.792  18.365   8.632  0.00  0.00     0.000 A 
HETATM    6  C   UNK N   1      30.028  18.653   9.216  0.00  0.00     0.001 A 
HETATM    7  C   UNK N   1      31.200  18.122   8.670  0.00  0.00     0.011 A 
ENDBRANCH   1   2
BRANCH   1   8
HETATM    8  C   UNK N   1      32.305  16.421   5.431  0.00  0.00     0.035 C 
HETATM    9  C   UNK N   1      33.479  15.688   4.805  0.00  0.00     0.008 C 
HETATM   10  C   UNK N   1      33.280  15.863   3.315  0.00  0.00     0.001 C 
HETATM   11  C   UNK N   1      32.434  17.118   3.140  0.00  0.00     0.001 C 
HETATM   12  C   UNK N   1      32.105  17.624   4.534  0.00  0.00     0.008 C 
ENDBRANCH   1   8
BRANCH   1  13
HETATM   13  C   UNK N   1      32.924  15.525   7.731  0.00  0.00     0.299 C 
HETATM   14  O   UNK N   1      32.264  14.501   7.634  0.00  0.00    -0.261 OA
BRANCH  13  15
HETATM   15  O   UNK N   1      34.006  15.497   8.571  0.00  0.00    -0.312 OA
BRANCH  15  16
HETATM   16  C   UNK N   1      34.058  15.768   9.929  0.00  0.00     0.159 C 
HETATM   17  C   UNK N   1      35.247  16.631  10.298  0.00  0.00     0.062 C 
HETATM   18  C   UNK N   1      36.349  15.638  10.577  0.00  0.00     0.239 C 
HETATM   19  N   UNK N   1      35.704  14.447  11.106  0.00  0.00    -0.072 N 
HETATM   20  C   UNK N   1      36.372  13.261  10.603  0.00  0.00     0.272 C 
HETATM   21  C   UNK N   1      35.760  14.453  12.560  0.00  0.00     0.272 C 
HETATM   22  C   UNK N   1      34.309  14.469  10.680  0.00  0.00     0.268 C 
ENDBRANCH  15  16
ENDBRANCH  13  15
ENDBRANCH   1  13
BRANCH   1  23
HETATM   23  O   UNK N   1      33.362  17.814   7.027  0.00  0.00    -0.374 OA
HETATM   24  H   UNK N   1      33.932  18.356   7.594  0.00  0.00     0.211 HD
ENDBRANCH   1  23
TORSDOF 6
ENDMDL
MODEL 4
REMARK VINA RESULT:      -6.4      1.455      2.223
REMARK  6 active torsions:
REMARK  status: ('A' for Active; 'I' for Inactive)
REMARK    1  A    between atoms: C_19  and  C_15 
REMARK    2  A    between atoms: C_19  and  C_16 
REMARK    3  A    between atoms: C_17  and  O_23 
REMARK    4  A    between atoms: C_19  and  C_18 
REMARK    5  A    between atoms: O_23  and  C_18 
REMARK    6  A    between atoms: C_19  and  O_22 
ROOT
HETATM    1  C   UNK N   1      35.479  12.356  14.886  0.00  0.00     0.176 C 
ENDROOT
BRANCH   1   2
HETATM    2  C   UNK N   1      35.853  13.422  15.908  0.00  0.00    -0.014 A 
HETATM    3  C   UNK N   1      35.145  13.581  17.113  0.00  0.00     0.011 A 
HETATM    4  C   UNK N   1      35.482  14.599  18.009  0.00  0.00     0.001 A 
HETATM    5  C   UNK N   1      36.529  15.473  17.710  0.00  0.00     0.000 A 
HETATM    6  C   UNK N   1      37.239  15.330  16.516  0.00  0.00     0.001 A 
HETATM    7  C   UNK N   1      36.900  14.314  15.618  0.00  0.00     0.011 A 
ENDBRANCH   1   2
BRANCH   1   8
HETATM    8  C   UNK N   1      35.977  10.942  15.301  0.00  0.00     0.035 C 
HETATM    9  C   UNK N   1      34.999   9.803  15.073  0.00  0.00     0.008 C 
HETATM   10  C   UNK N   1      35.533   8.672  15.925  0.00  0.00     0.001 C 
HETATM   11  C   UNK N   1      36.364   9.320  17.024  0.00  0.00     0.001 C 
HETATM   12  C   UNK N   1      36.350  10.816  16.763  0.00  0.00     0.008 C 
ENDBRANCH   1   8
BRANCH   1  13
HETATM   13  C   UNK N   1      36.046  12.740  13.501  0.00  0.00     0.299 C 
HETATM   14  O   UNK N   1      37.077  12.193  13.137  0.00  0.00    -0.261 OA
BRANCH  13  15
HETATM   15  O   UNK N   1      35.506  13.683  12.666  0.00  0.00    -0.312 OA
BRANCH  15  16
HETATM   16  C   UNK N   1      34.992  13.520  11.390  0.00  0.00     0.159 C 
HETATM   17  C   UNK N   1      36.080  13.389  10.344  0.00  0.00     0.062 C 
HETATM   18  C   UNK N   1      36.355  14.812   9.921  0.00  0.00     0.239 C 
HETATM   19  N   UNK N   1      35.097  15.530  10.052  0.00  0.00    -0.072 N 
HETATM   20  C   UNK N   1      35.346  16.874  10.541  0.00  0.00     0.272 C 
HETATM   21  C   UNK N   1      34.426  15.601   8.764  0.00  0.00     0.272 C 
HETATM   22  C   UNK N   1      34.259  14.791  10.990  0.00  0.00     0.268 C 
ENDBRANCH  15  16
ENDBRANCH  13  15
ENDBRANCH   1  13
BRANCH   1  23
HETATM   23  O   UNK N   1      34.086  12.303  14.879  0.00  0.00    -0.374 OA
HETATM   24  H   UNK N   1      33.251  12.764  15.054  0.00  0.00     0.211 HD
ENDBRANCH   1  23
TORSDOF 6
ENDMDL
MODEL 5
REMARK VINA RESULT:      -6.3     21.629     24.994
REMARK  6 active torsions:
REMARK  status: ('A' for Active; 'I' for Inactive)
REMARK    1  A    between atoms: C_19  and  C_15 
REMARK    2  A    between atoms: C_19  and  C_16 
REMARK    3  A    between atoms: C_17  and  O_23 
REMARK    4  A    between atoms: C_19  and  C_18 
REMARK    5  A    between atoms: O_23  and  C_18 
REMARK    6  A    between atoms: C_19  and  O_22 
ROOT
HETATM    1  C   UNK N   1      27.019  24.720  -4.112  0.00  0.00     0.176 C 
ENDROOT
BRANCH   1   2
HETATM    2  C   UNK N   1      26.821  26.223  -4.263  0.00  0.00    -0.014 A 
HETATM    3  C   UNK N   1      26.315  27.017  -3.217  0.00  0.00     0.011 A 
HETATM    4  C   UNK N   1      26.099  28.385  -3.401  0.00  0.00     0.001 A 
HETATM    5  C   UNK N   1      26.383  28.976  -4.633  0.00  0.00     0.000 A 
HETATM    6  C   UNK N   1      26.883  28.201  -5.682  0.00  0.00     0.001 A 
HETATM    7  C   UNK N   1      27.095  26.831  -5.500  0.00  0.00     0.011 A 
ENDBRANCH   1   2
BRANCH   1   8
HETATM    8  C   UNK N   1      28.524  24.325  -4.073  0.00  0.00     0.035 C 
HETATM    9  C   UNK N   1      28.936  23.404  -2.939  0.00  0.00     0.008 C 
HETATM   10  C   UNK N   1      30.443  23.532  -2.879  0.00  0.00     0.001 C 
HETATM   11  C   UNK N   1      30.783  24.883  -3.493  0.00  0.00     0.001 C 
HETATM   12  C   UNK N   1      29.473  25.499  -3.954  0.00  0.00     0.008 C 
ENDBRANCH   1   8
BRANCH   1  13
HETATM   13  C   UNK N   1      26.301  23.982  -5.264  0.00  0.00     0.299 C 
HETATM   14  O   UNK N   1      25.082  24.057  -5.315  0.00  0.00    -0.261 OA
BRANCH  13  15
HETATM   15  O   UNK N   1      26.922  23.210  -6.209  0.00  0.00    -0.312 OA
BRANCH  15  16
HETATM   16  C   UNK N   1      27.425  23.587  -7.444  0.00  0.00     0.159 C 
HETATM   17  C   UNK N   1      26.467  24.479  -8.207  0.00  0.00     0.062 C 
HETATM   18  C   UNK N   1      25.608  23.513  -8.987  0.00  0.00     0.239 C 
HETATM   19  N   UNK N   1      26.449  22.365  -9.287  0.00  0.00    -0.072 N 
HETATM   20  C   UNK N   1      25.670  21.145  -9.191  0.00  0.00     0.272 C 
HETATM   21  C   UNK N   1      26.996  22.485 -10.630  0.00  0.00     0.272 C 
HETATM   22  C   UNK N   1      27.544  22.351  -8.323  0.00  0.00     0.268 C 
ENDBRANCH  15  16
ENDBRANCH  13  15
ENDBRANCH   1  13
BRANCH   1  23
HETATM   23  O   UNK N   1      26.485  24.384  -2.869  0.00  0.00    -0.374 OA
HETATM   24  H   UNK N   1      26.449  24.574  -1.919  0.00  0.00     0.211 HD
ENDBRANCH   1  23
TORSDOF 6
ENDMDL
MODEL 6
REMARK VINA RESULT:      -6.2     21.512     25.011
REMARK  6 active torsions:
REMARK  status: ('A' for Active; 'I' for Inactive)
REMARK    1  A    between atoms: C_19  and  C_15 
REMARK    2  A    between atoms: C_19  and  C_16 
REMARK    3  A    between atoms: C_17  and  O_23 
REMARK    4  A    between atoms: C_19  and  C_18 
REMARK    5  A    between atoms: O_23  and  C_18 
REMARK    6  A    between atoms: C_19  and  O_22 
ROOT
HETATM    1  C   UNK N   1      27.744  24.627  -5.098  0.00  0.00     0.176 C 
ENDROOT
BRANCH   1   2
HETATM    2  C   UNK N   1      26.921  24.329  -6.345  0.00  0.00    -0.014 A 
HETATM    3  C   UNK N   1      26.619  25.323  -7.295  0.00  0.00     0.011 A 
HETATM    4  C   UNK N   1      25.821  25.031  -8.403  0.00  0.00     0.001 A 
HETATM    5  C   UNK N   1      25.312  23.742  -8.576  0.00  0.00     0.000 A 
HETATM    6  C   UNK N   1      25.599  22.746  -7.640  0.00  0.00     0.001 A 
HETATM    7  C   UNK N   1      26.394  23.039  -6.528  0.00  0.00     0.011 A 
ENDBRANCH   1   2
BRANCH   1   8
HETATM    8  C   UNK N   1      28.573  23.395  -4.633  0.00  0.00     0.035 C 
HETATM    9  C   UNK N   1      29.149  23.479  -3.230  0.00  0.00     0.008 C 
HETATM   10  C   UNK N   1      30.219  22.408  -3.199  0.00  0.00     0.001 C 
HETATM   11  C   UNK N   1      30.643  22.184  -4.644  0.00  0.00     0.001 C 
HETATM   12  C   UNK N   1      29.773  23.086  -5.503  0.00  0.00     0.008 C 
ENDBRANCH   1   8
BRANCH   1  13
HETATM   13  C   UNK N   1      26.814  25.108  -3.962  0.00  0.00     0.299 C 
HETATM   14  O   UNK N   1      25.867  24.396  -3.663  0.00  0.00    -0.261 OA
BRANCH  13  15
HETATM   15  O   UNK N   1      26.941  26.297  -3.294  0.00  0.00    -0.312 OA
BRANCH  15  16
HETATM   16  C   UNK N   1      26.128  27.417  -3.352  0.00  0.00     0.159 C 
HETATM   17  C   UNK N   1      25.686  27.735  -4.766  0.00  0.00     0.062 C 
HETATM   18  C   UNK N   1      26.770  28.643  -5.294  0.00  0.00     0.239 C 
HETATM   19  N   UNK N   1      27.272  29.390  -4.152  0.00  0.00    -0.072 N 
HETATM   20  C   UNK N   1      28.708  29.561  -4.268  0.00  0.00     0.272 C 
HETATM   21  C   UNK N   1      26.633  30.695  -4.090  0.00  0.00     0.272 C 
HETATM   22  C   UNK N   1      26.942  28.636  -2.947  0.00  0.00     0.268 C 
ENDBRANCH  15  16
ENDBRANCH  13  15
ENDBRANCH   1  13
BRANCH   1  23
HETATM   23  O   UNK N   1      28.661  25.609  -5.468  0.00  0.00    -0.374 OA
HETATM   24  H   UNK N   1      28.847  26.386  -6.018  0.00  0.00     0.211 HD
ENDBRANCH   1  23
TORSDOF 6
ENDMDL
MODEL 7
REMARK VINA RESULT:      -6.1      8.925     12.464
REMARK  6 active torsions:
REMARK  status: ('A' for Active; 'I' for Inactive)
REMARK    1  A    between atoms: C_19  and  C_15 
REMARK    2  A    between atoms: C_19  and  C_16 
REMARK    3  A    between atoms: C_17  and  O_23 
REMARK    4  A    between atoms: C_19  and  C_18 
REMARK    5  A    between atoms: O_23  and  C_18 
REMARK    6  A    between atoms: C_19  and  O_22 
ROOT
HETATM    1  C   UNK N   1      27.984  17.554   6.278  0.00  0.00     0.176 C 
ENDROOT
BRANCH   1   2
HETATM    2  C   UNK N   1      28.498  16.642   5.172  0.00  0.00    -0.014 A 
HETATM    3  C   UNK N   1      28.230  15.260   5.159  0.00  0.00     0.011 A 
HETATM    4  C   UNK N   1      28.756  14.442   4.157  0.00  0.00     0.001 A 
HETATM    5  C   UNK N   1      29.559  14.992   3.156  0.00  0.00     0.000 A 
HETATM    6  C   UNK N   1      29.838  16.360   3.157  0.00  0.00     0.001 A 
HETATM    7  C   UNK N   1      29.316  17.180   4.162  0.00  0.00     0.011 A 
ENDBRANCH   1   2
BRANCH   1   8
HETATM    8  C   UNK N   1      27.838  19.029   5.804  0.00  0.00     0.035 C 
HETATM    9  C   UNK N   1      27.766  20.072   6.905  0.00  0.00     0.008 C 
HETATM   10  C   UNK N   1      27.209  21.303   6.221  0.00  0.00     0.001 C 
HETATM   11  C   UNK N   1      26.437  20.804   5.006  0.00  0.00     0.001 C 
HETATM   12  C   UNK N   1      26.605  19.295   4.967  0.00  0.00     0.008 C 
ENDBRANCH   1   8
BRANCH   1  13
HETATM   13  C   UNK N   1      28.927  17.474   7.499  0.00  0.00     0.299 C 
HETATM   14  O   UNK N   1      28.425  17.259   8.593  0.00  0.00    -0.261 OA
BRANCH  13  15
HETATM   15  O   UNK N   1      30.283  17.672   7.458  0.00  0.00    -0.312 OA
BRANCH  15  16
HETATM   16  C   UNK N   1      31.296  16.815   7.856  0.00  0.00     0.159 C 
HETATM   17  C   UNK N   1      32.443  17.550   8.520  0.00  0.00     0.062 C 
HETATM   18  C   UNK N   1      33.359  17.912   7.377  0.00  0.00     0.239 C 
HETATM   19  N   UNK N   1      33.215  16.858   6.385  0.00  0.00    -0.072 N 
HETATM   20  C   UNK N   1      33.260  17.427   5.051  0.00  0.00     0.272 C 
HETATM   21  C   UNK N   1      34.285  15.884   6.533  0.00  0.00     0.272 C 
HETATM   22  C   UNK N   1      31.932  16.201   6.618  0.00  0.00     0.268 C 
ENDBRANCH  15  16
ENDBRANCH  13  15
ENDBRANCH   1  13
BRANCH   1  23
HETATM   23  O   UNK N   1      26.702  17.103   6.584  0.00  0.00    -0.374 OA
HETATM   24  H   UNK N   1      25.990  17.051   7.240  0.00  0.00     0.211 HD
ENDBRANCH   1  23
TORSDOF 6
ENDMDL
MODEL 8
REMARK VINA RESULT:      -6.1     20.167     24.041
REMARK  6 active torsions:
REMARK  status: ('A' for Active; 'I' for Inactive)
REMARK    1  A    between atoms: C_19  and  C_15 
REMARK    2  A    between atoms: C_19  and  C_16 
REMARK    3  A    between atoms: C_17  and  O_23 
REMARK    4  A    between atoms: C_19  and  C_18 
REMARK    5  A    between atoms: O_23  and  C_18 
REMARK    6  A    between atoms: C_19  and  O_22 
ROOT
HETATM    1  C   UNK N   1      27.433  25.177  -5.011  0.00  0.00     0.176 C 
ENDROOT
BRANCH   1   2
HETATM    2  C   UNK N   1      27.125  26.551  -4.429  0.00  0.00    -0.014 A 
HETATM    3  C   UNK N   1      25.825  27.091  -4.440  0.00  0.00     0.011 A 
HETATM    4  C   UNK N   1      25.582  28.374  -3.944  0.00  0.00     0.001 A 
HETATM    5  C   UNK N   1      26.635  29.135  -3.431  0.00  0.00     0.000 A 
HETATM    6  C   UNK N   1      27.931  28.614  -3.417  0.00  0.00     0.001 A 
HETATM    7  C   UNK N   1      28.175  27.332  -3.917  0.00  0.00     0.011 A 
ENDBRANCH   1   2
BRANCH   1   8
HETATM    8  C   UNK N   1      26.341  24.705  -6.014  0.00  0.00     0.035 C 
HETATM    9  C   UNK N   1      26.289  23.210  -6.278  0.00  0.00     0.008 C 
HETATM   10  C   UNK N   1      25.482  23.081  -7.552  0.00  0.00     0.001 C 
HETATM   11  C   UNK N   1      25.619  24.411  -8.282  0.00  0.00     0.001 C 
HETATM   12  C   UNK N   1      26.457  25.316  -7.394  0.00  0.00     0.008 C 
ENDBRANCH   1   8
BRANCH   1  13
HETATM   13  C   UNK N   1      27.591  24.151  -3.867  0.00  0.00     0.299 C 
HETATM   14  O   UNK N   1      26.809  24.218  -2.930  0.00  0.00    -0.261 OA
BRANCH  13  15
HETATM   15  O   UNK N   1      28.572  23.196  -3.799  0.00  0.00    -0.312 OA
BRANCH  15  16
HETATM   16  C   UNK N   1      29.628  23.100  -2.908  0.00  0.00     0.159 C 
HETATM   17  C   UNK N   1      30.752  24.059  -3.242  0.00  0.00     0.062 C 
HETATM   18  C   UNK N   1      31.634  23.278  -4.185  0.00  0.00     0.239 C 
HETATM   19  N   UNK N   1      31.519  21.882  -3.794  0.00  0.00    -0.072 N 
HETATM   20  C   UNK N   1      31.519  21.038  -4.975  0.00  0.00     0.272 C 
HETATM   21  C   UNK N   1      32.632  21.511  -2.935  0.00  0.00     0.272 C 
HETATM   22  C   UNK N   1      30.270  21.729  -3.055  0.00  0.00     0.268 C 
ENDBRANCH  15  16
ENDBRANCH  13  15
ENDBRANCH   1  13
BRANCH   1  23
HETATM   23  O   UNK N   1      28.610  25.324  -5.742  0.00  0.00    -0.374 OA
HETATM   24  H   UNK N   1      29.294  24.899  -6.281  0.00  0.00     0.211 HD
ENDBRANCH   1  23
TORSDOF 6
ENDMDL
MODEL 9
REMARK VINA RESULT:      -6.0      2.274      6.684
REMARK  6 active torsions:
REMARK  status: ('A' for Active; 'I' for Inactive)
REMARK    1  A    between atoms: C_19  and  C_15 
REMARK    2  A    between atoms: C_19  and  C_16 
REMARK    3  A    between atoms: C_17  and  O_23 
REMARK    4  A    between atoms: C_19  and  C_18 
REMARK    5  A    between atoms: O_23  and  C_18 
REMARK    6  A    between atoms: C_19  and  O_22 
ROOT
HETATM    1  C   UNK N   1      36.124  14.901  10.875  0.00  0.00     0.176 C 
ENDROOT
BRANCH   1   2
HETATM    2  C   UNK N   1      34.908  15.426  10.123  0.00  0.00    -0.014 A 
HETATM    3  C   UNK N   1      33.800  14.608   9.832  0.00  0.00     0.011 A 
HETATM    4  C   UNK N   1      32.721  15.105   9.097  0.00  0.00     0.001 A 
HETATM    5  C   UNK N   1      32.735  16.424   8.642  0.00  0.00     0.000 A 
HETATM    6  C   UNK N   1      33.829  17.247   8.919  0.00  0.00     0.001 A 
HETATM    7  C   UNK N   1      34.911  16.750   9.650  0.00  0.00     0.011 A 
ENDBRANCH   1   2
BRANCH   1   8
HETATM    8  C   UNK N   1      36.761  13.667  10.174  0.00  0.00     0.035 C 
HETATM    9  C   UNK N   1      38.032  13.130  10.809  0.00  0.00     0.008 C 
HETATM   10  C   UNK N   1      38.651  12.260   9.735  0.00  0.00     0.001 C 
HETATM   11  C   UNK N   1      38.114  12.775   8.406  0.00  0.00     0.001 C 
HETATM   12  C   UNK N   1      37.145  13.900   8.729  0.00  0.00     0.008 C 
ENDBRANCH   1   8
BRANCH   1  13
HETATM   13  C   UNK N   1      35.726  14.548  12.326  0.00  0.00     0.299 C 
HETATM   14  O   UNK N   1      36.154  15.260  13.222  0.00  0.00    -0.261 OA
BRANCH  13  15
HETATM   15  O   UNK N   1      34.966  13.469  12.691  0.00  0.00    -0.312 OA
BRANCH  15  16
HETATM   16  C   UNK N   1      35.382  12.227  13.141  0.00  0.00     0.159 C 
HETATM   17  C   UNK N   1      34.248  11.424  13.746  0.00  0.00     0.062 C 
HETATM   18  C   UNK N   1      34.253  11.821  15.202  0.00  0.00     0.239 C 
HETATM   19  N   UNK N   1      35.635  12.117  15.543  0.00  0.00    -0.072 N 
HETATM   20  C   UNK N   1      35.687  13.246  16.453  0.00  0.00     0.272 C 
HETATM   21  C   UNK N   1      36.253  10.959  16.172  0.00  0.00     0.272 C 
HETATM   22  C   UNK N   1      36.343  12.424  14.304  0.00  0.00     0.268 C 
ENDBRANCH  15  16
ENDBRANCH  13  15
ENDBRANCH   1  13
BRANCH   1  23
HETATM   23  O   UNK N   1      37.073  15.920  10.831  0.00  0.00    -0.374 OA
HETATM   24  H   UNK N   1      37.855  16.288  10.392  0.00  0.00     0.211 HD
ENDBRANCH   1  23
TORSDOF 6
ENDMDL
