REMARK  6 active torsions:
REMARK  status: ('A' for Active; 'I' for Inactive)
REMARK    1  A    between atoms: O_21  and  C_2 
REMARK    2  A    between atoms: C_19  and  C_15 
REMARK    3  A    between atoms: O_21  and  C_16 
REMARK    4  A    between atoms: O_23  and  C_17 
REMARK    5  A    between atoms: C_18  and  C_19 
REMARK    6  A    between atoms: C_19  and  O_23 
ROOT
HETATM    1  C   UNK N   1       1.098  -0.163  -0.228  0.00  0.00     0.192 C 
ENDROOT
BRANCH   1   2
HETATM    2  C   UNK N   1       0.812  -1.662  -0.162  0.00  0.00    -0.026 A 
HETATM    3  C   UNK N   1       1.466  -2.519   0.744  0.00  0.00     0.010 A 
HETATM    4  C   UNK N   1       1.183  -3.886   0.771  0.00  0.00     0.001 A 
HETATM    5  C   UNK N   1       0.230  -4.416  -0.100  0.00  0.00     0.000 A 
HETATM    6  C   UNK N   1      -0.437  -3.579  -0.996  0.00  0.00     0.001 A 
HETATM    7  C   UNK N   1      -0.147  -2.210  -1.029  0.00  0.00     0.010 A 
ENDBRANCH   1   2
BRANCH   1   8
HETATM    8  C   UNK N   1       2.228   0.287   0.773  0.00  0.00     0.172 C 
HETATM    9  C   UNK N   1       3.540  -0.527   0.659  0.00  0.00     0.148 C 
HETATM   10  N   UNK N   1       4.247  -0.213  -0.577  0.00  0.00    -0.417 N 
HETATM   11  C   UNK N   1       4.554   1.209  -0.548  0.00  0.00     0.140 C 
HETATM   12  H   UNK N   1       4.482  -0.868  -1.322  0.00  0.00     0.153 HD
HETATM   13  C   UNK N   1       3.246   1.982  -0.471  0.00  0.00     0.187 C 
HETATM   14  O   UNK N   1       2.534   1.673   0.716  0.00  0.00    -0.380 OA
ENDBRANCH   1   8
BRANCH   1  15
HETATM   15  O   UNK N   1      -0.120   0.473   0.026  0.00  0.00    -0.336 OA
BRANCH  15  16
HETATM   16  C   UNK N   1      -0.468   1.775  -0.182  0.00  0.00     0.103 A 
HETATM   17  C   UNK N   1       0.427   2.674  -0.778  0.00  0.00     0.040 A 
HETATM   18  C   UNK N   1       0.092   4.014  -0.964  0.00  0.00     0.003 A 
HETATM   19  C   UNK N   1      -1.155   4.480  -0.561  0.00  0.00     0.003 A 
HETATM   20  C   UNK N   1      -2.074   3.600   0.008  0.00  0.00     0.039 A 
HETATM   21  C   UNK N   1      -1.758   2.248   0.196  0.00  0.00     0.102 A 
BRANCH  21  22
HETATM   22  O   UNK N   1      -2.722   1.455   0.732  0.00  0.00    -0.349 OA
BRANCH  22  23
HETATM   23  C   UNK N   1      -2.697   0.081   0.769  0.00  0.00     0.171 C 
HETATM   24  C   UNK N   1      -3.914  -0.456   0.041  0.00  0.00     0.034 C 
ENDBRANCH  22  23
ENDBRANCH  21  22
ENDBRANCH  15  16
ENDBRANCH   1  15
TORSDOF 6
