MODEL 1
REMARK VINA RESULT:      -6.2      0.000      0.000
REMARK  18 active torsions:
REMARK  status: ('A' for Active; 'I' for Inactive)
REMARK    1  A    between atoms: C_14  and  C_6 
REMARK    2  A    between atoms: N_27  and  C_6 
REMARK    3  A    between atoms: O_31  and  C_9 
REMARK    4  A    between atoms: O_34  and  C_9 
REMARK    5  A    between atoms: O_32  and  C_10 
REMARK    6  A    between atoms: O_35  and  C_10 
REMARK    7  A    between atoms: O_33  and  C_11 
REMARK    8  A    between atoms: P_38  and  C_11 
REMARK    9  A    between atoms: O_36  and  C_12 
REMARK   10  A    between atoms: O_37  and  C_13 
REMARK   11  A    between atoms: O_33  and  C_14 
REMARK   12  A    between atoms: N_20  and  C_16 
REMARK   13  A    between atoms: O_31  and  C_18 
REMARK   14  A    between atoms: O_36  and  C_18 
REMARK   15  A    between atoms: O_32  and  C_19 
REMARK   16  A    between atoms: O_37  and  C_19 
REMARK   17  A    between atoms: P_38  and  O_34 
REMARK   18  A    between atoms: P_38  and  O_35 
ROOT
HETATM    1  C   UNK N   1      27.063  15.309   4.589  0.00  0.00     0.300 C 
ENDROOT
BRANCH   1   2
HETATM    2  O   UNK N   1      27.690  15.663   5.800  0.00  0.00    -0.373 OA
BRANCH   2   3
HETATM    3  C   UNK N   1      29.110  15.705   5.686  0.00  0.00     0.136 C 
HETATM    4  C   UNK N   1      29.439  15.529   4.213  0.00  0.00     0.041 C 
BRANCH   3   5
HETATM    5  C   UNK N   1      29.795  16.977   6.257  0.00  0.00     0.163 C 
BRANCH   5   6
HETATM    6  N   UNK N   1      28.880  17.873   6.952  0.00  0.00    -0.325 N 
HETATM    7  C   UNK N   1      28.551  17.905   8.268  0.00  0.00     0.185 A 
HETATM    8  N   UNK N   1      27.675  18.919   8.530  0.00  0.00    -0.346 N 
HETATM    9  C   UNK N   1      27.472  19.500   7.332  0.00  0.00     0.122 A 
ATOM     10  HN  UNK N   1      27.267  19.177   9.429  1.00  0.00     0.167 HD
HETATM   11  C   UNK N   1      26.682  20.585   6.984  0.00  0.00     0.131 A 
HETATM   12  C   UNK N   1      28.192  18.867   6.389  0.00  0.00     0.140 A 
HETATM   13  N   UNK N   1      26.658  20.965   5.671  0.00  0.00    -0.337 N 
HETATM   14  C   UNK N   1      27.397  20.295   4.726  0.00  0.00     0.183 A 
ATOM     15  HN  UNK N   1      26.082  21.758   5.389  1.00  0.00     0.168 HD
HETATM   16  N   UNK N   1      28.181  19.232   5.086  0.00  0.00    -0.336 N 
ATOM     17  HN  UNK N   1      28.739  18.731   4.394  1.00  0.00     0.168 HD
BRANCH  11  18
HETATM   18  N   UNK N   1      25.927  21.282   7.948  0.00  0.00    -0.383 N 
HETATM   19  H   UNK N   1      25.150  21.823   7.682  0.00  0.00     0.157 HD
HETATM   20  H   UNK N   1      26.181  21.228   8.897  0.00  0.00     0.157 HD
ENDBRANCH  11  18
ENDBRANCH   5   6
ENDBRANCH   3   5
ENDBRANCH   2   3
ENDBRANCH   1   2
BRANCH   1  21
HETATM   21  P   UNK N   1      25.385  16.104   4.420  0.00  0.00     0.356 P 
HETATM   22  O   UNK N   1      26.496  17.039   3.873  0.00  0.00    -0.256 OA
BRANCH  21  23
HETATM   23  O   UNK N   1      25.693  15.963   6.128  0.00  0.00    -0.286 OA
BRANCH  23  24
HETATM   24  C   UNK N   1      24.685  15.119   6.612  0.00  0.00     0.360 C 
BRANCH  24  25
HETATM   25  O   UNK N   1      25.242  14.126   7.381  0.00  0.00    -0.272 OA
BRANCH  25  26
HETATM   26  C   UNK N   1      24.673  13.703   8.534  0.00  0.00     0.408 C 
HETATM   27  O   UNK N   1      25.374  13.568   9.526  0.00  0.00    -0.229 OA
BRANCH  26  28
HETATM   28  O   UNK N   1      23.335  13.441   8.588  0.00  0.00    -0.293 OA
BRANCH  28  29
HETATM   29  C   UNK N   1      22.577  13.406   9.749  0.00  0.00     0.126 C 
HETATM   30  C   UNK N   1      22.334  11.983  10.226  0.00  0.00     0.040 C 
HETATM   31  C   UNK N   1      21.263  14.151   9.580  0.00  0.00     0.040 C 
ENDBRANCH  28  29
ENDBRANCH  26  28
ENDBRANCH  25  26
ENDBRANCH  24  25
ENDBRANCH  23  24
ENDBRANCH  21  23
BRANCH  21  32
HETATM   32  O   UNK N   1      24.856  17.666   4.984  0.00  0.00    -0.286 OA
BRANCH  32  33
HETATM   33  C   UNK N   1      24.203  18.253   3.896  0.00  0.00     0.360 C 
BRANCH  33  34
HETATM   34  O   UNK N   1      24.190  19.621   4.056  0.00  0.00    -0.272 OA
BRANCH  34  35
HETATM   35  C   UNK N   1      23.917  20.458   3.026  0.00  0.00     0.408 C 
HETATM   36  O   UNK N   1      24.788  20.743   2.212  0.00  0.00    -0.229 OA
BRANCH  35  37
HETATM   37  O   UNK N   1      22.660  20.940   2.883  0.00  0.00    -0.293 OA
BRANCH  37  38
HETATM   38  C   UNK N   1      21.611  20.139   2.495  0.00  0.00     0.126 C 
HETATM   39  C   UNK N   1      20.502  20.218   3.525  0.00  0.00     0.040 C 
HETATM   40  C   UNK N   1      21.088  20.596   1.151  0.00  0.00     0.040 C 
ENDBRANCH  37  38
ENDBRANCH  35  37
ENDBRANCH  34  35
ENDBRANCH  33  34
ENDBRANCH  32  33
ENDBRANCH  21  32
ENDBRANCH   1  21
TORSDOF 18
ENDMDL
MODEL 2
REMARK VINA RESULT:      -6.2      6.754     11.138
REMARK  18 active torsions:
REMARK  status: ('A' for Active; 'I' for Inactive)
REMARK    1  A    between atoms: C_14  and  C_6 
REMARK    2  A    between atoms: N_27  and  C_6 
REMARK    3  A    between atoms: O_31  and  C_9 
REMARK    4  A    between atoms: O_34  and  C_9 
REMARK    5  A    between atoms: O_32  and  C_10 
REMARK    6  A    between atoms: O_35  and  C_10 
REMARK    7  A    between atoms: O_33  and  C_11 
REMARK    8  A    between atoms: P_38  and  C_11 
REMARK    9  A    between atoms: O_36  and  C_12 
REMARK   10  A    between atoms: O_37  and  C_13 
REMARK   11  A    between atoms: O_33  and  C_14 
REMARK   12  A    between atoms: N_20  and  C_16 
REMARK   13  A    between atoms: O_31  and  C_18 
REMARK   14  A    between atoms: O_36  and  C_18 
REMARK   15  A    between atoms: O_32  and  C_19 
REMARK   16  A    between atoms: O_37  and  C_19 
REMARK   17  A    between atoms: P_38  and  O_34 
REMARK   18  A    between atoms: P_38  and  O_35 
ROOT
HETATM    1  C   UNK N   1      34.915  16.761   8.908  0.00  0.00     0.300 C 
ENDROOT
BRANCH   1   2
HETATM    2  O   UNK N   1      33.918  17.646   9.366  0.00  0.00    -0.373 OA
BRANCH   2   3
HETATM    3  C   UNK N   1      32.904  17.874   8.391  0.00  0.00     0.136 C 
HETATM    4  C   UNK N   1      33.579  17.816   7.030  0.00  0.00     0.041 C 
BRANCH   3   5
HETATM    5  C   UNK N   1      31.687  16.909   8.445  0.00  0.00     0.163 C 
BRANCH   5   6
HETATM    6  N   UNK N   1      30.408  17.566   8.213  0.00  0.00    -0.325 N 
HETATM    7  C   UNK N   1      29.627  18.246   9.090  0.00  0.00     0.185 A 
HETATM    8  N   UNK N   1      28.513  18.740   8.473  0.00  0.00    -0.346 N 
HETATM    9  C   UNK N   1      28.634  18.334   7.195  0.00  0.00     0.122 A 
ATOM     10  HN  UNK N   1      27.761  19.292   8.887  1.00  0.00     0.167 HD
HETATM   11  C   UNK N   1      27.804  18.543   6.105  0.00  0.00     0.131 A 
HETATM   12  C   UNK N   1      29.769  17.627   7.046  0.00  0.00     0.140 A 
HETATM   13  N   UNK N   1      28.172  18.002   4.905  0.00  0.00    -0.337 N 
HETATM   14  C   UNK N   1      29.333  17.276   4.782  0.00  0.00     0.183 A 
ATOM     15  HN  UNK N   1      27.577  18.139   4.088  1.00  0.00     0.168 HD
HETATM   16  N   UNK N   1      30.149  17.086   5.864  0.00  0.00    -0.336 N 
ATOM     17  HN  UNK N   1      31.015  16.555   5.783  1.00  0.00     0.168 HD
BRANCH  11  18
HETATM   18  N   UNK N   1      26.616  19.293   6.221  0.00  0.00    -0.383 N 
HETATM   19  H   UNK N   1      26.613  20.260   6.039  0.00  0.00     0.157 HD
HETATM   20  H   UNK N   1      25.781  18.844   6.486  0.00  0.00     0.157 HD
ENDBRANCH  11  18
ENDBRANCH   5   6
ENDBRANCH   3   5
ENDBRANCH   2   3
ENDBRANCH   1   2
BRANCH   1  21
HETATM   21  P   UNK N   1      34.944  15.180   9.897  0.00  0.00     0.356 P 
HETATM   22  O   UNK N   1      36.125  16.105  10.298  0.00  0.00    -0.256 OA
BRANCH  21  23
HETATM   23  O   UNK N   1      35.246  14.730   8.241  0.00  0.00    -0.286 OA
BRANCH  23  24
HETATM   24  C   UNK N   1      34.070  14.100   7.815  0.00  0.00     0.360 C 
BRANCH  24  25
HETATM   25  O   UNK N   1      33.859  14.366   6.484  0.00  0.00    -0.272 OA
BRANCH  25  26
HETATM   26  C   UNK N   1      32.619  14.393   5.943  0.00  0.00     0.408 C 
HETATM   27  O   UNK N   1      31.757  13.655   6.399  0.00  0.00    -0.229 OA
BRANCH  26  28
HETATM   28  O   UNK N   1      32.334  15.238   4.910  0.00  0.00    -0.293 OA
BRANCH  28  29
HETATM   29  C   UNK N   1      33.253  15.692   3.976  0.00  0.00     0.126 C 
HETATM   30  C   UNK N   1      32.794  16.976   3.304  0.00  0.00     0.040 C 
HETATM   31  C   UNK N   1      33.571  14.625   2.942  0.00  0.00     0.040 C 
ENDBRANCH  28  29
ENDBRANCH  26  28
ENDBRANCH  25  26
ENDBRANCH  24  25
ENDBRANCH  23  24
ENDBRANCH  21  23
BRANCH  21  32
HETATM   32  O   UNK N   1      36.248  14.041  10.093  0.00  0.00    -0.286 OA
BRANCH  32  33
HETATM   33  C   UNK N   1      35.828  13.162  11.096  0.00  0.00     0.360 C 
BRANCH  33  34
HETATM   34  O   UNK N   1      36.566  13.385  12.238  0.00  0.00    -0.272 OA
BRANCH  34  35
HETATM   35  C   UNK N   1      35.999  13.858  13.374  0.00  0.00     0.408 C 
HETATM   36  O   UNK N   1      36.474  14.835  13.943  0.00  0.00    -0.229 OA
BRANCH  35  37
HETATM   37  O   UNK N   1      34.877  13.266  13.847  0.00  0.00    -0.293 OA
BRANCH  37  38
HETATM   38  C   UNK N   1      34.917  12.324  14.849  0.00  0.00     0.126 C 
HETATM   39  C   UNK N   1      34.589  12.980  16.176  0.00  0.00     0.040 C 
HETATM   40  C   UNK N   1      33.912  11.230  14.563  0.00  0.00     0.040 C 
ENDBRANCH  37  38
ENDBRANCH  35  37
ENDBRANCH  34  35
ENDBRANCH  33  34
ENDBRANCH  32  33
ENDBRANCH  21  32
ENDBRANCH   1  21
TORSDOF 18
ENDMDL
MODEL 3
REMARK VINA RESULT:      -5.7      7.642     11.776
REMARK  18 active torsions:
REMARK  status: ('A' for Active; 'I' for Inactive)
REMARK    1  A    between atoms: C_14  and  C_6 
REMARK    2  A    between atoms: N_27  and  C_6 
REMARK    3  A    between atoms: O_31  and  C_9 
REMARK    4  A    between atoms: O_34  and  C_9 
REMARK    5  A    between atoms: O_32  and  C_10 
REMARK    6  A    between atoms: O_35  and  C_10 
REMARK    7  A    between atoms: O_33  and  C_11 
REMARK    8  A    between atoms: P_38  and  C_11 
REMARK    9  A    between atoms: O_36  and  C_12 
REMARK   10  A    between atoms: O_37  and  C_13 
REMARK   11  A    between atoms: O_33  and  C_14 
REMARK   12  A    between atoms: N_20  and  C_16 
REMARK   13  A    between atoms: O_31  and  C_18 
REMARK   14  A    between atoms: O_36  and  C_18 
REMARK   15  A    between atoms: O_32  and  C_19 
REMARK   16  A    between atoms: O_37  and  C_19 
REMARK   17  A    between atoms: P_38  and  O_34 
REMARK   18  A    between atoms: P_38  and  O_35 
ROOT
HETATM    1  C   UNK N   1      33.427  13.937   8.637  0.00  0.00     0.300 C 
ENDROOT
BRANCH   1   2
HETATM    2  O   UNK N   1      33.435  14.233   7.259  0.00  0.00    -0.373 OA
BRANCH   2   3
HETATM    3  C   UNK N   1      34.211  13.304   6.508  0.00  0.00     0.136 C 
HETATM    4  C   UNK N   1      33.578  11.937   6.706  0.00  0.00     0.041 C 
BRANCH   3   5
HETATM    5  C   UNK N   1      34.371  13.625   4.996  0.00  0.00     0.163 C 
BRANCH   5   6
HETATM    6  N   UNK N   1      33.137  14.060   4.357  0.00  0.00    -0.325 N 
HETATM    7  C   UNK N   1      32.133  13.308   3.839  0.00  0.00     0.185 A 
HETATM    8  N   UNK N   1      31.130  14.097   3.352  0.00  0.00    -0.346 N 
HETATM    9  C   UNK N   1      31.557  15.354   3.581  0.00  0.00     0.122 A 
ATOM     10  HN  UNK N   1      30.257  13.802   2.914  1.00  0.00     0.167 HD
HETATM   11  C   UNK N   1      30.952  16.571   3.303  0.00  0.00     0.131 A 
HETATM   12  C   UNK N   1      32.761  15.327   4.179  0.00  0.00     0.140 A 
HETATM   13  N   UNK N   1      31.623  17.712   3.644  0.00  0.00    -0.337 N 
HETATM   14  C   UNK N   1      32.857  17.656   4.246  0.00  0.00     0.183 A 
ATOM     15  HN  UNK N   1      31.201  18.620   3.448  1.00  0.00     0.168 HD
HETATM   16  N   UNK N   1      33.437  16.447   4.523  0.00  0.00    -0.336 N 
ATOM     17  HN  UNK N   1      34.349  16.393   4.976  1.00  0.00     0.168 HD
BRANCH  11  18
HETATM   18  N   UNK N   1      29.683  16.637   2.694  0.00  0.00    -0.383 N 
HETATM   19  H   UNK N   1      29.227  15.819   2.393  0.00  0.00     0.157 HD
HETATM   20  H   UNK N   1      29.249  17.512   2.567  0.00  0.00     0.157 HD
ENDBRANCH  11  18
ENDBRANCH   5   6
ENDBRANCH   3   5
ENDBRANCH   2   3
ENDBRANCH   1   2
BRANCH   1  21
HETATM   21  P   UNK N   1      35.080  14.285   9.428  0.00  0.00     0.356 P 
HETATM   22  O   UNK N   1      34.308  13.196  10.219  0.00  0.00    -0.256 OA
BRANCH  21  23
HETATM   23  O   UNK N   1      34.139  15.741   9.595  0.00  0.00    -0.286 OA
BRANCH  23  24
HETATM   24  C   UNK N   1      35.079  16.765   9.764  0.00  0.00     0.360 C 
BRANCH  24  25
HETATM   25  O   UNK N   1      34.576  17.942   9.263  0.00  0.00    -0.272 OA
BRANCH  25  26
HETATM   26  C   UNK N   1      33.971  18.010   8.055  0.00  0.00     0.408 C 
HETATM   27  O   UNK N   1      34.611  17.723   7.054  0.00  0.00    -0.229 OA
BRANCH  26  28
HETATM   28  O   UNK N   1      32.662  18.385   7.957  0.00  0.00    -0.293 OA
BRANCH  28  29
HETATM   29  C   UNK N   1      31.585  17.638   8.407  0.00  0.00     0.126 C 
HETATM   30  C   UNK N   1      31.009  16.752   7.313  0.00  0.00     0.040 C 
HETATM   31  C   UNK N   1      30.505  18.522   9.009  0.00  0.00     0.040 C 
ENDBRANCH  28  29
ENDBRANCH  26  28
ENDBRANCH  25  26
ENDBRANCH  24  25
ENDBRANCH  23  24
ENDBRANCH  21  23
BRANCH  21  32
HETATM   32  O   UNK N   1      35.429  14.720  11.079  0.00  0.00    -0.286 OA
BRANCH  32  33
HETATM   33  C   UNK N   1      34.966  13.650  11.851  0.00  0.00     0.360 C 
BRANCH  33  34
HETATM   34  O   UNK N   1      35.123  13.950  13.187  0.00  0.00    -0.272 OA
BRANCH  34  35
HETATM   35  C   UNK N   1      35.995  13.275  13.973  0.00  0.00     0.408 C 
HETATM   36  O   UNK N   1      36.982  12.737  13.484  0.00  0.00    -0.229 OA
BRANCH  35  37
HETATM   37  O   UNK N   1      35.787  13.240  15.310  0.00  0.00    -0.293 OA
BRANCH  37  38
HETATM   38  C   UNK N   1      35.491  12.072  15.973  0.00  0.00     0.126 C 
HETATM   39  C   UNK N   1      35.151  12.379  17.417  0.00  0.00     0.040 C 
HETATM   40  C   UNK N   1      34.316  11.391  15.309  0.00  0.00     0.040 C 
ENDBRANCH  37  38
ENDBRANCH  35  37
ENDBRANCH  34  35
ENDBRANCH  33  34
ENDBRANCH  32  33
ENDBRANCH  21  32
ENDBRANCH   1  21
TORSDOF 18
ENDMDL
MODEL 4
REMARK VINA RESULT:      -5.7      5.413      8.384
REMARK  18 active torsions:
REMARK  status: ('A' for Active; 'I' for Inactive)
REMARK    1  A    between atoms: C_14  and  C_6 
REMARK    2  A    between atoms: N_27  and  C_6 
REMARK    3  A    between atoms: O_31  and  C_9 
REMARK    4  A    between atoms: O_34  and  C_9 
REMARK    5  A    between atoms: O_32  and  C_10 
REMARK    6  A    between atoms: O_35  and  C_10 
REMARK    7  A    between atoms: O_33  and  C_11 
REMARK    8  A    between atoms: P_38  and  C_11 
REMARK    9  A    between atoms: O_36  and  C_12 
REMARK   10  A    between atoms: O_37  and  C_13 
REMARK   11  A    between atoms: O_33  and  C_14 
REMARK   12  A    between atoms: N_20  and  C_16 
REMARK   13  A    between atoms: O_31  and  C_18 
REMARK   14  A    between atoms: O_36  and  C_18 
REMARK   15  A    between atoms: O_32  and  C_19 
REMARK   16  A    between atoms: O_37  and  C_19 
REMARK   17  A    between atoms: P_38  and  O_34 
REMARK   18  A    between atoms: P_38  and  O_35 
ROOT
HETATM    1  C   UNK N   1      33.231  13.902   7.189  0.00  0.00     0.300 C 
ENDROOT
BRANCH   1   2
HETATM    2  O   UNK N   1      34.124  14.219   6.146  0.00  0.00    -0.373 OA
BRANCH   2   3
HETATM    3  C   UNK N   1      34.372  13.110   5.287  0.00  0.00     0.136 C 
HETATM    4  C   UNK N   1      33.515  11.960   5.791  0.00  0.00     0.041 C 
BRANCH   3   5
HETATM    5  C   UNK N   1      34.124  13.360   3.774  0.00  0.00     0.163 C 
BRANCH   5   6
HETATM    6  N   UNK N   1      32.833  13.972   3.485  0.00  0.00    -0.325 N 
HETATM    7  C   UNK N   1      31.701  13.392   3.013  0.00  0.00     0.185 A 
HETATM    8  N   UNK N   1      30.692  14.304   2.904  0.00  0.00    -0.346 N 
HETATM    9  C   UNK N   1      31.244  15.461   3.316  0.00  0.00     0.122 A 
ATOM     10  HN  UNK N   1      29.736  14.146   2.583  1.00  0.00     0.167 HD
HETATM   11  C   UNK N   1      30.694  16.729   3.427  0.00  0.00     0.131 A 
HETATM   12  C   UNK N   1      32.529  15.258   3.659  0.00  0.00     0.140 A 
HETATM   13  N   UNK N   1      31.498  17.740   3.875  0.00  0.00    -0.337 N 
HETATM   14  C   UNK N   1      32.810  17.506   4.210  0.00  0.00     0.183 A 
ATOM     15  HN  UNK N   1      31.118  18.682   3.963  1.00  0.00     0.168 HD
HETATM   16  N   UNK N   1      33.337  16.247   4.106  0.00  0.00    -0.336 N 
ATOM     17  HN  UNK N   1      34.307  16.060   4.358  1.00  0.00     0.168 HD
BRANCH  11  18
HETATM   18  N   UNK N   1      29.347  16.976   3.093  0.00  0.00    -0.383 N 
HETATM   19  H   UNK N   1      28.867  17.744   3.479  0.00  0.00     0.157 HD
HETATM   20  H   UNK N   1      28.883  16.375   2.468  0.00  0.00     0.157 HD
ENDBRANCH  11  18
ENDBRANCH   5   6
ENDBRANCH   3   5
ENDBRANCH   2   3
ENDBRANCH   1   2
BRANCH   1  21
HETATM   21  P   UNK N   1      32.336  15.412   7.817  0.00  0.00     0.356 P 
HETATM   22  O   UNK N   1      31.571  14.772   6.628  0.00  0.00    -0.256 OA
BRANCH  21  23
HETATM   23  O   UNK N   1      33.844  15.975   7.153  0.00  0.00    -0.286 OA
BRANCH  23  24
HETATM   24  C   UNK N   1      34.281  16.972   8.035  0.00  0.00     0.360 C 
BRANCH  24  25
HETATM   25  O   UNK N   1      34.062  16.573   9.330  0.00  0.00    -0.272 OA
BRANCH  25  26
HETATM   26  C   UNK N   1      34.984  16.750  10.304  0.00  0.00     0.408 C 
HETATM   27  O   UNK N   1      35.745  17.704  10.234  0.00  0.00    -0.229 OA
BRANCH  26  28
HETATM   28  O   UNK N   1      35.057  15.880  11.354  0.00  0.00    -0.293 OA
BRANCH  28  29
HETATM   29  C   UNK N   1      36.188  15.169  11.721  0.00  0.00     0.126 C 
HETATM   30  C   UNK N   1      36.709  14.302  10.586  0.00  0.00     0.040 C 
HETATM   31  C   UNK N   1      35.942  14.335  12.968  0.00  0.00     0.040 C 
ENDBRANCH  28  29
ENDBRANCH  26  28
ENDBRANCH  25  26
ENDBRANCH  24  25
ENDBRANCH  23  24
ENDBRANCH  21  23
BRANCH  21  32
HETATM   32  O   UNK N   1      31.806  16.814   6.928  0.00  0.00    -0.286 OA
BRANCH  32  33
HETATM   33  C   UNK N   1      30.521  17.093   7.402  0.00  0.00     0.360 C 
BRANCH  33  34
HETATM   34  O   UNK N   1      29.720  17.482   6.351  0.00  0.00    -0.272 OA
BRANCH  34  35
HETATM   35  C   UNK N   1      28.454  17.922   6.542  0.00  0.00     0.408 C 
HETATM   36  O   UNK N   1      27.948  17.889   7.658  0.00  0.00    -0.229 OA
BRANCH  35  37
HETATM   37  O   UNK N   1      27.770  18.440   5.494  0.00  0.00    -0.293 OA
BRANCH  37  38
HETATM   38  C   UNK N   1      27.966  19.732   5.061  0.00  0.00     0.126 C 
HETATM   39  C   UNK N   1      27.201  19.956   3.773  0.00  0.00     0.040 C 
HETATM   40  C   UNK N   1      27.482  20.703   6.114  0.00  0.00     0.040 C 
ENDBRANCH  37  38
ENDBRANCH  35  37
ENDBRANCH  34  35
ENDBRANCH  33  34
ENDBRANCH  32  33
ENDBRANCH  21  32
ENDBRANCH   1  21
TORSDOF 18
ENDMDL
MODEL 5
REMARK VINA RESULT:      -5.7      8.379     12.572
REMARK  18 active torsions:
REMARK  status: ('A' for Active; 'I' for Inactive)
REMARK    1  A    between atoms: C_14  and  C_6 
REMARK    2  A    between atoms: N_27  and  C_6 
REMARK    3  A    between atoms: O_31  and  C_9 
REMARK    4  A    between atoms: O_34  and  C_9 
REMARK    5  A    between atoms: O_32  and  C_10 
REMARK    6  A    between atoms: O_35  and  C_10 
REMARK    7  A    between atoms: O_33  and  C_11 
REMARK    8  A    between atoms: P_38  and  C_11 
REMARK    9  A    between atoms: O_36  and  C_12 
REMARK   10  A    between atoms: O_37  and  C_13 
REMARK   11  A    between atoms: O_33  and  C_14 
REMARK   12  A    between atoms: N_20  and  C_16 
REMARK   13  A    between atoms: O_31  and  C_18 
REMARK   14  A    between atoms: O_36  and  C_18 
REMARK   15  A    between atoms: O_32  and  C_19 
REMARK   16  A    between atoms: O_37  and  C_19 
REMARK   17  A    between atoms: P_38  and  O_34 
REMARK   18  A    between atoms: P_38  and  O_35 
ROOT
HETATM    1  C   UNK N   1      35.188  16.185   9.548  0.00  0.00     0.300 C 
ENDROOT
BRANCH   1   2
HETATM    2  O   UNK N   1      34.426  17.359   9.717  0.00  0.00    -0.373 OA
BRANCH   2   3
HETATM    3  C   UNK N   1      33.477  17.546   8.671  0.00  0.00     0.136 C 
HETATM    4  C   UNK N   1      34.262  17.923   7.425  0.00  0.00     0.041 C 
BRANCH   3   5
HETATM    5  C   UNK N   1      32.538  16.340   8.388  0.00  0.00     0.163 C 
BRANCH   5   6
HETATM    6  N   UNK N   1      31.332  16.697   7.654  0.00  0.00    -0.325 N 
HETATM    7  C   UNK N   1      31.041  16.499   6.343  0.00  0.00     0.185 A 
HETATM    8  N   UNK N   1      29.789  16.953   6.045  0.00  0.00    -0.346 N 
HETATM    9  C   UNK N   1      29.327  17.443   7.211  0.00  0.00     0.122 A 
ATOM     10  HN  UNK N   1      29.312  16.928   5.143  1.00  0.00     0.167 HD
HETATM   11  C   UNK N   1      28.109  18.029   7.518  0.00  0.00     0.131 A 
HETATM   12  C   UNK N   1      30.257  17.291   8.171  0.00  0.00     0.140 A 
HETATM   13  N   UNK N   1      27.904  18.447   8.804  0.00  0.00    -0.337 N 
HETATM   14  C   UNK N   1      28.875  18.288   9.763  0.00  0.00     0.183 A 
ATOM     15  HN  UNK N   1      27.017  18.884   9.054  1.00  0.00     0.168 HD
HETATM   16  N   UNK N   1      30.070  17.698   9.448  0.00  0.00    -0.336 N 
ATOM     17  HN  UNK N   1      30.795  17.569  10.153  1.00  0.00     0.168 HD
BRANCH  11  18
HETATM   18  N   UNK N   1      27.104  18.188   6.542  0.00  0.00    -0.383 N 
HETATM   19  H   UNK N   1      26.369  18.828   6.678  0.00  0.00     0.157 HD
HETATM   20  H   UNK N   1      27.139  17.653   5.717  0.00  0.00     0.157 HD
ENDBRANCH  11  18
ENDBRANCH   5   6
ENDBRANCH   3   5
ENDBRANCH   2   3
ENDBRANCH   1   2
BRANCH   1  21
HETATM   21  P   UNK N   1      35.432  15.280  11.160  0.00  0.00     0.356 P 
HETATM   22  O   UNK N   1      36.721  16.044  10.757  0.00  0.00    -0.256 OA
BRANCH  21  23
HETATM   23  O   UNK N   1      35.211  14.059   9.938  0.00  0.00    -0.286 OA
BRANCH  23  24
HETATM   24  C   UNK N   1      35.918  14.526   8.823  0.00  0.00     0.360 C 
BRANCH  24  25
HETATM   25  O   UNK N   1      36.305  13.465   8.042  0.00  0.00    -0.272 OA
BRANCH  25  26
HETATM   26  C   UNK N   1      37.606  13.195   7.787  0.00  0.00     0.408 C 
HETATM   27  O   UNK N   1      37.917  12.756   6.690  0.00  0.00    -0.229 OA
BRANCH  26  28
HETATM   28  O   UNK N   1      38.558  13.420   8.740  0.00  0.00    -0.293 OA
BRANCH  28  29
HETATM   29  C   UNK N   1      39.165  12.437   9.505  0.00  0.00     0.126 C 
HETATM   30  C   UNK N   1      40.403  11.872   8.827  0.00  0.00     0.040 C 
HETATM   31  C   UNK N   1      38.191  11.326   9.863  0.00  0.00     0.040 C 
ENDBRANCH  28  29
ENDBRANCH  26  28
ENDBRANCH  25  26
ENDBRANCH  24  25
ENDBRANCH  23  24
ENDBRANCH  21  23
BRANCH  21  32
HETATM   32  O   UNK N   1      36.679  14.143  11.595  0.00  0.00    -0.286 OA
BRANCH  32  33
HETATM   33  C   UNK N   1      36.036  13.155  12.348  0.00  0.00     0.360 C 
BRANCH  33  34
HETATM   34  O   UNK N   1      35.240  13.752  13.300  0.00  0.00    -0.272 OA
BRANCH  34  35
HETATM   35  C   UNK N   1      35.477  13.603  14.625  0.00  0.00     0.408 C 
HETATM   36  O   UNK N   1      36.495  14.067  15.128  0.00  0.00    -0.229 OA
BRANCH  35  37
HETATM   37  O   UNK N   1      34.556  12.975  15.394  0.00  0.00    -0.293 OA
BRANCH  37  38
HETATM   38  C   UNK N   1      34.597  11.619  15.620  0.00  0.00     0.126 C 
HETATM   39  C   UNK N   1      33.738  10.907  14.594  0.00  0.00     0.040 C 
HETATM   40  C   UNK N   1      36.023  11.125  15.517  0.00  0.00     0.040 C 
ENDBRANCH  37  38
ENDBRANCH  35  37
ENDBRANCH  34  35
ENDBRANCH  33  34
ENDBRANCH  32  33
ENDBRANCH  21  32
ENDBRANCH   1  21
TORSDOF 18
ENDMDL
MODEL 6
REMARK VINA RESULT:      -5.6      7.595     11.786
REMARK  18 active torsions:
REMARK  status: ('A' for Active; 'I' for Inactive)
REMARK    1  A    between atoms: C_14  and  C_6 
REMARK    2  A    between atoms: N_27  and  C_6 
REMARK    3  A    between atoms: O_31  and  C_9 
REMARK    4  A    between atoms: O_34  and  C_9 
REMARK    5  A    between atoms: O_32  and  C_10 
REMARK    6  A    between atoms: O_35  and  C_10 
REMARK    7  A    between atoms: O_33  and  C_11 
REMARK    8  A    between atoms: P_38  and  C_11 
REMARK    9  A    between atoms: O_36  and  C_12 
REMARK   10  A    between atoms: O_37  and  C_13 
REMARK   11  A    between atoms: O_33  and  C_14 
REMARK   12  A    between atoms: N_20  and  C_16 
REMARK   13  A    between atoms: O_31  and  C_18 
REMARK   14  A    between atoms: O_36  and  C_18 
REMARK   15  A    between atoms: O_32  and  C_19 
REMARK   16  A    between atoms: O_37  and  C_19 
REMARK   17  A    between atoms: P_38  and  O_34 
REMARK   18  A    between atoms: P_38  and  O_35 
ROOT
HETATM    1  C   UNK N   1      35.157  15.805   9.649  0.00  0.00     0.300 C 
ENDROOT
BRANCH   1   2
HETATM    2  O   UNK N   1      34.742  17.143   9.795  0.00  0.00    -0.373 OA
BRANCH   2   3
HETATM    3  C   UNK N   1      33.698  17.491   8.890  0.00  0.00     0.136 C 
HETATM    4  C   UNK N   1      34.352  18.197   7.713  0.00  0.00     0.041 C 
BRANCH   3   5
HETATM    5  C   UNK N   1      32.808  16.314   8.403  0.00  0.00     0.163 C 
BRANCH   5   6
HETATM    6  N   UNK N   1      31.600  16.742   7.710  0.00  0.00    -0.325 N 
HETATM    7  C   UNK N   1      31.261  16.577   6.406  0.00  0.00     0.185 A 
HETATM    8  N   UNK N   1      30.025  17.098   6.152  0.00  0.00    -0.346 N 
HETATM    9  C   UNK N   1      29.623  17.594   7.338  0.00  0.00     0.122 A 
ATOM     10  HN  UNK N   1      29.520  17.109   5.265  1.00  0.00     0.167 HD
HETATM   11  C   UNK N   1      28.446  18.237   7.689  0.00  0.00     0.131 A 
HETATM   12  C   UNK N   1      30.573  17.383   8.267  0.00  0.00     0.140 A 
HETATM   13  N   UNK N   1      28.302  18.648   8.985  0.00  0.00    -0.337 N 
HETATM   14  C   UNK N   1      29.292  18.427   9.912  0.00  0.00     0.183 A 
ATOM     15  HN  UNK N   1      27.447  19.126   9.268  1.00  0.00     0.168 HD
HETATM   16  N   UNK N   1      30.445  17.782   9.554  0.00  0.00    -0.336 N 
ATOM     17  HN  UNK N   1      31.183  17.606  10.235  1.00  0.00     0.168 HD
BRANCH  11  18
HETATM   18  N   UNK N   1      27.423  18.461   6.746  0.00  0.00    -0.383 N 
HETATM   19  H   UNK N   1      26.976  19.336   6.688  0.00  0.00     0.157 HD
HETATM   20  H   UNK N   1      27.153  17.734   6.140  0.00  0.00     0.157 HD
ENDBRANCH  11  18
ENDBRANCH   5   6
ENDBRANCH   3   5
ENDBRANCH   2   3
ENDBRANCH   1   2
BRANCH   1  21
HETATM   21  P   UNK N   1      34.885  14.821  11.210  0.00  0.00     0.356 P 
HETATM   22  O   UNK N   1      35.997  15.884  11.414  0.00  0.00    -0.256 OA
BRANCH  21  23
HETATM   23  O   UNK N   1      35.517  13.706  10.029  0.00  0.00    -0.286 OA
BRANCH  23  24
HETATM   24  C   UNK N   1      34.868  12.493  10.290  0.00  0.00     0.360 C 
BRANCH  24  25
HETATM   25  O   UNK N   1      34.534  11.882   9.106  0.00  0.00    -0.272 OA
BRANCH  25  26
HETATM   26  C   UNK N   1      33.647  12.426   8.241  0.00  0.00     0.408 C 
HETATM   27  O   UNK N   1      32.567  12.812   8.663  0.00  0.00    -0.229 OA
BRANCH  26  28
HETATM   28  O   UNK N   1      33.958  12.549   6.917  0.00  0.00    -0.293 OA
BRANCH  28  29
HETATM   29  C   UNK N   1      33.543  13.584   6.095  0.00  0.00     0.126 C 
HETATM   30  C   UNK N   1      32.891  13.072   4.820  0.00  0.00     0.040 C 
HETATM   31  C   UNK N   1      34.685  14.533   5.772  0.00  0.00     0.040 C 
ENDBRANCH  28  29
ENDBRANCH  26  28
ENDBRANCH  25  26
ENDBRANCH  24  25
ENDBRANCH  23  24
ENDBRANCH  21  23
BRANCH  21  32
HETATM   32  O   UNK N   1      36.052  13.948  12.166  0.00  0.00    -0.286 OA
BRANCH  32  33
HETATM   33  C   UNK N   1      36.262  14.731  13.304  0.00  0.00     0.360 C 
BRANCH  33  34
HETATM   34  O   UNK N   1      36.661  13.924  14.347  0.00  0.00    -0.272 OA
BRANCH  34  35
HETATM   35  C   UNK N   1      35.795  13.514  15.304  0.00  0.00     0.408 C 
HETATM   36  O   UNK N   1      35.953  13.855  16.471  0.00  0.00    -0.229 OA
BRANCH  35  37
HETATM   37  O   UNK N   1      34.728  12.759  14.949  0.00  0.00    -0.293 OA
BRANCH  37  38
HETATM   38  C   UNK N   1      34.577  11.461  15.377  0.00  0.00     0.126 C 
HETATM   39  C   UNK N   1      33.521  10.769  14.539  0.00  0.00     0.040 C 
HETATM   40  C   UNK N   1      35.891  10.723  15.247  0.00  0.00     0.040 C 
ENDBRANCH  37  38
ENDBRANCH  35  37
ENDBRANCH  34  35
ENDBRANCH  33  34
ENDBRANCH  32  33
ENDBRANCH  21  32
ENDBRANCH   1  21
TORSDOF 18
ENDMDL
MODEL 7
REMARK VINA RESULT:      -5.6      8.012     11.780
REMARK  18 active torsions:
REMARK  status: ('A' for Active; 'I' for Inactive)
REMARK    1  A    between atoms: C_14  and  C_6 
REMARK    2  A    between atoms: N_27  and  C_6 
REMARK    3  A    between atoms: O_31  and  C_9 
REMARK    4  A    between atoms: O_34  and  C_9 
REMARK    5  A    between atoms: O_32  and  C_10 
REMARK    6  A    between atoms: O_35  and  C_10 
REMARK    7  A    between atoms: O_33  and  C_11 
REMARK    8  A    between atoms: P_38  and  C_11 
REMARK    9  A    between atoms: O_36  and  C_12 
REMARK   10  A    between atoms: O_37  and  C_13 
REMARK   11  A    between atoms: O_33  and  C_14 
REMARK   12  A    between atoms: N_20  and  C_16 
REMARK   13  A    between atoms: O_31  and  C_18 
REMARK   14  A    between atoms: O_36  and  C_18 
REMARK   15  A    between atoms: O_32  and  C_19 
REMARK   16  A    between atoms: O_37  and  C_19 
REMARK   17  A    between atoms: P_38  and  O_34 
REMARK   18  A    between atoms: P_38  and  O_35 
ROOT
HETATM    1  C   UNK N   1      34.844  16.071   9.806  0.00  0.00     0.300 C 
ENDROOT
BRANCH   1   2
HETATM    2  O   UNK N   1      34.398  17.401   9.667  0.00  0.00    -0.373 OA
BRANCH   2   3
HETATM    3  C   UNK N   1      33.512  17.565   8.563  0.00  0.00     0.136 C 
HETATM    4  C   UNK N   1      34.376  17.804   7.336  0.00  0.00     0.041 C 
BRANCH   3   5
HETATM    5  C   UNK N   1      32.516  16.399   8.319  0.00  0.00     0.163 C 
BRANCH   5   6
HETATM    6  N   UNK N   1      31.307  16.799   7.611  0.00  0.00    -0.325 N 
HETATM    7  C   UNK N   1      31.024  16.708   6.287  0.00  0.00     0.185 A 
HETATM    8  N   UNK N   1      29.766  17.168   6.022  0.00  0.00    -0.346 N 
HETATM    9  C   UNK N   1      29.293  17.551   7.224  0.00  0.00     0.122 A 
ATOM     10  HN  UNK N   1      29.293  17.212   5.119  1.00  0.00     0.167 HD
HETATM   11  C   UNK N   1      28.066  18.093   7.573  0.00  0.00     0.131 A 
HETATM   12  C   UNK N   1      30.222  17.333   8.171  0.00  0.00     0.140 A 
HETATM   13  N   UNK N   1      27.851  18.399   8.888  0.00  0.00    -0.337 N 
HETATM   14  C   UNK N   1      28.821  18.174   9.835  0.00  0.00     0.183 A 
ATOM     15  HN  UNK N   1      26.957  18.801   9.170  1.00  0.00     0.168 HD
HETATM   16  N   UNK N   1      30.024  17.629   9.477  0.00  0.00    -0.336 N 
ATOM     17  HN  UNK N   1      30.749  17.451  10.172  1.00  0.00     0.168 HD
BRANCH  11  18
HETATM   18  N   UNK N   1      27.063  18.320   6.609  0.00  0.00    -0.383 N 
HETATM   19  H   UNK N   1      27.069  17.833   5.754  0.00  0.00     0.157 HD
HETATM   20  H   UNK N   1      26.349  18.972   6.793  0.00  0.00     0.157 HD
ENDBRANCH  11  18
ENDBRANCH   5   6
ENDBRANCH   3   5
ENDBRANCH   2   3
ENDBRANCH   1   2
BRANCH   1  21
HETATM   21  P   UNK N   1      35.581  15.761  11.490  0.00  0.00     0.356 P 
HETATM   22  O   UNK N   1      36.640  15.545  10.377  0.00  0.00    -0.256 OA
BRANCH  21  23
HETATM   23  O   UNK N   1      34.383  14.521  11.242  0.00  0.00    -0.286 OA
BRANCH  23  24
HETATM   24  C   UNK N   1      34.679  13.975   9.986  0.00  0.00     0.360 C 
BRANCH  24  25
HETATM   25  O   UNK N   1      34.527  12.610  10.028  0.00  0.00    -0.272 OA
BRANCH  25  26
HETATM   26  C   UNK N   1      33.668  11.956   9.212  0.00  0.00     0.408 C 
HETATM   27  O   UNK N   1      32.699  12.554   8.769  0.00  0.00    -0.229 OA
BRANCH  26  28
HETATM   28  O   UNK N   1      33.888  10.650   8.883  0.00  0.00    -0.293 OA
BRANCH  28  29
HETATM   29  C   UNK N   1      33.368   9.559   9.563  0.00  0.00     0.126 C 
HETATM   30  C   UNK N   1      31.967   9.207   9.088  0.00  0.00     0.040 C 
HETATM   31  C   UNK N   1      33.388   9.779  11.067  0.00  0.00     0.040 C 
ENDBRANCH  28  29
ENDBRANCH  26  28
ENDBRANCH  25  26
ENDBRANCH  24  25
ENDBRANCH  23  24
ENDBRANCH  21  23
BRANCH  21  32
HETATM   32  O   UNK N   1      36.433  14.353  12.066  0.00  0.00    -0.286 OA
BRANCH  32  33
HETATM   33  C   UNK N   1      35.927  14.109  13.346  0.00  0.00     0.360 C 
BRANCH  33  34
HETATM   34  O   UNK N   1      36.832  13.354  14.058  0.00  0.00    -0.272 OA
BRANCH  34  35
HETATM   35  C   UNK N   1      36.932  12.013  13.890  0.00  0.00     0.408 C 
HETATM   36  O   UNK N   1      38.016  11.453  14.011  0.00  0.00    -0.229 OA
BRANCH  35  37
HETATM   37  O   UNK N   1      35.814  11.296  13.628  0.00  0.00    -0.293 OA
BRANCH  37  38
HETATM   38  C   UNK N   1      35.250  10.457  14.562  0.00  0.00     0.126 C 
HETATM   39  C   UNK N   1      33.769  10.754  14.682  0.00  0.00     0.040 C 
HETATM   40  C   UNK N   1      35.446   9.018  14.142  0.00  0.00     0.040 C 
ENDBRANCH  37  38
ENDBRANCH  35  37
ENDBRANCH  34  35
ENDBRANCH  33  34
ENDBRANCH  32  33
ENDBRANCH  21  32
ENDBRANCH   1  21
TORSDOF 18
ENDMDL
MODEL 8
REMARK VINA RESULT:      -5.6      3.477      5.437
REMARK  18 active torsions:
REMARK  status: ('A' for Active; 'I' for Inactive)
REMARK    1  A    between atoms: C_14  and  C_6 
REMARK    2  A    between atoms: N_27  and  C_6 
REMARK    3  A    between atoms: O_31  and  C_9 
REMARK    4  A    between atoms: O_34  and  C_9 
REMARK    5  A    between atoms: O_32  and  C_10 
REMARK    6  A    between atoms: O_35  and  C_10 
REMARK    7  A    between atoms: O_33  and  C_11 
REMARK    8  A    between atoms: P_38  and  C_11 
REMARK    9  A    between atoms: O_36  and  C_12 
REMARK   10  A    between atoms: O_37  and  C_13 
REMARK   11  A    between atoms: O_33  and  C_14 
REMARK   12  A    between atoms: N_20  and  C_16 
REMARK   13  A    between atoms: O_31  and  C_18 
REMARK   14  A    between atoms: O_36  and  C_18 
REMARK   15  A    between atoms: O_32  and  C_19 
REMARK   16  A    between atoms: O_37  and  C_19 
REMARK   17  A    between atoms: P_38  and  O_34 
REMARK   18  A    between atoms: P_38  and  O_35 
ROOT
HETATM    1  C   UNK N   1      20.517  15.598   3.620  0.00  0.00     0.300 C 
ENDROOT
BRANCH   1   2
HETATM    2  O   UNK N   1      21.494  15.212   2.680  0.00  0.00    -0.373 OA
BRANCH   2   3
HETATM    3  C   UNK N   1      21.439  13.821   2.379  0.00  0.00     0.136 C 
HETATM    4  C   UNK N   1      21.214  13.702   0.881  0.00  0.00     0.041 C 
BRANCH   3   5
HETATM    5  C   UNK N   1      22.673  12.986   2.820  0.00  0.00     0.163 C 
BRANCH   5   6
HETATM    6  N   UNK N   1      23.313  13.482   4.031  0.00  0.00    -0.325 N 
HETATM    7  C   UNK N   1      23.158  13.061   5.312  0.00  0.00     0.185 A 
HETATM    8  N   UNK N   1      23.961  13.767   6.161  0.00  0.00    -0.346 N 
HETATM    9  C   UNK N   1      24.604  14.639   5.361  0.00  0.00     0.122 A 
ATOM     10  HN  UNK N   1      24.053  13.659   7.172  1.00  0.00     0.167 HD
HETATM   11  C   UNK N   1      25.549  15.607   5.665  0.00  0.00     0.131 A 
HETATM   12  C   UNK N   1      24.208  14.468   4.087  0.00  0.00     0.140 A 
HETATM   13  N   UNK N   1      26.039  16.368   4.641  0.00  0.00    -0.337 N 
HETATM   14  C   UNK N   1      25.611  16.178   3.349  0.00  0.00     0.183 A 
ATOM     15  HN  UNK N   1      26.734  17.088   4.839  1.00  0.00     0.168 HD
HETATM   16  N   UNK N   1      24.685  15.212   3.062  0.00  0.00    -0.336 N 
ATOM     17  HN  UNK N   1      24.365  15.057   2.106  1.00  0.00     0.168 HD
BRANCH  11  18
HETATM   18  N   UNK N   1      25.999  15.802   6.986  0.00  0.00    -0.383 N 
HETATM   19  H   UNK N   1      25.374  15.746   7.743  0.00  0.00     0.157 HD
HETATM   20  H   UNK N   1      26.950  15.998   7.152  0.00  0.00     0.157 HD
ENDBRANCH  11  18
ENDBRANCH   5   6
ENDBRANCH   3   5
ENDBRANCH   2   3
ENDBRANCH   1   2
BRANCH   1  21
HETATM   21  P   UNK N   1      21.033  17.116   4.572  0.00  0.00     0.356 P 
HETATM   22  O   UNK N   1      21.922  16.924   3.314  0.00  0.00    -0.256 OA
BRANCH  21  23
HETATM   23  O   UNK N   1      21.375  15.751   5.598  0.00  0.00    -0.286 OA
BRANCH  23  24
HETATM   24  C   UNK N   1      21.292  16.249   6.905  0.00  0.00     0.360 C 
BRANCH  24  25
HETATM   25  O   UNK N   1      21.779  15.315   7.788  0.00  0.00    -0.272 OA
BRANCH  25  26
HETATM   26  C   UNK N   1      21.036  14.264   8.207  0.00  0.00     0.408 C 
HETATM   27  O   UNK N   1      19.849  14.434   8.443  0.00  0.00    -0.229 OA
BRANCH  26  28
HETATM   28  O   UNK N   1      21.603  13.032   8.354  0.00  0.00    -0.293 OA
BRANCH  28  29
HETATM   29  C   UNK N   1      22.463  12.669   9.379  0.00  0.00     0.126 C 
HETATM   30  C   UNK N   1      23.320  11.470   9.005  0.00  0.00     0.040 C 
HETATM   31  C   UNK N   1      21.710  12.412  10.674  0.00  0.00     0.040 C 
ENDBRANCH  28  29
ENDBRANCH  26  28
ENDBRANCH  25  26
ENDBRANCH  24  25
ENDBRANCH  23  24
ENDBRANCH  21  23
BRANCH  21  32
HETATM   32  O   UNK N   1      22.612  17.541   5.175  0.00  0.00    -0.286 OA
BRANCH  32  33
HETATM   33  C   UNK N   1      23.055  18.584   4.357  0.00  0.00     0.360 C 
BRANCH  33  34
HETATM   34  O   UNK N   1      24.345  18.920   4.703  0.00  0.00    -0.272 OA
BRANCH  34  35
HETATM   35  C   UNK N   1      25.018  19.914   4.075  0.00  0.00     0.408 C 
HETATM   36  O   UNK N   1      24.886  20.086   2.868  0.00  0.00    -0.229 OA
BRANCH  35  37
HETATM   37  O   UNK N   1      25.804  20.741   4.804  0.00  0.00    -0.293 OA
BRANCH  37  38
HETATM   38  C   UNK N   1      26.885  20.280   5.519  0.00  0.00     0.126 C 
HETATM   39  C   UNK N   1      27.923  19.723   4.566  0.00  0.00     0.040 C 
HETATM   40  C   UNK N   1      27.487  21.411   6.322  0.00  0.00     0.040 C 
ENDBRANCH  37  38
ENDBRANCH  35  37
ENDBRANCH  34  35
ENDBRANCH  33  34
ENDBRANCH  32  33
ENDBRANCH  21  32
ENDBRANCH   1  21
TORSDOF 18
ENDMDL
MODEL 9
REMARK VINA RESULT:      -5.6      4.866      7.343
REMARK  18 active torsions:
REMARK  status: ('A' for Active; 'I' for Inactive)
REMARK    1  A    between atoms: C_14  and  C_6 
REMARK    2  A    between atoms: N_27  and  C_6 
REMARK    3  A    between atoms: O_31  and  C_9 
REMARK    4  A    between atoms: O_34  and  C_9 
REMARK    5  A    between atoms: O_32  and  C_10 
REMARK    6  A    between atoms: O_35  and  C_10 
REMARK    7  A    between atoms: O_33  and  C_11 
REMARK    8  A    between atoms: P_38  and  C_11 
REMARK    9  A    between atoms: O_36  and  C_12 
REMARK   10  A    between atoms: O_37  and  C_13 
REMARK   11  A    between atoms: O_33  and  C_14 
REMARK   12  A    between atoms: N_20  and  C_16 
REMARK   13  A    between atoms: O_31  and  C_18 
REMARK   14  A    between atoms: O_36  and  C_18 
REMARK   15  A    between atoms: O_32  and  C_19 
REMARK   16  A    between atoms: O_37  and  C_19 
REMARK   17  A    between atoms: P_38  and  O_34 
REMARK   18  A    between atoms: P_38  and  O_35 
ROOT
HETATM    1  C   UNK N   1      21.162  16.790   6.196  0.00  0.00     0.300 C 
ENDROOT
BRANCH   1   2
HETATM    2  O   UNK N   1      22.220  16.121   6.843  0.00  0.00    -0.373 OA
BRANCH   2   3
HETATM    3  C   UNK N   1      22.960  15.288   5.955  0.00  0.00     0.136 C 
HETATM    4  C   UNK N   1      24.410  15.336   6.410  0.00  0.00     0.041 C 
BRANCH   3   5
HETATM    5  C   UNK N   1      22.466  13.820   5.837  0.00  0.00     0.163 C 
BRANCH   5   6
HETATM    6  N   UNK N   1      22.744  13.013   7.018  0.00  0.00    -0.325 N 
HETATM    7  C   UNK N   1      23.694  12.061   7.196  0.00  0.00     0.185 A 
HETATM    8  N   UNK N   1      23.648  11.552   8.462  0.00  0.00    -0.346 N 
HETATM    9  C   UNK N   1      22.634  12.217   9.049  0.00  0.00     0.122 A 
ATOM     10  HN  UNK N   1      24.245  10.832   8.870  1.00  0.00     0.167 HD
HETATM   11  C   UNK N   1      22.127  12.124  10.336  0.00  0.00     0.131 A 
HETATM   12  C   UNK N   1      22.093  13.087   8.178  0.00  0.00     0.140 A 
HETATM   13  N   UNK N   1      21.072  12.927  10.669  0.00  0.00    -0.337 N 
HETATM   14  C   UNK N   1      20.532  13.801   9.756  0.00  0.00     0.183 A 
ATOM     15  HN  UNK N   1      20.679  12.875  11.608  1.00  0.00     0.168 HD
HETATM   16  N   UNK N   1      21.049  13.890   8.492  0.00  0.00    -0.336 N 
ATOM     17  HN  UNK N   1      20.661  14.540   7.809  1.00  0.00     0.168 HD
BRANCH  11  18
HETATM   18  N   UNK N   1      22.680  11.235  11.280  0.00  0.00    -0.383 N 
HETATM   19  H   UNK N   1      23.567  10.836  11.134  0.00  0.00     0.157 HD
HETATM   20  H   UNK N   1      22.173  11.012  12.094  0.00  0.00     0.157 HD
ENDBRANCH  11  18
ENDBRANCH   5   6
ENDBRANCH   3   5
ENDBRANCH   2   3
ENDBRANCH   1   2
BRANCH   1  21
HETATM   21  P   UNK N   1      21.773  17.866   4.801  0.00  0.00     0.356 P 
HETATM   22  O   UNK N   1      21.583  18.698   6.097  0.00  0.00    -0.256 OA
BRANCH  21  23
HETATM   23  O   UNK N   1      20.177  17.335   4.349  0.00  0.00    -0.286 OA
BRANCH  23  24
HETATM   24  C   UNK N   1      20.336  16.724   3.099  0.00  0.00     0.360 C 
BRANCH  24  25
HETATM   25  O   UNK N   1      20.620  15.391   3.268  0.00  0.00    -0.272 OA
BRANCH  25  26
HETATM   26  C   UNK N   1      19.667  14.435   3.183  0.00  0.00     0.408 C 
HETATM   27  O   UNK N   1      18.755  14.433   3.997  0.00  0.00    -0.229 OA
BRANCH  26  28
HETATM   28  O   UNK N   1      19.718  13.493   2.196  0.00  0.00    -0.293 OA
BRANCH  28  29
HETATM   29  C   UNK N   1      18.791  13.359   1.175  0.00  0.00     0.126 C 
HETATM   30  C   UNK N   1      19.054  12.125   0.325  0.00  0.00     0.040 C 
HETATM   31  C   UNK N   1      18.730  14.607   0.309  0.00  0.00     0.040 C 
ENDBRANCH  28  29
ENDBRANCH  26  28
ENDBRANCH  25  26
ENDBRANCH  24  25
ENDBRANCH  23  24
ENDBRANCH  21  23
BRANCH  21  32
HETATM   32  O   UNK N   1      21.090  19.347   4.186  0.00  0.00    -0.286 OA
BRANCH  32  33
HETATM   33  C   UNK N   1      21.961  19.768   3.177  0.00  0.00     0.360 C 
BRANCH  33  34
HETATM   34  O   UNK N   1      23.243  19.369   3.485  0.00  0.00    -0.272 OA
BRANCH  34  35
HETATM   35  C   UNK N   1      24.300  20.208   3.369  0.00  0.00     0.408 C 
HETATM   36  O   UNK N   1      24.453  20.875   2.352  0.00  0.00    -0.229 OA
BRANCH  35  37
HETATM   37  O   UNK N   1      25.160  20.334   4.408  0.00  0.00    -0.293 OA
BRANCH  37  38
HETATM   38  C   UNK N   1      26.511  20.513   4.219  0.00  0.00     0.126 C 
HETATM   39  C   UNK N   1      27.126  21.094   5.476  0.00  0.00     0.040 C 
HETATM   40  C   UNK N   1      27.163  19.186   3.904  0.00  0.00     0.040 C 
ENDBRANCH  37  38
ENDBRANCH  35  37
ENDBRANCH  34  35
ENDBRANCH  33  34
ENDBRANCH  32  33
ENDBRANCH  21  32
ENDBRANCH   1  21
TORSDOF 18
ENDMDL
