REMARK  9 active torsions:
REMARK  status: ('A' for Active; 'I' for Inactive)
REMARK    1  A    between atoms: C_13  and  C_18 
REMARK    2  A    between atoms: C_16  and  C_21 
REMARK    3  A    between atoms: C_18  and  C_16 
REMARK    4  A    between atoms: C_23  and  O_61 
REMARK    5  A    between atoms: C_24  and  O_62 
REMARK    6  A    between atoms: C_28  and  O_64 
REMARK    7  A    between atoms: C_34  and  O_35 
REMARK    8  A    between atoms: C_46  and  O_49 
REMARK    9  A    between atoms: C_47  and  O_48 
ROOT
HETATM    1  C   UNK N   1      -3.300   6.531   0.707  0.00  0.00     0.035 C 
HETATM    2  C   UNK N   1      -3.133   5.439  -0.360  0.00  0.00     0.187 C 
HETATM    3  C   UNK N   1      -4.631   7.252   0.577  0.00  0.00     0.004 C 
HETATM    4  N   UNK N   1      -4.321   4.550  -0.338  0.00  0.00    -0.331 N 
HETATM    5  C   UNK N   1      -5.750   6.236   0.715  0.00  0.00     0.020 C 
HETATM    6  C   UNK N   1      -5.614   5.212  -0.402  0.00  0.00     0.127 C 
HETATM    7  C   UNK N   1      -1.798   4.812  -0.031  0.00  0.00     0.282 C 
HETATM    8  O   UNK N   1      -1.650   4.226   1.034  0.00  0.00    -0.263 OA
HETATM    9  O   UNK N   1      -3.194   2.596  -0.431  0.00  0.00    -0.264 OA
HETATM   10  C   UNK N   1      -4.263   3.166  -0.293  0.00  0.00     0.296 C 
HETATM   11  C   UNK N   1      -5.483   2.308  -0.055  0.00  0.00     0.278 C 
HETATM   12  O   UNK N   1      -6.554   2.827   0.223  0.00  0.00    -0.281 OA
HETATM   13  C   UNK N   1       0.563   4.632  -0.580  0.00  0.00     0.142 C 
HETATM   14  C   UNK N   1       0.658   3.104  -0.635  0.00  0.00     0.112 C 
HETATM   15  O   UNK N   1      -0.735   5.035  -0.850  0.00  0.00    -0.314 OA
HETATM   16  O   UNK N   1       1.249   2.961   1.651  0.00  0.00    -0.297 OA
HETATM   17  C   UNK N   1       0.657   2.441   0.716  0.00  0.00     0.136 C 
HETATM   18  O   UNK N   1      -4.276   0.457   0.810  0.00  0.00    -0.343 OA
HETATM   19  C   UNK N   1      -5.364   0.784  -0.052  0.00  0.00     0.238 C 
HETATM   20  C   UNK N   1      -4.084  -0.936   1.028  0.00  0.00     0.128 C 
HETATM   21  C   UNK N   1      -5.345  -1.592   1.593  0.00  0.00     0.033 C 
HETATM   22  C   UNK N   1      -6.683   0.122   0.448  0.00  0.00     0.053 C 
HETATM   23  C   UNK N   1      -6.506  -1.372   0.646  0.00  0.00     0.013 C 
HETATM   24  C   UNK N   1      -3.539  -1.672  -0.211  0.00  0.00     0.068 C 
HETATM   25  C   UNK N   1      -3.148  -3.116   0.131  0.00  0.00     0.151 C 
HETATM   26  C   UNK N   1      -0.910  -2.259   1.105  0.00  0.00     0.046 C 
HETATM   27  C   UNK N   1      -1.645  -3.303   0.340  0.00  0.00    -0.055 C 
HETATM   28  C   UNK N   1      -0.946  -4.406  -0.001  0.00  0.00     0.005 C 
HETATM   29  C   UNK N   1      -7.866   0.360  -0.479  0.00  0.00     0.016 C 
HETATM   30  C   UNK N   1       0.152   1.042   0.879  0.00  0.00     0.074 C 
HETATM   31  C   UNK N   1      -0.818   0.600  -0.211  0.00  0.00     0.022 C 
HETATM   32  C   UNK N   1       1.346   0.136   1.014  0.00  0.00    -0.010 C 
HETATM   33  C   UNK N   1       2.171  -0.206   0.009  0.00  0.00    -0.056 C 
HETATM   34  C   UNK N   1       1.929   0.221  -1.409  0.00  0.00     0.046 C 
HETATM   35  C   UNK N   1       3.391  -1.001   0.335  0.00  0.00     0.183 C 
HETATM   36  C   UNK N   1       3.314  -2.439  -0.211  0.00  0.00     0.223 C 
HETATM   37  C   UNK N   1       4.562  -3.274   0.034  0.00  0.00     0.162 C 
HETATM   38  C   UNK N   1      -1.527  -5.592  -0.649  0.00  0.00     0.000 C 
HETATM   39  C   UNK N   1      -0.885  -6.755  -0.846  0.00  0.00    -0.000 C 
HETATM   40  C   UNK N   1       4.596  -4.713  -0.415  0.00  0.00     0.055 C 
HETATM   41  C   UNK N   1       3.683  -5.541   0.477  0.00  0.00     0.020 C 
HETATM   42  O   UNK N   1       5.539  -2.775   0.576  0.00  0.00    -0.295 OA
HETATM   43  C   UNK N   1       0.531  -7.076  -0.546  0.00  0.00    -0.004 C 
HETATM   44  C   UNK N   1       1.541  -6.198  -0.596  0.00  0.00    -0.022 C 
HETATM   45  C   UNK N   1       2.970  -6.612  -0.318  0.00  0.00     0.005 C 
HETATM   46  C   UNK N   1       5.997  -5.307  -0.351  0.00  0.00     0.018 C 
HETATM   47  C   UNK N   1       3.085  -7.936   0.426  0.00  0.00     0.014 C 
ENDROOT
BRANCH  13  48
HETATM   48  C   UNK N   1       1.496   5.240  -1.639  0.00  0.00     0.012 C 
HETATM   49  C   UNK N   1       1.588   6.753  -1.503  0.00  0.00     0.012 C 
BRANCH  48  50
HETATM   50  C   UNK N   1       2.884   4.581  -1.746  0.00  0.00     0.011 C 
BRANCH  50  51
HETATM   51  C   UNK N   1       3.811   4.635  -0.531  0.00  0.00    -0.012 C 
HETATM   52  C   UNK N   1       4.830   3.512  -0.726  0.00  0.00     0.039 C 
HETATM   53  C   UNK N   1       5.917   3.535   0.355  0.00  0.00     0.150 C 
HETATM   54  C   UNK N   1       6.618   4.899   0.422  0.00  0.00     0.147 C 
HETATM   55  C   UNK N   1       5.581   5.997   0.652  0.00  0.00     0.035 C 
HETATM   56  C   UNK N   1       4.533   5.986  -0.463  0.00  0.00     0.007 C 
BRANCH  53  57
HETATM   57  O   UNK N   1       6.812   2.444   0.253  0.00  0.00    -0.388 OA
HETATM   58  C   UNK N   1       7.496   2.515  -0.973  0.00  0.00     0.202 C 
ENDBRANCH  53  57
BRANCH  54  59
HETATM   59  O   UNK N   1       7.546   4.909   1.463  0.00  0.00    -0.393 OA
HETATM   60  H   UNK N   1       7.876   4.354   2.187  0.00  0.00     0.210 HD
ENDBRANCH  54  59
ENDBRANCH  50  51
ENDBRANCH  48  50
ENDBRANCH  13  48
BRANCH  35  61
HETATM   61  O   UNK N   1       4.522  -0.332  -0.142  0.00  0.00    -0.388 OA
HETATM   62  H   UNK N   1       5.316  -0.779  -0.473  0.00  0.00     0.210 HD
ENDBRANCH  35  61
BRANCH  19  63
HETATM   63  O   UNK N   1      -5.080   0.372  -1.360  0.00  0.00    -0.359 OA
HETATM   64  H   UNK N   1      -5.229   0.059  -2.266  0.00  0.00     0.213 HD
ENDBRANCH  19  63
BRANCH  36  65
HETATM   65  O   UNK N   1       2.126  -3.096   0.190  0.00  0.00    -0.380 OA
HETATM   66  C   UNK N   1       2.097  -3.193   1.593  0.00  0.00     0.202 C 
ENDBRANCH  36  65
BRANCH  25  67
HETATM   67  O   UNK N   1      -3.706  -3.993  -0.803  0.00  0.00    -0.386 OA
HETATM   68  C   UNK N   1      -4.686  -4.694  -0.097  0.00  0.00     0.202 C 
ENDBRANCH  25  67
TORSDOF 9
