MODEL 1
REMARK VINA RESULT:      -7.3      0.000      0.000
REMARK  2 active torsions:
REMARK  status: ('A' for Active; 'I' for Inactive)
REMARK    1  A    between atoms: C_6  and  C_1 
REMARK       I    between atoms: N_8  and  C_6 
REMARK    2  A    between atoms: C_15  and  N_8 
ROOT
HETATM    1  C   UNK N   1      34.137  16.986   9.097  0.00  0.00     0.270 C 
HETATM    2  N   UNK N   1      34.328  15.775   9.689  0.00  0.00    -0.351 N 
HETATM    3  O   UNK N   1      34.989  17.860   9.150  0.00  0.00    -0.266 OA
HETATM    4  H   UNK N   1      33.571  15.147   9.647  0.00  0.00     0.163 HD
ENDROOT
BRANCH   1   5
HETATM    5  C   UNK N   1      32.912  17.206   8.309  0.00  0.00     0.128 A 
HETATM    6  N   UNK N   1      31.669  17.271   8.847  0.00  0.00    -0.293 N 
HETATM    7  N   UNK N   1      30.799  17.409   7.852  0.00  0.00    -0.295 N 
ATOM      8  HN  UNK N   1      31.441  17.225   9.839  1.00  0.00     0.187 HD
HETATM    9  C   UNK N   1      29.361  17.495   8.038  0.00  0.00     0.178 C 
HETATM   10  C   UNK N   1      31.464  17.420   6.685  0.00  0.00     0.063 A 
HETATM   11  C   UNK N   1      32.802  17.303   6.933  0.00  0.00     0.026 A 
HETATM   12  C   UNK N   1      30.954  17.506   5.392  0.00  0.00     0.032 A 
HETATM   13  C   UNK N   1      33.740  17.259   5.905  0.00  0.00     0.016 A 
HETATM   14  C   UNK N   1      33.262  17.344   4.582  0.00  0.00     0.001 A 
HETATM   15  C   UNK N   1      31.874  17.466   4.328  0.00  0.00     0.002 A 
ENDBRANCH   1   5
BRANCH   2  16
HETATM   16  C   UNK N   1      35.520  15.297  10.377  0.00  0.00     0.088 C 
HETATM   17  C   UNK N   1      35.318  14.690  11.778  0.00  0.00     0.061 C 
HETATM   18  C   UNK N   1      35.196  13.149  11.829  0.00  0.00     0.225 C 
HETATM   19  C   UNK N   1      36.229  12.646  12.844  0.00  0.00     0.036 C 
HETATM   20  N   UNK N   1      35.467  12.489  10.543  0.00  0.00     0.093 N 
HETATM   21  C   UNK N   1      37.571  12.265  12.186  0.00  0.00     0.004 C 
HETATM   22  C   UNK N   1      37.856  13.082  10.918  0.00  0.00     0.036 C 
HETATM   23  C   UNK N   1      36.676  13.059   9.921  0.00  0.00     0.225 C 
HETATM   24  C   UNK N   1      36.422  14.491   9.434  0.00  0.00     0.061 C 
HETATM   25  C   UNK N   1      34.306  12.525   9.660  0.00  0.00     0.310 C 
ENDBRANCH   2  16
TORSDOF 2
ENDMDL
MODEL 2
REMARK VINA RESULT:      -7.3      2.412      7.688
REMARK  2 active torsions:
REMARK  status: ('A' for Active; 'I' for Inactive)
REMARK    1  A    between atoms: C_6  and  C_1 
REMARK       I    between atoms: N_8  and  C_6 
REMARK    2  A    between atoms: C_15  and  N_8 
ROOT
HETATM    1  C   UNK N   1      35.911  13.892  11.307  0.00  0.00     0.270 C 
HETATM    2  N   UNK N   1      34.980  14.614  10.622  0.00  0.00    -0.351 N 
HETATM    3  O   UNK N   1      37.083  13.879  10.963  0.00  0.00    -0.266 OA
HETATM    4  H   UNK N   1      34.050  14.526  10.931  0.00  0.00     0.163 HD
ENDROOT
BRANCH   1   5
HETATM    5  C   UNK N   1      35.500  13.185  12.532  0.00  0.00     0.128 A 
HETATM    6  N   UNK N   1      34.642  12.135  12.548  0.00  0.00    -0.293 N 
HETATM    7  N   UNK N   1      34.442  11.788  13.814  0.00  0.00    -0.295 N 
ATOM      8  HN  UNK N   1      34.225  11.689  11.731  1.00  0.00     0.187 HD
HETATM    9  C   UNK N   1      33.564  10.709  14.231  0.00  0.00     0.178 C 
HETATM   10  C   UNK N   1      35.149  12.607  14.611  0.00  0.00     0.063 A 
HETATM   11  C   UNK N   1      35.837  13.498  13.837  0.00  0.00     0.026 A 
HETATM   12  C   UNK N   1      35.208  12.632  16.002  0.00  0.00     0.032 A 
HETATM   13  C   UNK N   1      36.639  14.490  14.394  0.00  0.00     0.016 A 
HETATM   14  C   UNK N   1      36.725  14.547  15.799  0.00  0.00     0.001 A 
HETATM   15  C   UNK N   1      36.011  13.622  16.600  0.00  0.00     0.002 A 
ENDBRANCH   1   5
BRANCH   2  16
HETATM   16  C   UNK N   1      35.199  15.500   9.488  0.00  0.00     0.088 C 
HETATM   17  C   UNK N   1      35.028  14.888   8.084  0.00  0.00     0.061 C 
HETATM   18  C   UNK N   1      33.644  15.094   7.428  0.00  0.00     0.225 C 
HETATM   19  C   UNK N   1      33.884  15.713   6.046  0.00  0.00     0.036 C 
HETATM   20  N   UNK N   1      32.758  15.995   8.179  0.00  0.00     0.093 N 
HETATM   21  C   UNK N   1      33.822  17.254   6.067  0.00  0.00     0.004 C 
HETATM   22  C   UNK N   1      34.247  17.840   7.420  0.00  0.00     0.036 C 
HETATM   23  C   UNK N   1      33.497  17.198   8.607  0.00  0.00     0.225 C 
HETATM   24  C   UNK N   1      34.516  16.857   9.701  0.00  0.00     0.061 C 
HETATM   25  C   UNK N   1      32.101  15.310   9.287  0.00  0.00     0.310 C 
ENDBRANCH   2  16
TORSDOF 2
ENDMDL
MODEL 3
REMARK VINA RESULT:      -7.1      1.647      7.105
REMARK  2 active torsions:
REMARK  status: ('A' for Active; 'I' for Inactive)
REMARK    1  A    between atoms: C_6  and  C_1 
REMARK       I    between atoms: N_8  and  C_6 
REMARK    2  A    between atoms: C_15  and  N_8 
ROOT
HETATM    1  C   UNK N   1      35.009  16.411   9.778  0.00  0.00     0.270 C 
HETATM    2  N   UNK N   1      34.044  16.006   8.907  0.00  0.00    -0.351 N 
HETATM    3  O   UNK N   1      35.316  17.589   9.883  0.00  0.00    -0.266 OA
HETATM    4  H   UNK N   1      33.897  15.035   8.843  0.00  0.00     0.163 HD
ENDROOT
BRANCH   1   5
HETATM    5  C   UNK N   1      35.629  15.412  10.665  0.00  0.00     0.128 A 
HETATM    6  N   UNK N   1      35.495  15.411  12.014  0.00  0.00    -0.293 N 
HETATM    7  N   UNK N   1      36.235  14.420  12.500  0.00  0.00    -0.295 N 
ATOM      8  HN  UNK N   1      34.926  16.057  12.561  1.00  0.00     0.187 HD
HETATM    9  C   UNK N   1      36.358  14.117  13.914  0.00  0.00     0.178 C 
HETATM   10  C   UNK N   1      36.851  13.793  11.483  0.00  0.00     0.063 A 
HETATM   11  C   UNK N   1      36.486  14.386  10.307  0.00  0.00     0.026 A 
HETATM   12  C   UNK N   1      37.746  12.728  11.531  0.00  0.00     0.032 A 
HETATM   13  C   UNK N   1      36.992  13.961   9.082  0.00  0.00     0.016 A 
HETATM   14  C   UNK N   1      37.901  12.884   9.090  0.00  0.00     0.001 A 
HETATM   15  C   UNK N   1      38.277  12.271  10.310  0.00  0.00     0.002 A 
ENDBRANCH   1   5
BRANCH   2  16
HETATM   16  C   UNK N   1      33.205  16.840   8.057  0.00  0.00     0.088 C 
HETATM   17  C   UNK N   1      33.857  17.418   6.787  0.00  0.00     0.061 C 
HETATM   18  C   UNK N   1      33.626  16.611   5.489  0.00  0.00     0.225 C 
HETATM   19  C   UNK N   1      33.061  17.583   4.445  0.00  0.00     0.036 C 
HETATM   20  N   UNK N   1      32.669  15.505   5.639  0.00  0.00     0.093 N 
HETATM   21  C   UNK N   1      31.519  17.592   4.415  0.00  0.00     0.004 C 
HETATM   22  C   UNK N   1      30.903  17.254   5.779  0.00  0.00     0.036 C 
HETATM   23  C   UNK N   1      31.479  15.956   6.385  0.00  0.00     0.225 C 
HETATM   24  C   UNK N   1      31.818  16.214   7.858  0.00  0.00     0.061 C 
HETATM   25  C   UNK N   1      33.293  14.325   6.229  0.00  0.00     0.310 C 
ENDBRANCH   2  16
TORSDOF 2
ENDMDL
MODEL 4
REMARK VINA RESULT:      -7.0      2.633      7.895
REMARK  2 active torsions:
REMARK  status: ('A' for Active; 'I' for Inactive)
REMARK    1  A    between atoms: C_6  and  C_1 
REMARK       I    between atoms: N_8  and  C_6 
REMARK    2  A    between atoms: C_15  and  N_8 
ROOT
HETATM    1  C   UNK N   1      34.951  13.146  11.303  0.00  0.00     0.270 C 
HETATM    2  N   UNK N   1      34.015  14.001  10.805  0.00  0.00    -0.351 N 
HETATM    3  O   UNK N   1      35.551  12.369  10.576  0.00  0.00    -0.266 OA
HETATM    4  H   UNK N   1      33.538  14.554  11.465  0.00  0.00     0.163 HD
ENDROOT
BRANCH   1   5
HETATM    5  C   UNK N   1      35.296  13.225  12.732  0.00  0.00     0.128 A 
HETATM    6  N   UNK N   1      36.098  14.179  13.265  0.00  0.00    -0.293 N 
HETATM    7  N   UNK N   1      36.251  13.912  14.557  0.00  0.00    -0.295 N 
ATOM      8  HN  UNK N   1      36.511  14.965  12.763  1.00  0.00     0.187 HD
HETATM    9  C   UNK N   1      37.063  14.709  15.460  0.00  0.00     0.178 C 
HETATM   10  C   UNK N   1      35.569  12.794  14.859  0.00  0.00     0.063 A 
HETATM   11  C   UNK N   1      34.946  12.335  13.733  0.00  0.00     0.026 A 
HETATM   12  C   UNK N   1      35.479  12.130  16.079  0.00  0.00     0.032 A 
HETATM   13  C   UNK N   1      34.183  11.171  13.738  0.00  0.00     0.016 A 
HETATM   14  C   UNK N   1      34.068  10.471  14.955  0.00  0.00     0.001 A 
HETATM   15  C   UNK N   1      34.715  10.949  16.121  0.00  0.00     0.002 A 
ENDBRANCH   1   5
BRANCH   2  16
HETATM   16  C   UNK N   1      33.637  14.196   9.412  0.00  0.00     0.088 C 
HETATM   17  C   UNK N   1      32.470  15.162   9.136  0.00  0.00     0.061 C 
HETATM   18  C   UNK N   1      32.871  16.613   8.781  0.00  0.00     0.225 C 
HETATM   19  C   UNK N   1      32.174  16.966   7.462  0.00  0.00     0.036 C 
HETATM   20  N   UNK N   1      34.317  16.800   8.592  0.00  0.00     0.093 N 
HETATM   21  C   UNK N   1      33.058  16.688   6.230  0.00  0.00     0.004 C 
HETATM   22  C   UNK N   1      34.046  15.536   6.464  0.00  0.00     0.036 C 
HETATM   23  C   UNK N   1      34.868  15.714   7.759  0.00  0.00     0.225 C 
HETATM   24  C   UNK N   1      34.871  14.383   8.521  0.00  0.00     0.061 C 
HETATM   25  C   UNK N   1      35.016  16.946   9.864  0.00  0.00     0.310 C 
ENDBRANCH   2  16
TORSDOF 2
ENDMDL
MODEL 5
REMARK VINA RESULT:      -6.9      2.443      3.675
REMARK  2 active torsions:
REMARK  status: ('A' for Active; 'I' for Inactive)
REMARK    1  A    between atoms: C_6  and  C_1 
REMARK       I    between atoms: N_8  and  C_6 
REMARK    2  A    between atoms: C_15  and  N_8 
ROOT
HETATM    1  C   UNK N   1      36.152  15.156  10.296  0.00  0.00     0.270 C 
HETATM    2  N   UNK N   1      36.031  13.990  10.988  0.00  0.00    -0.351 N 
HETATM    3  O   UNK N   1      36.731  16.120  10.773  0.00  0.00    -0.266 OA
HETATM    4  H   UNK N   1      35.502  13.281  10.555  0.00  0.00     0.163 HD
ENDROOT
BRANCH   1   5
HETATM    5  C   UNK N   1      35.644  15.218   8.915  0.00  0.00     0.128 A 
HETATM    6  N   UNK N   1      36.011  14.356   7.934  0.00  0.00    -0.293 N 
HETATM    7  N   UNK N   1      35.421  14.741   6.808  0.00  0.00    -0.295 N 
ATOM      8  HN  UNK N   1      36.630  13.554   8.042  1.00  0.00     0.187 HD
HETATM    9  C   UNK N   1      35.591  14.069   5.532  0.00  0.00     0.178 C 
HETATM   10  C   UNK N   1      34.691  15.843   7.049  0.00  0.00     0.063 A 
HETATM   11  C   UNK N   1      34.799  16.170   8.370  0.00  0.00     0.026 A 
HETATM   12  C   UNK N   1      33.940  16.603   6.156  0.00  0.00     0.032 A 
HETATM   13  C   UNK N   1      34.167  17.289   8.906  0.00  0.00     0.016 A 
HETATM   14  C   UNK N   1      33.397  18.083   8.033  0.00  0.00     0.001 A 
HETATM   15  C   UNK N   1      33.285  17.742   6.663  0.00  0.00     0.002 A 
ENDBRANCH   1   5
BRANCH   2  16
HETATM   16  C   UNK N   1      36.591  13.666  12.293  0.00  0.00     0.088 C 
HETATM   17  C   UNK N   1      35.666  13.849  13.511  0.00  0.00     0.061 C 
HETATM   18  C   UNK N   1      34.930  12.577  13.990  0.00  0.00     0.225 C 
HETATM   19  C   UNK N   1      35.227  12.417  15.486  0.00  0.00     0.036 C 
HETATM   20  N   UNK N   1      35.364  11.347  13.310  0.00  0.00     0.093 N 
HETATM   21  C   UNK N   1      36.444  11.508  15.757  0.00  0.00     0.004 C 
HETATM   22  C   UNK N   1      37.472  11.551  14.618  0.00  0.00     0.036 C 
HETATM   23  C   UNK N   1      36.836  11.298  13.234  0.00  0.00     0.225 C 
HETATM   24  C   UNK N   1      37.372  12.346  12.252  0.00  0.00     0.061 C 
HETATM   25  C   UNK N   1      34.724  11.194  12.007  0.00  0.00     0.310 C 
ENDBRANCH   2  16
TORSDOF 2
ENDMDL
MODEL 6
REMARK VINA RESULT:      -6.9      3.229      5.358
REMARK  2 active torsions:
REMARK  status: ('A' for Active; 'I' for Inactive)
REMARK    1  A    between atoms: C_6  and  C_1 
REMARK       I    between atoms: N_8  and  C_6 
REMARK    2  A    between atoms: C_15  and  N_8 
ROOT
HETATM    1  C   UNK N   1      29.193  17.365   7.669  0.00  0.00     0.270 C 
HETATM    2  N   UNK N   1      30.506  17.073   7.457  0.00  0.00    -0.351 N 
HETATM    3  O   UNK N   1      28.739  17.462   8.799  0.00  0.00    -0.266 OA
HETATM    4  H   UNK N   1      30.778  16.957   6.518  0.00  0.00     0.163 HD
ENDROOT
BRANCH   1   5
HETATM    5  C   UNK N   1      28.332  17.650   6.509  0.00  0.00     0.128 A 
HETATM    6  N   UNK N   1      28.019  16.736   5.557  0.00  0.00    -0.293 N 
HETATM    7  N   UNK N   1      27.288  17.344   4.630  0.00  0.00    -0.295 N 
ATOM      8  HN  UNK N   1      28.295  15.755   5.553  1.00  0.00     0.187 HD
HETATM    9  C   UNK N   1      26.779  16.688   3.438  0.00  0.00     0.178 C 
HETATM   10  C   UNK N   1      27.137  18.636   4.966  0.00  0.00     0.063 A 
HETATM   11  C   UNK N   1      27.776  18.866   6.151  0.00  0.00     0.026 A 
HETATM   12  C   UNK N   1      26.480  19.647   4.270  0.00  0.00     0.032 A 
HETATM   13  C   UNK N   1      27.811  20.129   6.736  0.00  0.00     0.016 A 
HETATM   14  C   UNK N   1      27.156  21.178   6.061  0.00  0.00     0.001 A 
HETATM   15  C   UNK N   1      26.494  20.938   4.832  0.00  0.00     0.002 A 
ENDBRANCH   1   5
BRANCH   2  16
HETATM   16  C   UNK N   1      31.555  16.910   8.454  0.00  0.00     0.088 C 
HETATM   17  C   UNK N   1      32.083  15.481   8.681  0.00  0.00     0.061 C 
HETATM   18  C   UNK N   1      33.364  15.108   7.899  0.00  0.00     0.225 C 
HETATM   19  C   UNK N   1      34.381  14.583   8.919  0.00  0.00     0.036 C 
HETATM   20  N   UNK N   1      33.978  16.240   7.190  0.00  0.00     0.093 N 
HETATM   21  C   UNK N   1      35.324  15.687   9.440  0.00  0.00     0.004 C 
HETATM   22  C   UNK N   1      34.665  17.073   9.434  0.00  0.00     0.036 C 
HETATM   23  C   UNK N   1      34.033  17.424   8.068  0.00  0.00     0.225 C 
HETATM   24  C   UNK N   1      32.631  17.994   8.313  0.00  0.00     0.061 C 
HETATM   25  C   UNK N   1      33.313  16.509   5.920  0.00  0.00     0.310 C 
ENDBRANCH   2  16
TORSDOF 2
ENDMDL
MODEL 7
REMARK VINA RESULT:      -6.9      1.665      7.531
REMARK  2 active torsions:
REMARK  status: ('A' for Active; 'I' for Inactive)
REMARK    1  A    between atoms: C_6  and  C_1 
REMARK       I    between atoms: N_8  and  C_6 
REMARK    2  A    between atoms: C_15  and  N_8 
ROOT
HETATM    1  C   UNK N   1      35.379  16.007   9.871  0.00  0.00     0.270 C 
HETATM    2  N   UNK N   1      34.767  15.844   8.666  0.00  0.00    -0.351 N 
HETATM    3  O   UNK N   1      35.134  16.970  10.582  0.00  0.00    -0.266 OA
HETATM    4  H   UNK N   1      35.062  15.072   8.131  0.00  0.00     0.163 HD
ENDROOT
BRANCH   1   5
HETATM    5  C   UNK N   1      36.289  14.955  10.354  0.00  0.00     0.128 A 
HETATM    6  N   UNK N   1      37.407  14.561   9.695  0.00  0.00    -0.293 N 
HETATM    7  N   UNK N   1      37.948  13.554  10.372  0.00  0.00    -0.295 N 
ATOM      8  HN  UNK N   1      37.769  14.966   8.833  1.00  0.00     0.187 HD
HETATM    9  C   UNK N   1      39.153  12.855   9.962  0.00  0.00     0.178 C 
HETATM   10  C   UNK N   1      37.188  13.288  11.448  0.00  0.00     0.063 A 
HETATM   11  C   UNK N   1      36.135  14.158  11.475  0.00  0.00     0.026 A 
HETATM   12  C   UNK N   1      37.355  12.296  12.410  0.00  0.00     0.032 A 
HETATM   13  C   UNK N   1      35.161  14.103  12.469  0.00  0.00     0.016 A 
HETATM   14  C   UNK N   1      35.297  13.112  13.461  0.00  0.00     0.001 A 
HETATM   15  C   UNK N   1      36.389  12.211  13.430  0.00  0.00     0.002 A 
ENDBRANCH   1   5
BRANCH   2  16
HETATM   16  C   UNK N   1      33.729  16.676   8.074  0.00  0.00     0.088 C 
HETATM   17  C   UNK N   1      34.041  17.311   6.706  0.00  0.00     0.061 C 
HETATM   18  C   UNK N   1      33.522  16.536   5.473  0.00  0.00     0.225 C 
HETATM   19  C   UNK N   1      32.701  17.520   4.631  0.00  0.00     0.036 C 
HETATM   20  N   UNK N   1      32.654  15.397   5.810  0.00  0.00     0.093 N 
HETATM   21  C   UNK N   1      31.197  17.483   4.973  0.00  0.00     0.004 C 
HETATM   22  C   UNK N   1      30.936  17.087   6.433  0.00  0.00     0.036 C 
HETATM   23  C   UNK N   1      31.671  15.789   6.836  0.00  0.00     0.225 C 
HETATM   24  C   UNK N   1      32.350  16.014   8.192  0.00  0.00     0.061 C 
HETATM   25  C   UNK N   1      33.429  14.220   6.189  0.00  0.00     0.310 C 
ENDBRANCH   2  16
TORSDOF 2
ENDMDL
MODEL 8
REMARK VINA RESULT:      -6.8     13.678     17.961
REMARK  2 active torsions:
REMARK  status: ('A' for Active; 'I' for Inactive)
REMARK    1  A    between atoms: C_6  and  C_1 
REMARK       I    between atoms: N_8  and  C_6 
REMARK    2  A    between atoms: C_15  and  N_8 
ROOT
HETATM    1  C   UNK N   1      29.394  23.085  -3.194  0.00  0.00     0.270 C 
HETATM    2  N   UNK N   1      28.964  24.006  -4.100  0.00  0.00    -0.351 N 
HETATM    3  O   UNK N   1      28.831  22.943  -2.118  0.00  0.00    -0.266 OA
HETATM    4  H   UNK N   1      29.506  24.096  -4.917  0.00  0.00     0.163 HD
ENDROOT
BRANCH   1   5
HETATM    5  C   UNK N   1      30.505  22.192  -3.561  0.00  0.00     0.128 A 
HETATM    6  N   UNK N   1      31.632  22.043  -2.822  0.00  0.00    -0.293 N 
HETATM    7  N   UNK N   1      32.446  21.221  -3.476  0.00  0.00    -0.295 N 
ATOM      8  HN  UNK N   1      31.822  22.483  -1.923  1.00  0.00     0.187 HD
HETATM    9  C   UNK N   1      33.763  20.836  -3.001  0.00  0.00     0.178 C 
HETATM   10  C   UNK N   1      31.863  20.850  -4.629  0.00  0.00     0.063 A 
HETATM   11  C   UNK N   1      30.632  21.436  -4.715  0.00  0.00     0.026 A 
HETATM   12  C   UNK N   1      32.366  20.032  -5.636  0.00  0.00     0.032 A 
HETATM   13  C   UNK N   1      29.805  21.253  -5.819  0.00  0.00     0.016 A 
HETATM   14  C   UNK N   1      30.280  20.430  -6.859  0.00  0.00     0.001 A 
HETATM   15  C   UNK N   1      31.557  19.823  -6.768  0.00  0.00     0.002 A 
ENDBRANCH   1   5
BRANCH   2  16
HETATM   16  C   UNK N   1      27.800  24.875  -4.003  0.00  0.00     0.088 C 
HETATM   17  C   UNK N   1      27.983  26.338  -4.452  0.00  0.00     0.061 C 
HETATM   18  C   UNK N   1      27.560  26.650  -5.906  0.00  0.00     0.225 C 
HETATM   19  C   UNK N   1      26.581  27.829  -5.850  0.00  0.00     0.036 C 
HETATM   20  N   UNK N   1      26.882  25.533  -6.581  0.00  0.00     0.093 N 
HETATM   21  C   UNK N   1      25.108  27.377  -5.786  0.00  0.00     0.004 C 
HETATM   22  C   UNK N   1      24.942  26.015  -5.097  0.00  0.00     0.036 C 
HETATM   23  C   UNK N   1      25.873  24.933  -5.688  0.00  0.00     0.225 C 
HETATM   24  C   UNK N   1      26.539  24.179  -4.532  0.00  0.00     0.061 C 
HETATM   25  C   UNK N   1      27.834  24.554  -7.097  0.00  0.00     0.310 C 
ENDBRANCH   2  16
TORSDOF 2
ENDMDL
MODEL 9
REMARK VINA RESULT:      -6.8      2.174      7.406
REMARK  2 active torsions:
REMARK  status: ('A' for Active; 'I' for Inactive)
REMARK    1  A    between atoms: C_6  and  C_1 
REMARK       I    between atoms: N_8  and  C_6 
REMARK    2  A    between atoms: C_15  and  N_8 
ROOT
HETATM    1  C   UNK N   1      36.253  14.908  10.723  0.00  0.00     0.270 C 
HETATM    2  N   UNK N   1      35.130  15.386  10.119  0.00  0.00    -0.351 N 
HETATM    3  O   UNK N   1      37.342  14.964  10.172  0.00  0.00    -0.266 OA
HETATM    4  H   UNK N   1      34.285  15.252  10.607  0.00  0.00     0.163 HD
ENDROOT
BRANCH   1   5
HETATM    5  C   UNK N   1      36.155  14.394  12.099  0.00  0.00     0.128 A 
HETATM    6  N   UNK N   1      36.704  15.006  13.177  0.00  0.00    -0.293 N 
HETATM    7  N   UNK N   1      36.485  14.241  14.240  0.00  0.00    -0.295 N 
ATOM      8  HN  UNK N   1      37.198  15.898  13.173  1.00  0.00     0.187 HD
HETATM    9  C   UNK N   1      36.944  14.562  15.580  0.00  0.00     0.178 C 
HETATM   10  C   UNK N   1      35.814  13.141  13.859  0.00  0.00     0.063 A 
HETATM   11  C   UNK N   1      35.580  13.205  12.515  0.00  0.00     0.026 A 
HETATM   12  C   UNK N   1      35.408  12.056  14.631  0.00  0.00     0.032 A 
HETATM   13  C   UNK N   1      34.922  12.185  11.833  0.00  0.00     0.016 A 
HETATM   14  C   UNK N   1      34.496  11.070  12.581  0.00  0.00     0.001 A 
HETATM   15  C   UNK N   1      34.739  11.006  13.975  0.00  0.00     0.002 A 
ENDBRANCH   1   5
BRANCH   2  16
HETATM   16  C   UNK N   1      35.029  16.070   8.838  0.00  0.00     0.088 C 
HETATM   17  C   UNK N   1      34.845  15.187   7.589  0.00  0.00     0.061 C 
HETATM   18  C   UNK N   1      33.386  14.996   7.114  0.00  0.00     0.225 C 
HETATM   19  C   UNK N   1      33.338  15.382   5.631  0.00  0.00     0.036 C 
HETATM   20  N   UNK N   1      32.413  15.834   7.830  0.00  0.00     0.093 N 
HETATM   21  C   UNK N   1      32.949  16.858   5.414  0.00  0.00     0.004 C 
HETATM   22  C   UNK N   1      33.381  17.757   6.581  0.00  0.00     0.036 C 
HETATM   23  C   UNK N   1      32.918  17.214   7.951  0.00  0.00     0.225 C 
HETATM   24  C   UNK N   1      34.098  17.286   8.927  0.00  0.00     0.061 C 
HETATM   25  C   UNK N   1      32.041  15.254   9.117  0.00  0.00     0.310 C 
ENDBRANCH   2  16
TORSDOF 2
ENDMDL
