REMARK  17 active torsions:
REMARK  status: ('A' for Active; 'I' for Inactive)
REMARK    1  A    between atoms: C_3  and  O_18 
REMARK    2  A    between atoms: C_9  and  C_19 
REMARK    3  A    between atoms: C_15  and  O_40 
REMARK    4  A    between atoms: C_19  and  C_20 
REMARK    5  A    between atoms: C_20  and  C_21 
REMARK    6  A    between atoms: C_21  and  C_22 
REMARK    7  A    between atoms: C_22  and  C_23 
REMARK    8  A    between atoms: C_23  and  C_24 
REMARK    9  A    between atoms: C_24  and  C_25 
REMARK   10  A    between atoms: C_25  and  C_26 
REMARK   11  A    between atoms: C_26  and  C_27 
REMARK   12  A    between atoms: C_27  and  S_28 
REMARK   13  A    between atoms: S_28  and  C_30 
REMARK   14  A    between atoms: C_30  and  C_31 
REMARK   15  A    between atoms: C_31  and  C_32 
REMARK   16  A    between atoms: C_32  and  C_33 
REMARK   17  A    between atoms: C_33  and  C_34 
ROOT
HETATM    1  C   UNK N   1       5.009 -11.629   0.398  0.00  0.00     0.011 A 
HETATM    2  C   UNK N   1       3.867 -12.416   0.563  0.00  0.00     0.037 A 
HETATM    3  C   UNK N   1       3.887 -13.761   0.195  0.00  0.00     0.066 A 
HETATM    4  C   UNK N   1       5.043 -14.317  -0.358  0.00  0.00     0.044 A 
HETATM    5  C   UNK N   1       6.192 -13.537  -0.525  0.00  0.00    -0.048 A 
HETATM    6  C   UNK N   1       6.187 -12.181  -0.132  0.00  0.00    -0.047 A 
HETATM    7  C   UNK N   1       7.415 -11.303  -0.265  0.00  0.00     0.024 C 
HETATM    8  C   UNK N   1       7.390 -14.150  -1.179  0.00  0.00     0.044 C 
HETATM    9  C   UNK N   1       8.690 -13.583  -0.641  0.00  0.00    -0.005 C 
HETATM   10  C   UNK N   1       8.699 -12.043  -0.777  0.00  0.00     0.003 C 
HETATM   11  C   UNK N   1       8.823  -9.491   0.904  0.00  0.00     0.013 C 
HETATM   12  C   UNK N   1       7.698 -10.548   1.051  0.00  0.00     0.010 C 
HETATM   13  C   UNK N   1       9.992 -11.398  -0.220  0.00  0.00     0.001 C 
HETATM   14  C   UNK N   1       9.887  -9.887  -0.136  0.00  0.00    -0.014 C 
HETATM   15  C   UNK N   1      11.311  -9.555   0.281  0.00  0.00     0.126 C 
HETATM   16  C   UNK N   1      11.279 -11.642  -0.991  0.00  0.00     0.008 C 
HETATM   17  C   UNK N   1      12.183 -10.463  -0.590  0.00  0.00     0.033 C 
HETATM   18  C   UNK N   1       9.556  -9.259  -1.499  0.00  0.00     0.018 C 
ENDROOT
BRANCH   9  19
HETATM   19  C   UNK N   1       8.982 -14.142   0.751  0.00  0.00     0.005 C 
BRANCH  19  20
HETATM   20  C   UNK N   1      10.475 -14.399   0.907  0.00  0.00     0.000 C 
BRANCH  20  21
HETATM   21  C   UNK N   1      10.938 -15.495  -0.044  0.00  0.00     0.000 C 
BRANCH  21  22
HETATM   22  C   UNK N   1      12.377 -15.263  -0.480  0.00  0.00     0.000 C 
BRANCH  22  23
HETATM   23  C   UNK N   1      13.372 -15.776   0.552  0.00  0.00     0.000 C 
BRANCH  23  24
HETATM   24  C   UNK N   1      13.483 -14.829   1.738  0.00  0.00     0.000 C 
BRANCH  24  25
HETATM   25  C   UNK N   1      14.663 -13.878   1.595  0.00  0.00     0.001 C 
BRANCH  25  26
HETATM   26  C   UNK N   1      14.335 -12.693   0.698  0.00  0.00     0.012 C 
BRANCH  26  27
HETATM   27  C   UNK N   1      14.592 -12.999  -0.779  0.00  0.00     0.108 C 
BRANCH  27  28
HETATM   28  S   UNK N   1      16.331 -12.801  -1.344  0.00  0.00     0.014 S 
HETATM   29  O   UNK N   1      16.684 -11.747  -0.281  0.00  0.00    -0.258 OA
BRANCH  28  30
HETATM   30  C   UNK N   1      16.952 -14.208  -0.366  0.00  0.00     0.109 C 
BRANCH  30  31
HETATM   31  C   UNK N   1      18.466 -14.250  -0.383  0.00  0.00     0.019 C 
BRANCH  31  32
HETATM   32  C   UNK N   1      19.016 -13.338   0.704  0.00  0.00     0.090 C 
BRANCH  32  33
HETATM   33  C   UNK N   1      20.193 -12.489   0.222  0.00  0.00     0.339 C 
HETATM   34  F   UNK N   1      19.823 -11.785  -0.912  0.00  0.00    -0.196 F 
HETATM   35  F   UNK N   1      20.495 -11.581   1.220  0.00  0.00    -0.196 F 
BRANCH  33  36
HETATM   36  C   UNK N   1      21.441 -13.331  -0.072  0.00  0.00     0.454 C 
HETATM   37  F   UNK N   1      22.475 -12.497  -0.457  0.00  0.00    -0.165 F 
HETATM   38  F   UNK N   1      21.200 -14.232  -1.094  0.00  0.00    -0.165 F 
HETATM   39  F   UNK N   1      21.823 -14.023   1.063  0.00  0.00    -0.165 F 
ENDBRANCH  33  36
ENDBRANCH  32  33
ENDBRANCH  31  32
ENDBRANCH  30  31
ENDBRANCH  28  30
ENDBRANCH  27  28
ENDBRANCH  26  27
ENDBRANCH  25  26
ENDBRANCH  24  25
ENDBRANCH  23  24
ENDBRANCH  22  23
ENDBRANCH  21  22
ENDBRANCH  20  21
ENDBRANCH  19  20
ENDBRANCH   9  19
BRANCH   3  40
HETATM   40  O   UNK N   1       2.792 -14.519   0.365  0.00  0.00    -0.361 OA
HETATM   41  H   UNK N   1       1.952 -14.122   0.483  0.00  0.00     0.217 HD
ENDBRANCH   3  40
BRANCH  15  42
HETATM   42  O   UNK N   1      11.628  -8.204   0.121  0.00  0.00    -0.395 OA
HETATM   43  H   UNK N   1      12.550  -7.926   0.009  0.00  0.00     0.210 HD
ENDBRANCH  15  42
TORSDOF 17
