MODEL 1
REMARK VINA RESULT:      -7.1      0.000      0.000
REMARK  7 active torsions:
REMARK  status: ('A' for Active; 'I' for Inactive)
REMARK    1  A    between atoms: C_5  and  N_15 
REMARK    2  A    between atoms: C_11  and  C_12 
REMARK    3  A    between atoms: C_12  and  O_14 
REMARK       I    between atoms: N_15  and  C_16 
REMARK    4  A    between atoms: C_16  and  C_17 
REMARK    5  A    between atoms: C_17  and  C_18 
REMARK    6  A    between atoms: C_17  and  S_20 
REMARK    7  A    between atoms: C_18  and  C_21 
ROOT
HETATM    1  S   UNK N   1      33.662  11.882   8.653  0.00  0.00    -0.143 SA
HETATM    2  C   UNK N   1      34.959  13.176   8.715  0.00  0.00     0.150 C 
HETATM    3  N   UNK N   1      34.733  14.038   9.891  0.00  0.00    -0.322 N 
HETATM    4  C   UNK N   1      34.725  13.514  11.172  0.00  0.00     0.244 C 
HETATM    5  C   UNK N   1      35.109  12.087  11.538  0.00  0.00     0.177 C 
HETATM    6  C   UNK N   1      35.602  11.072  10.513  0.00  0.00     0.045 C 
HETATM    7  C   UNK N   1      34.534  10.562   9.562  0.00  0.00     0.078 C 
HETATM    8  C   UNK N   1      34.866  13.871   7.351  0.00  0.00     0.036 C 
HETATM    9  C   UNK N   1      35.234  15.327   7.404  0.00  0.00     0.005 C 
HETATM   10  C   UNK N   1      34.218  15.946   8.329  0.00  0.00     0.036 C 
HETATM   11  C   UNK N   1      34.516  15.495   9.759  0.00  0.00     0.186 C 
HETATM   12  O   UNK N   1      34.416  14.237  12.108  0.00  0.00    -0.271 OA
ENDROOT
BRANCH   5  13
HETATM   13  N   UNK N   1      34.208  11.515  12.510  0.00  0.00    -0.347 N 
HETATM   14  C   UNK N   1      34.686  10.936  13.643  0.00  0.00     0.232 C 
HETATM   15  O   UNK N   1      33.903  10.455  14.446  0.00  0.00    -0.272 OA
HETATM   16  H   UNK N   1      33.236  11.545  12.351  0.00  0.00     0.163 HD
BRANCH  14  17
HETATM   17  C   UNK N   1      36.176  10.829  13.885  0.00  0.00     0.140 C 
BRANCH  17  18
HETATM   18  C   UNK N   1      36.795  11.894  14.806  0.00  0.00     0.063 C 
BRANCH  18  19
HETATM   19  C   UNK N   1      36.161  12.120  16.154  0.00  0.00    -0.057 A 
HETATM   20  C   UNK N   1      35.711  13.409  16.467  0.00  0.00     0.007 A 
HETATM   21  C   UNK N   1      35.164  13.683  17.726  0.00  0.00     0.001 A 
HETATM   22  C   UNK N   1      35.064  12.668  18.679  0.00  0.00     0.000 A 
HETATM   23  C   UNK N   1      35.503  11.377  18.372  0.00  0.00     0.001 A 
HETATM   24  C   UNK N   1      36.051  11.103  17.115  0.00  0.00     0.007 A 
ENDBRANCH  18  19
ENDBRANCH  17  18
BRANCH  17  25
HETATM   25  S   UNK N   1      36.812   9.139  14.146  0.00  0.00    -0.168 SA
HETATM   26  H   UNK N   1      36.098   8.140  14.729  0.00  0.00     0.102 HD
ENDBRANCH  17  25
ENDBRANCH  14  17
ENDBRANCH   5  13
BRANCH  11  27
HETATM   27  C   UNK N   1      35.688  16.298  10.330  0.00  0.00     0.163 C 
HETATM   28  O   UNK N   1      35.584  17.501  10.514  0.00  0.00    -0.648 OA
BRANCH  27  29
HETATM   29  O   UNK N   1      36.844  15.691  10.660  0.00  0.00    -0.775 OA
HETATM   30  H   UNK N   1      37.003  15.322  11.507  0.00  0.00     0.167 HD
ENDBRANCH  27  29
ENDBRANCH  11  27
TORSDOF 7
ENDMDL
MODEL 2
REMARK VINA RESULT:      -6.8     11.635     14.730
REMARK  7 active torsions:
REMARK  status: ('A' for Active; 'I' for Inactive)
REMARK    1  A    between atoms: C_5  and  N_15 
REMARK    2  A    between atoms: C_11  and  C_12 
REMARK    3  A    between atoms: C_12  and  O_14 
REMARK       I    between atoms: N_15  and  C_16 
REMARK    4  A    between atoms: C_16  and  C_17 
REMARK    5  A    between atoms: C_17  and  C_18 
REMARK    6  A    between atoms: C_17  and  S_20 
REMARK    7  A    between atoms: C_18  and  C_21 
ROOT
HETATM    1  S   UNK N   1      21.300  15.484   4.291  0.00  0.00    -0.143 SA
HETATM    2  C   UNK N   1      21.739  16.805   3.098  0.00  0.00     0.150 C 
HETATM    3  N   UNK N   1      22.347  17.936   3.825  0.00  0.00    -0.322 N 
HETATM    4  C   UNK N   1      23.498  17.770   4.576  0.00  0.00     0.244 C 
HETATM    5  C   UNK N   1      24.350  16.509   4.606  0.00  0.00     0.177 C 
HETATM    6  C   UNK N   1      24.047  15.282   3.753  0.00  0.00     0.045 C 
HETATM    7  C   UNK N   1      22.827  14.491   4.193  0.00  0.00     0.078 C 
HETATM    8  C   UNK N   1      20.425  17.110   2.369  0.00  0.00     0.036 C 
HETATM    9  C   UNK N   1      20.311  18.543   1.931  0.00  0.00     0.005 C 
HETATM   10  C   UNK N   1      20.347  19.338   3.210  0.00  0.00     0.036 C 
HETATM   11  C   UNK N   1      21.766  19.296   3.777  0.00  0.00     0.186 C 
HETATM   12  O   UNK N   1      23.902  18.700   5.258  0.00  0.00    -0.271 OA
ENDROOT
BRANCH   5  13
HETATM   13  N   UNK N   1      24.778  16.175   5.944  0.00  0.00    -0.347 N 
HETATM   14  C   UNK N   1      26.086  15.921   6.211  0.00  0.00     0.232 C 
HETATM   15  O   UNK N   1      26.421  15.636   7.349  0.00  0.00    -0.272 OA
HETATM   16  H   UNK N   1      24.115  16.131   6.671  0.00  0.00     0.163 HD
BRANCH  14  17
HETATM   17  C   UNK N   1      27.116  15.929   5.101  0.00  0.00     0.140 C 
BRANCH  17  18
HETATM   18  C   UNK N   1      28.201  17.016   5.187  0.00  0.00     0.063 C 
BRANCH  18  19
HETATM   19  C   UNK N   1      27.759  18.447   5.350  0.00  0.00    -0.057 A 
HETATM   20  C   UNK N   1      27.265  19.121   4.225  0.00  0.00     0.007 A 
HETATM   21  C   UNK N   1      26.893  20.466   4.312  0.00  0.00     0.001 A 
HETATM   22  C   UNK N   1      27.012  21.147   5.526  0.00  0.00     0.000 A 
HETATM   23  C   UNK N   1      27.496  20.480   6.655  0.00  0.00     0.001 A 
HETATM   24  C   UNK N   1      27.870  19.135   6.568  0.00  0.00     0.007 A 
ENDBRANCH  18  19
ENDBRANCH  17  18
BRANCH  17  25
HETATM   25  S   UNK N   1      27.724  14.290   4.580  0.00  0.00    -0.168 SA
HETATM   26  H   UNK N   1      27.708  13.847   3.295  0.00  0.00     0.102 HD
ENDBRANCH  17  25
ENDBRANCH  14  17
ENDBRANCH   5  13
BRANCH  11  27
HETATM   27  C   UNK N   1      22.666  20.272   3.016  0.00  0.00     0.163 C 
HETATM   28  O   UNK N   1      22.271  21.395   2.743  0.00  0.00    -0.648 OA
BRANCH  27  29
HETATM   29  O   UNK N   1      23.915  19.920   2.654  0.00  0.00    -0.775 OA
HETATM   30  H   UNK N   1      24.673  20.136   3.160  0.00  0.00     0.167 HD
ENDBRANCH  27  29
ENDBRANCH  11  27
TORSDOF 7
ENDMDL
MODEL 3
REMARK VINA RESULT:      -6.5      9.935     12.728
REMARK  7 active torsions:
REMARK  status: ('A' for Active; 'I' for Inactive)
REMARK    1  A    between atoms: C_5  and  N_15 
REMARK    2  A    between atoms: C_11  and  C_12 
REMARK    3  A    between atoms: C_12  and  O_14 
REMARK       I    between atoms: N_15  and  C_16 
REMARK    4  A    between atoms: C_16  and  C_17 
REMARK    5  A    between atoms: C_17  and  C_18 
REMARK    6  A    between atoms: C_17  and  S_20 
REMARK    7  A    between atoms: C_18  and  C_21 
ROOT
HETATM    1  S   UNK N   1      21.415  13.724   6.590  0.00  0.00    -0.143 SA
HETATM    2  C   UNK N   1      22.150  13.972   8.251  0.00  0.00     0.150 C 
HETATM    3  N   UNK N   1      23.486  13.346   8.293  0.00  0.00    -0.322 N 
HETATM    4  C   UNK N   1      24.488  13.737   7.423  0.00  0.00     0.244 C 
HETATM    5  C   UNK N   1      24.413  14.930   6.479  0.00  0.00     0.177 C 
HETATM    6  C   UNK N   1      23.215  15.871   6.424  0.00  0.00     0.045 C 
HETATM    7  C   UNK N   1      21.968  15.272   5.799  0.00  0.00     0.078 C 
HETATM    8  C   UNK N   1      21.110  13.391   9.218  0.00  0.00     0.036 C 
HETATM    9  C   UNK N   1      21.721  12.805  10.459  0.00  0.00     0.005 C 
HETATM   10  C   UNK N   1      22.596  11.683   9.962  0.00  0.00     0.036 C 
HETATM   11  C   UNK N   1      23.817  12.283   9.266  0.00  0.00     0.186 C 
HETATM   12  O   UNK N   1      25.539  13.114   7.408  0.00  0.00    -0.271 OA
ENDROOT
BRANCH   5  13
HETATM   13  N   UNK N   1      24.950  14.622   5.174  0.00  0.00    -0.347 N 
HETATM   14  C   UNK N   1      26.038  15.283   4.698  0.00  0.00     0.232 C 
HETATM   15  O   UNK N   1      26.468  15.008   3.590  0.00  0.00    -0.272 OA
HETATM   16  H   UNK N   1      24.523  13.927   4.622  0.00  0.00     0.163 HD
BRANCH  14  17
HETATM   17  C   UNK N   1      26.680  16.393   5.503  0.00  0.00     0.140 C 
BRANCH  17  18
HETATM   18  C   UNK N   1      28.157  16.194   5.881  0.00  0.00     0.063 C 
BRANCH  18  19
HETATM   19  C   UNK N   1      28.672  16.887   7.117  0.00  0.00    -0.057 A 
HETATM   20  C   UNK N   1      27.767  17.155   8.152  0.00  0.00     0.007 A 
HETATM   21  C   UNK N   1      28.183  17.844   9.296  0.00  0.00     0.001 A 
HETATM   22  C   UNK N   1      29.508  18.269   9.413  0.00  0.00     0.000 A 
HETATM   23  C   UNK N   1      30.419  17.998   8.388  0.00  0.00     0.001 A 
HETATM   24  C   UNK N   1      30.003  17.311   7.243  0.00  0.00     0.007 A 
ENDBRANCH  18  19
ENDBRANCH  17  18
BRANCH  17  25
HETATM   25  S   UNK N   1      26.252  18.089   4.984  0.00  0.00    -0.168 SA
HETATM   26  H   UNK N   1      27.045  18.868   4.202  0.00  0.00     0.102 HD
ENDBRANCH  17  25
ENDBRANCH  14  17
ENDBRANCH   5  13
BRANCH  11  27
HETATM   27  C   UNK N   1      24.833  12.762  10.307  0.00  0.00     0.163 C 
HETATM   28  O   UNK N   1      25.026  12.119  11.327  0.00  0.00    -0.648 OA
BRANCH  27  29
HETATM   29  O   UNK N   1      25.548  13.886  10.106  0.00  0.00    -0.775 OA
HETATM   30  H   UNK N   1      25.921  14.384  10.806  0.00  0.00     0.167 HD
ENDBRANCH  27  29
ENDBRANCH  11  27
TORSDOF 7
ENDMDL
MODEL 4
REMARK VINA RESULT:      -6.5     19.140     22.996
REMARK  7 active torsions:
REMARK  status: ('A' for Active; 'I' for Inactive)
REMARK    1  A    between atoms: C_5  and  N_15 
REMARK    2  A    between atoms: C_11  and  C_12 
REMARK    3  A    between atoms: C_12  and  O_14 
REMARK       I    between atoms: N_15  and  C_16 
REMARK    4  A    between atoms: C_16  and  C_17 
REMARK    5  A    between atoms: C_17  and  C_18 
REMARK    6  A    between atoms: C_17  and  S_20 
REMARK    7  A    between atoms: C_18  and  C_21 
ROOT
HETATM    1  S   UNK N   1      30.963  21.985  -7.494  0.00  0.00    -0.143 SA
HETATM    2  C   UNK N   1      30.249  21.648  -5.840  0.00  0.00     0.150 C 
HETATM    3  N   UNK N   1      30.235  22.894  -5.051  0.00  0.00    -0.322 N 
HETATM    4  C   UNK N   1      29.546  24.012  -5.489  0.00  0.00     0.244 C 
HETATM    5  C   UNK N   1      28.608  24.049  -6.688  0.00  0.00     0.177 C 
HETATM    6  C   UNK N   1      28.283  22.817  -7.526  0.00  0.00     0.045 C 
HETATM    7  C   UNK N   1      29.421  22.332  -8.406  0.00  0.00     0.078 C 
HETATM    8  C   UNK N   1      31.114  20.512  -5.278  0.00  0.00     0.036 C 
HETATM    9  C   UNK N   1      31.246  20.556  -3.782  0.00  0.00     0.005 C 
HETATM   10  C   UNK N   1      31.930  21.868  -3.497  0.00  0.00     0.036 C 
HETATM   11  C   UNK N   1      30.943  23.005  -3.757  0.00  0.00     0.186 C 
HETATM   12  O   UNK N   1      29.656  25.059  -4.869  0.00  0.00    -0.271 OA
ENDROOT
BRANCH   5  13
HETATM   13  N   UNK N   1      28.792  25.240  -7.483  0.00  0.00    -0.347 N 
HETATM   14  C   UNK N   1      27.723  25.905  -7.996  0.00  0.00     0.232 C 
HETATM   15  O   UNK N   1      27.906  26.906  -8.669  0.00  0.00    -0.272 OA
HETATM   16  H   UNK N   1      29.702  25.575  -7.657  0.00  0.00     0.163 HD
BRANCH  14  17
HETATM   17  C   UNK N   1      26.318  25.381  -7.789  0.00  0.00     0.140 C 
BRANCH  17  18
HETATM   18  C   UNK N   1      25.353  26.302  -7.023  0.00  0.00     0.063 C 
BRANCH  18  19
HETATM   19  C   UNK N   1      25.649  26.590  -5.573  0.00  0.00    -0.057 A 
HETATM   20  C   UNK N   1      25.469  27.899  -5.107  0.00  0.00     0.007 A 
HETATM   21  C   UNK N   1      25.782  28.229  -3.785  0.00  0.00     0.001 A 
HETATM   22  C   UNK N   1      26.277  27.252  -2.919  0.00  0.00     0.000 A 
HETATM   23  C   UNK N   1      26.452  25.941  -3.373  0.00  0.00     0.001 A 
HETATM   24  C   UNK N   1      26.141  25.611  -4.697  0.00  0.00     0.007 A 
ENDBRANCH  18  19
ENDBRANCH  17  18
BRANCH  17  25
HETATM   25  S   UNK N   1      25.577  24.530  -9.222  0.00  0.00    -0.168 SA
HETATM   26  H   UNK N   1      25.021  25.173 -10.284  0.00  0.00     0.102 HD
ENDBRANCH  17  25
ENDBRANCH  14  17
ENDBRANCH   5  13
BRANCH  11  27
HETATM   27  C   UNK N   1      29.967  23.133  -2.584  0.00  0.00     0.163 C 
HETATM   28  O   UNK N   1      30.376  23.125  -1.433  0.00  0.00    -0.648 OA
BRANCH  27  29
HETATM   29  O   UNK N   1      28.645  23.279  -2.799  0.00  0.00    -0.775 OA
HETATM   30  H   UNK N   1      28.287  23.508  -3.634  0.00  0.00     0.167 HD
ENDBRANCH  27  29
ENDBRANCH  11  27
TORSDOF 7
ENDMDL
MODEL 5
REMARK VINA RESULT:      -6.5      4.474      8.749
REMARK  7 active torsions:
REMARK  status: ('A' for Active; 'I' for Inactive)
REMARK    1  A    between atoms: C_5  and  N_15 
REMARK    2  A    between atoms: C_11  and  C_12 
REMARK    3  A    between atoms: C_12  and  O_14 
REMARK       I    between atoms: N_15  and  C_16 
REMARK    4  A    between atoms: C_16  and  C_17 
REMARK    5  A    between atoms: C_17  and  C_18 
REMARK    6  A    between atoms: C_17  and  S_20 
REMARK    7  A    between atoms: C_18  and  C_21 
ROOT
HETATM    1  S   UNK N   1      35.258  12.199   7.034  0.00  0.00    -0.143 SA
HETATM    2  C   UNK N   1      34.610  13.238   8.398  0.00  0.00     0.150 C 
HETATM    3  N   UNK N   1      34.926  14.654   8.126  0.00  0.00    -0.322 N 
HETATM    4  C   UNK N   1      34.469  15.283   6.981  0.00  0.00     0.244 C 
HETATM    5  C   UNK N   1      33.478  14.688   5.990  0.00  0.00     0.177 C 
HETATM    6  C   UNK N   1      32.831  13.321   6.183  0.00  0.00     0.045 C 
HETATM    7  C   UNK N   1      33.768  12.144   5.983  0.00  0.00     0.078 C 
HETATM    8  C   UNK N   1      35.242  12.644   9.662  0.00  0.00     0.036 C 
HETATM    9  C   UNK N   1      35.490  13.666  10.735  0.00  0.00     0.005 C 
HETATM   10  C   UNK N   1      36.464  14.638  10.121  0.00  0.00     0.036 C 
HETATM   11  C   UNK N   1      35.733  15.465   9.063  0.00  0.00     0.186 C 
HETATM   12  O   UNK N   1      34.851  16.417   6.734  0.00  0.00    -0.271 OA
ENDROOT
BRANCH   5  13
HETATM   13  N   UNK N   1      33.861  14.944   4.621  0.00  0.00    -0.347 N 
HETATM   14  C   UNK N   1      32.973  15.478   3.741  0.00  0.00     0.232 C 
HETATM   15  O   UNK N   1      33.320  15.679   2.589  0.00  0.00    -0.272 OA
HETATM   16  H   UNK N   1      34.774  14.729   4.322  0.00  0.00     0.163 HD
BRANCH  14  17
HETATM   17  C   UNK N   1      31.548  15.767   4.161  0.00  0.00     0.140 C 
BRANCH  17  18
HETATM   18  C   UNK N   1      31.259  17.194   4.657  0.00  0.00     0.063 C 
BRANCH  18  19
HETATM   19  C   UNK N   1      30.517  17.356   5.958  0.00  0.00    -0.057 A 
HETATM   20  C   UNK N   1      29.166  17.722   5.910  0.00  0.00     0.007 A 
HETATM   21  C   UNK N   1      28.448  17.938   7.091  0.00  0.00     0.001 A 
HETATM   22  C   UNK N   1      29.077  17.788   8.328  0.00  0.00     0.000 A 
HETATM   23  C   UNK N   1      30.423  17.415   8.386  0.00  0.00     0.001 A 
HETATM   24  C   UNK N   1      31.142  17.201   7.205  0.00  0.00     0.007 A 
ENDBRANCH  18  19
ENDBRANCH  17  18
BRANCH  17  25
HETATM   25  S   UNK N   1      30.253  15.060   3.089  0.00  0.00    -0.168 SA
HETATM   26  H   UNK N   1      29.032  14.660   3.534  0.00  0.00     0.102 HD
ENDBRANCH  17  25
ENDBRANCH  14  17
ENDBRANCH   5  13
BRANCH  11  27
HETATM   27  C   UNK N   1      34.897  16.558   9.734  0.00  0.00     0.163 C 
HETATM   28  O   UNK N   1      35.433  17.555  10.192  0.00  0.00    -0.648 OA
BRANCH  27  29
HETATM   29  O   UNK N   1      33.557  16.450   9.813  0.00  0.00    -0.775 OA
HETATM   30  H   UNK N   1      32.991  17.189   9.921  0.00  0.00     0.167 HD
ENDBRANCH  27  29
ENDBRANCH  11  27
TORSDOF 7
ENDMDL
MODEL 6
REMARK VINA RESULT:      -6.5      2.180      7.577
REMARK  7 active torsions:
REMARK  status: ('A' for Active; 'I' for Inactive)
REMARK    1  A    between atoms: C_5  and  N_15 
REMARK    2  A    between atoms: C_11  and  C_12 
REMARK    3  A    between atoms: C_12  and  O_14 
REMARK       I    between atoms: N_15  and  C_16 
REMARK    4  A    between atoms: C_16  and  C_17 
REMARK    5  A    between atoms: C_17  and  C_18 
REMARK    6  A    between atoms: C_17  and  S_20 
REMARK    7  A    between atoms: C_18  and  C_21 
ROOT
HETATM    1  S   UNK N   1      36.619  10.144  12.963  0.00  0.00    -0.143 SA
HETATM    2  C   UNK N   1      35.354  10.844  14.090  0.00  0.00     0.150 C 
HETATM    3  N   UNK N   1      35.875  12.083  14.700  0.00  0.00    -0.322 N 
HETATM    4  C   UNK N   1      36.257  13.160  13.919  0.00  0.00     0.244 C 
HETATM    5  C   UNK N   1      36.033  13.277  12.418  0.00  0.00     0.177 C 
HETATM    6  C   UNK N   1      35.302  12.216  11.602  0.00  0.00     0.045 C 
HETATM    7  C   UNK N   1      36.076  10.925  11.406  0.00  0.00     0.078 C 
HETATM    8  C   UNK N   1      35.041   9.702  15.064  0.00  0.00     0.036 C 
HETATM    9  C   UNK N   1      34.659  10.183  16.436  0.00  0.00     0.005 C 
HETATM   10  C   UNK N   1      35.875  10.921  16.934  0.00  0.00     0.036 C 
HETATM   11  C   UNK N   1      36.003  12.236  16.165  0.00  0.00     0.186 C 
HETATM   12  O   UNK N   1      36.794  14.119  14.452  0.00  0.00    -0.271 OA
ENDROOT
BRANCH   5  13
HETATM   13  N   UNK N   1      37.187  13.816  11.737  0.00  0.00    -0.347 N 
HETATM   14  C   UNK N   1      37.050  14.488  10.564  0.00  0.00     0.232 C 
HETATM   15  O   UNK N   1      38.042  14.929  10.007  0.00  0.00    -0.272 OA
HETATM   16  H   UNK N   1      38.083  13.696  12.128  0.00  0.00     0.163 HD
BRANCH  14  17
HETATM   17  C   UNK N   1      35.690  14.639   9.916  0.00  0.00     0.140 C 
BRANCH  17  18
HETATM   18  C   UNK N   1      34.969  15.978  10.148  0.00  0.00     0.063 C 
BRANCH  18  19
HETATM   19  C   UNK N   1      33.955  16.423   9.126  0.00  0.00    -0.057 A 
HETATM   20  C   UNK N   1      34.309  17.452   8.244  0.00  0.00     0.007 A 
HETATM   21  C   UNK N   1      33.384  17.937   7.313  0.00  0.00     0.001 A 
HETATM   22  C   UNK N   1      32.098  17.397   7.260  0.00  0.00     0.000 A 
HETATM   23  C   UNK N   1      31.738  16.365   8.131  0.00  0.00     0.001 A 
HETATM   24  C   UNK N   1      32.663  15.880   9.063  0.00  0.00     0.007 A 
ENDBRANCH  18  19
ENDBRANCH  17  18
BRANCH  17  25
HETATM   25  S   UNK N   1      35.551  13.988   8.218  0.00  0.00    -0.168 SA
HETATM   26  H   UNK N   1      35.686  12.674   7.894  0.00  0.00     0.102 HD
ENDBRANCH  17  25
ENDBRANCH  14  17
ENDBRANCH   5  13
BRANCH  11  27
HETATM   27  C   UNK N   1      35.015  13.267  16.718  0.00  0.00     0.163 C 
HETATM   28  O   UNK N   1      33.932  13.437  16.180  0.00  0.00    -0.648 OA
BRANCH  27  29
HETATM   29  O   UNK N   1      35.312  13.987  17.816  0.00  0.00    -0.775 OA
HETATM   30  H   UNK N   1      34.752  14.029  18.566  0.00  0.00     0.167 HD
ENDBRANCH  27  29
ENDBRANCH  11  27
TORSDOF 7
ENDMDL
MODEL 7
REMARK VINA RESULT:      -6.3      2.744      3.952
REMARK  7 active torsions:
REMARK  status: ('A' for Active; 'I' for Inactive)
REMARK    1  A    between atoms: C_5  and  N_15 
REMARK    2  A    between atoms: C_11  and  C_12 
REMARK    3  A    between atoms: C_12  and  O_14 
REMARK       I    between atoms: N_15  and  C_16 
REMARK    4  A    between atoms: C_16  and  C_17 
REMARK    5  A    between atoms: C_17  and  C_18 
REMARK    6  A    between atoms: C_17  and  S_20 
REMARK    7  A    between atoms: C_18  and  C_21 
ROOT
HETATM    1  S   UNK N   1      33.438  13.311   4.946  0.00  0.00    -0.143 SA
HETATM    2  C   UNK N   1      33.962  15.034   5.292  0.00  0.00     0.150 C 
HETATM    3  N   UNK N   1      33.418  15.456   6.597  0.00  0.00    -0.322 N 
HETATM    4  C   UNK N   1      33.732  14.773   7.759  0.00  0.00     0.244 C 
HETATM    5  C   UNK N   1      34.769  13.664   7.872  0.00  0.00     0.177 C 
HETATM    6  C   UNK N   1      35.629  13.210   6.697  0.00  0.00     0.045 C 
HETATM    7  C   UNK N   1      34.882  12.431   5.630  0.00  0.00     0.078 C 
HETATM    8  C   UNK N   1      33.473  15.830   4.076  0.00  0.00     0.036 C 
HETATM    9  C   UNK N   1      33.106  17.249   4.409  0.00  0.00     0.005 C 
HETATM   10  C   UNK N   1      31.971  17.129   5.393  0.00  0.00     0.036 C 
HETATM   11  C   UNK N   1      32.526  16.629   6.726  0.00  0.00     0.186 C 
HETATM   12  O   UNK N   1      33.168  15.080   8.799  0.00  0.00    -0.271 OA
ENDROOT
BRANCH   5  13
HETATM   13  N   UNK N   1      34.305  12.568   8.688  0.00  0.00    -0.347 N 
HETATM   14  C   UNK N   1      34.736  12.426   9.970  0.00  0.00     0.232 C 
HETATM   15  O   UNK N   1      34.332  11.487  10.636  0.00  0.00    -0.272 OA
HETATM   16  H   UNK N   1      33.669  11.916   8.313  0.00  0.00     0.163 HD
BRANCH  14  17
HETATM   17  C   UNK N   1      35.754  13.383  10.552  0.00  0.00     0.140 C 
BRANCH  17  18
HETATM   18  C   UNK N   1      35.267  14.280  11.702  0.00  0.00     0.063 C 
BRANCH  18  19
HETATM   19  C   UNK N   1      35.544  13.834  13.115  0.00  0.00    -0.057 A 
HETATM   20  C   UNK N   1      36.460  14.572  13.875  0.00  0.00     0.007 A 
HETATM   21  C   UNK N   1      36.793  14.167  15.172  0.00  0.00     0.001 A 
HETATM   22  C   UNK N   1      36.210  13.021  15.717  0.00  0.00     0.000 A 
HETATM   23  C   UNK N   1      35.289  12.283  14.969  0.00  0.00     0.001 A 
HETATM   24  C   UNK N   1      34.957  12.687  13.671  0.00  0.00     0.007 A 
ENDBRANCH  18  19
ENDBRANCH  17  18
BRANCH  17  25
HETATM   25  S   UNK N   1      37.432  12.705  10.778  0.00  0.00    -0.168 SA
HETATM   26  H   UNK N   1      38.135  12.073   9.801  0.00  0.00     0.102 HD
ENDBRANCH  17  25
ENDBRANCH  14  17
ENDBRANCH   5  13
BRANCH  11  27
HETATM   27  C   UNK N   1      33.203  17.778   7.479  0.00  0.00     0.163 C 
HETATM   28  O   UNK N   1      32.608  18.377   8.361  0.00  0.00    -0.648 OA
BRANCH  27  29
HETATM   29  O   UNK N   1      34.472  18.133   7.198  0.00  0.00    -0.775 OA
HETATM   30  H   UNK N   1      34.978  18.695   7.751  0.00  0.00     0.167 HD
ENDBRANCH  27  29
ENDBRANCH  11  27
TORSDOF 7
ENDMDL
MODEL 8
REMARK VINA RESULT:      -6.3     18.958     22.196
REMARK  7 active torsions:
REMARK  status: ('A' for Active; 'I' for Inactive)
REMARK    1  A    between atoms: C_5  and  N_15 
REMARK    2  A    between atoms: C_11  and  C_12 
REMARK    3  A    between atoms: C_12  and  O_14 
REMARK       I    between atoms: N_15  and  C_16 
REMARK    4  A    between atoms: C_16  and  C_17 
REMARK    5  A    between atoms: C_17  and  C_18 
REMARK    6  A    between atoms: C_17  and  S_20 
REMARK    7  A    between atoms: C_18  and  C_21 
ROOT
HETATM    1  S   UNK N   1      31.934  20.865  -7.702  0.00  0.00    -0.143 SA
HETATM    2  C   UNK N   1      31.693  20.743  -5.889  0.00  0.00     0.150 C 
HETATM    3  N   UNK N   1      31.303  22.065  -5.359  0.00  0.00    -0.322 N 
HETATM    4  C   UNK N   1      30.162  22.708  -5.804  0.00  0.00     0.244 C 
HETATM    5  C   UNK N   1      29.109  22.093  -6.717  0.00  0.00     0.177 C 
HETATM    6  C   UNK N   1      29.179  20.652  -7.211  0.00  0.00     0.045 C 
HETATM    7  C   UNK N   1      30.258  20.389  -8.245  0.00  0.00     0.078 C 
HETATM    8  C   UNK N   1      33.019  20.179  -5.366  0.00  0.00     0.036 C 
HETATM    9  C   UNK N   1      33.362  20.659  -3.984  0.00  0.00     0.005 C 
HETATM   10  C   UNK N   1      33.495  22.154  -4.120  0.00  0.00     0.036 C 
HETATM   11  C   UNK N   1      32.105  22.756  -4.325  0.00  0.00     0.186 C 
HETATM   12  O   UNK N   1      29.939  23.850  -5.431  0.00  0.00    -0.271 OA
ENDROOT
BRANCH   5  13
HETATM   13  N   UNK N   1      28.667  23.018  -7.734  0.00  0.00    -0.347 N 
HETATM   14  C   UNK N   1      27.343  23.186  -7.991  0.00  0.00     0.232 C 
HETATM   15  O   UNK N   1      26.996  23.969  -8.859  0.00  0.00    -0.272 OA
HETATM   16  H   UNK N   1      29.332  23.533  -8.247  0.00  0.00     0.163 HD
BRANCH  14  17
HETATM   17  C   UNK N   1      26.304  22.366  -7.254  0.00  0.00     0.140 C 
BRANCH  17  18
HETATM   18  C   UNK N   1      25.298  23.153  -6.397  0.00  0.00     0.063 C 
BRANCH  18  19
HETATM   19  C   UNK N   1      25.820  24.293  -5.560  0.00  0.00    -0.057 A 
HETATM   20  C   UNK N   1      26.574  23.987  -4.420  0.00  0.00     0.007 A 
HETATM   21  C   UNK N   1      27.034  25.006  -3.580  0.00  0.00     0.001 A 
HETATM   22  C   UNK N   1      26.743  26.340  -3.876  0.00  0.00     0.000 A 
HETATM   23  C   UNK N   1      25.999  26.654  -5.016  0.00  0.00     0.001 A 
HETATM   24  C   UNK N   1      25.537  25.635  -5.855  0.00  0.00     0.007 A 
ENDBRANCH  18  19
ENDBRANCH  17  18
BRANCH  17  25
HETATM   25  S   UNK N   1      25.579  20.984  -8.198  0.00  0.00    -0.168 SA
HETATM   26  H   UNK N   1      24.529  21.115  -9.052  0.00  0.00     0.102 HD
ENDBRANCH  17  25
ENDBRANCH  14  17
ENDBRANCH   5  13
BRANCH  11  27
HETATM   27  C   UNK N   1      31.363  22.833  -2.988  0.00  0.00     0.163 C 
HETATM   28  O   UNK N   1      31.386  21.891  -2.210  0.00  0.00    -0.648 OA
BRANCH  27  29
HETATM   29  O   UNK N   1      30.690  23.946  -2.636  0.00  0.00    -0.775 OA
HETATM   30  H   UNK N   1      30.079  23.970  -1.926  0.00  0.00     0.167 HD
ENDBRANCH  27  29
ENDBRANCH  11  27
TORSDOF 7
ENDMDL
MODEL 9
REMARK VINA RESULT:      -6.2     21.839     23.442
REMARK  7 active torsions:
REMARK  status: ('A' for Active; 'I' for Inactive)
REMARK    1  A    between atoms: C_5  and  N_15 
REMARK    2  A    between atoms: C_11  and  C_12 
REMARK    3  A    between atoms: C_12  and  O_14 
REMARK       I    between atoms: N_15  and  C_16 
REMARK    4  A    between atoms: C_16  and  C_17 
REMARK    5  A    between atoms: C_17  and  C_18 
REMARK    6  A    between atoms: C_17  and  S_20 
REMARK    7  A    between atoms: C_18  and  C_21 
ROOT
HETATM    1  S   UNK N   1      30.754  29.808  -4.057  0.00  0.00    -0.143 SA
HETATM    2  C   UNK N   1      29.188  29.265  -3.272  0.00  0.00     0.150 C 
HETATM    3  N   UNK N   1      28.326  28.631  -4.289  0.00  0.00    -0.322 N 
HETATM    4  C   UNK N   1      28.749  27.518  -4.993  0.00  0.00     0.244 C 
HETATM    5  C   UNK N   1      30.017  26.726  -4.703  0.00  0.00     0.177 C 
HETATM    6  C   UNK N   1      30.954  27.056  -3.546  0.00  0.00     0.045 C 
HETATM    7  C   UNK N   1      31.765  28.325  -3.730  0.00  0.00     0.078 C 
HETATM    8  C   UNK N   1      28.629  30.537  -2.622  0.00  0.00     0.036 C 
HETATM    9  C   UNK N   1      27.127  30.568  -2.583  0.00  0.00     0.005 C 
HETATM   10  C   UNK N   1      26.705  30.541  -4.029  0.00  0.00     0.036 C 
HETATM   11  C   UNK N   1      26.974  29.147  -4.595  0.00  0.00     0.186 C 
HETATM   12  O   UNK N   1      28.058  27.096  -5.909  0.00  0.00    -0.271 OA
ENDROOT
BRANCH   5  13
HETATM   13  N   UNK N   1      30.719  26.363  -5.911  0.00  0.00    -0.347 N 
HETATM   14  C   UNK N   1      31.064  25.070  -6.152  0.00  0.00     0.232 C 
HETATM   15  O   UNK N   1      31.661  24.791  -7.178  0.00  0.00    -0.272 OA
HETATM   16  H   UNK N   1      30.950  27.059  -6.569  0.00  0.00     0.163 HD
BRANCH  14  17
HETATM   17  C   UNK N   1      30.768  23.991  -5.132  0.00  0.00     0.140 C 
BRANCH  17  18
HETATM   18  C   UNK N   1      29.621  23.024  -5.476  0.00  0.00     0.063 C 
BRANCH  18  19
HETATM   19  C   UNK N   1      28.207  23.529  -5.348  0.00  0.00    -0.057 A 
HETATM   20  C   UNK N   1      27.787  24.018  -4.104  0.00  0.00     0.007 A 
HETATM   21  C   UNK N   1      26.469  24.447  -3.920  0.00  0.00     0.001 A 
HETATM   22  C   UNK N   1      25.561  24.391  -4.980  0.00  0.00     0.000 A 
HETATM   23  C   UNK N   1      25.974  23.912  -6.227  0.00  0.00     0.001 A 
HETATM   24  C   UNK N   1      27.292  23.482  -6.411  0.00  0.00     0.007 A 
ENDBRANCH  18  19
ENDBRANCH  17  18
BRANCH  17  25
HETATM   25  S   UNK N   1      32.228  23.197  -4.380  0.00  0.00    -0.168 SA
HETATM   26  H   UNK N   1      32.182  22.418  -3.267  0.00  0.00     0.102 HD
ENDBRANCH  17  25
ENDBRANCH  14  17
ENDBRANCH   5  13
BRANCH  11  27
HETATM   27  C   UNK N   1      25.880  28.176  -4.144  0.00  0.00     0.163 C 
HETATM   28  O   UNK N   1      25.789  27.845  -2.972  0.00  0.00    -0.648 OA
BRANCH  27  29
HETATM   29  O   UNK N   1      24.986  27.687  -5.025  0.00  0.00    -0.775 OA
HETATM   30  H   UNK N   1      24.327  27.064  -4.791  0.00  0.00     0.167 HD
ENDBRANCH  27  29
ENDBRANCH  11  27
TORSDOF 7
ENDMDL
