MODEL 1
REMARK VINA RESULT:      -9.0      0.000      0.000
REMARK  13 active torsions:
REMARK  status: ('A' for Active; 'I' for Inactive)
REMARK    1  A    between atoms: C_16  and  C_3 
REMARK    2  A    between atoms: C_25  and  C_4 
REMARK    3  A    between atoms: C_17  and  C_15 
REMARK    4  A    between atoms: C_21  and  C_15 
REMARK    5  A    between atoms: C_30  and  C_16 
REMARK    6  A    between atoms: C_30  and  C_17 
REMARK    7  A    between atoms: C_25  and  C_22 
REMARK    8  A    between atoms: C_31  and  C_23 
REMARK    9  A    between atoms: N_37  and  C_24 
REMARK   10  A    between atoms: C_25  and  C_28 
REMARK   11  A    between atoms: O_38  and  C_26 
REMARK   12  A    between atoms: S_43  and  C_27 
REMARK   13  A    between atoms: S_43  and  N_37 
ROOT
HETATM    1  C   UNK N   1      32.179  17.379   7.587  0.00  0.00     0.060 C 
ENDROOT
BRANCH   1   2
HETATM    2  C   UNK N   1      32.207  16.724   6.186  0.00  0.00     0.010 C 
HETATM    3  C   UNK N   1      33.063  17.486   5.184  0.00  0.00     0.006 C 
ENDBRANCH   1   2
BRANCH   1   4
HETATM    4  C   UNK N   1      30.705  17.620   7.987  0.00  0.00    -0.047 A 
HETATM    5  C   UNK N   1      30.378  18.365   9.126  0.00  0.00     0.008 A 
HETATM    6  C   UNK N   1      29.063  18.664   9.464  0.00  0.00     0.003 A 
HETATM    7  C   UNK N   1      28.038  18.320   8.597  0.00  0.00     0.030 A 
HETATM    8  C   UNK N   1      28.325  17.672   7.397  0.00  0.00     0.043 A 
HETATM    9  C   UNK N   1      29.648  17.303   7.100  0.00  0.00     0.038 A 
BRANCH   8  10
HETATM   10  N   UNK N   1      27.274  17.514   6.469  0.00  0.00    -0.279 N 
HETATM   11  H   UNK N   1      26.717  16.707   6.554  0.00  0.00     0.179 HD
BRANCH  10  12
HETATM   12  S   UNK N   1      26.873  18.632   5.175  0.00  0.00     0.278 S 
HETATM   13  O   UNK N   1      27.395  19.975   5.698  0.00  0.00    -0.199 OA
HETATM   14  O   UNK N   1      27.939  18.337   4.109  0.00  0.00    -0.199 OA
BRANCH  12  15
HETATM   15  C   UNK N   1      25.282  18.908   4.386  0.00  0.00     0.149 A 
HETATM   16  C   UNK N   1      25.137  20.076   3.639  0.00  0.00     0.044 A 
HETATM   17  C   UNK N   1      23.891  20.428   3.139  0.00  0.00     0.020 A 
HETATM   18  C   UNK N   1      22.787  19.616   3.386  0.00  0.00     0.063 A 
HETATM   19  C   UNK N   1      22.976  18.418   4.096  0.00  0.00     0.105 A 
HETATM   20  N   UNK N   1      24.210  18.091   4.588  0.00  0.00    -0.355 N 
ATOM     21  HN  UNK N   1      24.328  17.225   5.113  1.00  0.00     0.166 HD
BRANCH  18  22
HETATM   22  C   UNK N   1      21.415  20.064   2.958  0.00  0.00     0.418 C 
HETATM   23  F   UNK N   1      20.570  20.147   4.048  0.00  0.00    -0.166 F 
HETATM   24  F   UNK N   1      21.509  21.306   2.357  0.00  0.00    -0.166 F 
HETATM   25  F   UNK N   1      20.872  19.179   2.039  0.00  0.00    -0.166 F 
ENDBRANCH  18  22
ENDBRANCH  12  15
ENDBRANCH  10  12
ENDBRANCH   8  10
ENDBRANCH   1   4
BRANCH   1  26
HETATM   26  C   UNK N   1      33.231  16.775   8.603  0.00  0.00     0.055 C 
HETATM   27  C   UNK N   1      33.046  15.566   9.219  0.00  0.00     0.059 C 
HETATM   28  C   UNK N   1      34.100  15.009  10.136  0.00  0.00     0.103 C 
HETATM   29  C   UNK N   1      35.523  15.282   9.633  0.00  0.00     0.077 C 
HETATM   30  O   UNK N   1      35.636  16.583   9.194  0.00  0.00    -0.306 OA
HETATM   31  C   UNK N   1      34.604  17.375   8.812  0.00  0.00     0.293 C 
HETATM   32  O   UNK N   1      34.833  18.546   8.642  0.00  0.00    -0.259 OA
BRANCH  27  33
HETATM   33  O   UNK N   1      31.930  14.834   9.072  0.00  0.00    -0.364 OA
HETATM   34  H   UNK N   1      31.251  14.793   9.715  0.00  0.00     0.217 HD
ENDBRANCH  27  33
BRANCH  29  35
HETATM   35  C   UNK N   1      35.921  14.349   8.475  0.00  0.00     0.038 C 
BRANCH  35  36
HETATM   36  C   UNK N   1      35.882  12.856   8.800  0.00  0.00    -0.002 C 
HETATM   37  C   UNK N   1      37.235  12.206   8.597  0.00  0.00     0.005 C 
ENDBRANCH  35  36
ENDBRANCH  29  35
BRANCH  29  38
HETATM   38  C   UNK N   1      36.491  15.107  10.806  0.00  0.00     0.043 C 
BRANCH  38  39
HETATM   39  C   UNK N   1      35.748  14.991  12.138  0.00  0.00     0.041 C 
BRANCH  39  40
HETATM   40  C   UNK N   1      36.328  13.889  12.962  0.00  0.00    -0.058 A 
HETATM   41  C   UNK N   1      36.895  12.773  12.336  0.00  0.00     0.007 A 
HETATM   42  C   UNK N   1      37.430  11.734  13.103  0.00  0.00     0.001 A 
HETATM   43  C   UNK N   1      37.401  11.809  14.499  0.00  0.00     0.000 A 
HETATM   44  C   UNK N   1      36.836  12.924  15.128  0.00  0.00     0.001 A 
HETATM   45  C   UNK N   1      36.294  13.960  14.360  0.00  0.00     0.007 A 
ENDBRANCH  39  40
ENDBRANCH  38  39
ENDBRANCH  29  38
ENDBRANCH   1  26
TORSDOF 13
ENDMDL
MODEL 2
REMARK VINA RESULT:      -8.9      8.451     11.595
REMARK  13 active torsions:
REMARK  status: ('A' for Active; 'I' for Inactive)
REMARK    1  A    between atoms: C_16  and  C_3 
REMARK    2  A    between atoms: C_25  and  C_4 
REMARK    3  A    between atoms: C_17  and  C_15 
REMARK    4  A    between atoms: C_21  and  C_15 
REMARK    5  A    between atoms: C_30  and  C_16 
REMARK    6  A    between atoms: C_30  and  C_17 
REMARK    7  A    between atoms: C_25  and  C_22 
REMARK    8  A    between atoms: C_31  and  C_23 
REMARK    9  A    between atoms: N_37  and  C_24 
REMARK   10  A    between atoms: C_25  and  C_28 
REMARK   11  A    between atoms: O_38  and  C_26 
REMARK   12  A    between atoms: S_43  and  C_27 
REMARK   13  A    between atoms: S_43  and  N_37 
ROOT
HETATM    1  C   UNK N   1      21.658  13.915   3.330  0.00  0.00     0.060 C 
ENDROOT
BRANCH   1   2
HETATM    2  C   UNK N   1      21.147  12.554   2.803  0.00  0.00     0.010 C 
HETATM    3  C   UNK N   1      22.094  11.399   3.101  0.00  0.00     0.006 C 
ENDBRANCH   1   2
BRANCH   1   4
HETATM    4  C   UNK N   1      21.097  15.035   2.425  0.00  0.00    -0.047 A 
HETATM    5  C   UNK N   1      20.414  14.733   1.241  0.00  0.00     0.008 A 
HETATM    6  C   UNK N   1      19.831  15.716   0.450  0.00  0.00     0.003 A 
HETATM    7  C   UNK N   1      19.817  17.030   0.890  0.00  0.00     0.030 A 
HETATM    8  C   UNK N   1      20.391  17.363   2.116  0.00  0.00     0.043 A 
HETATM    9  C   UNK N   1      21.048  16.378   2.872  0.00  0.00     0.038 A 
BRANCH   8  10
HETATM   10  N   UNK N   1      20.185  18.671   2.603  0.00  0.00    -0.279 N 
HETATM   11  H   UNK N   1      19.270  18.911   2.873  0.00  0.00     0.179 HD
BRANCH  10  12
HETATM   12  S   UNK N   1      21.420  19.910   2.770  0.00  0.00     0.278 S 
HETATM   13  O   UNK N   1      21.491  20.523   1.366  0.00  0.00    -0.199 OA
HETATM   14  O   UNK N   1      20.689  21.041   3.508  0.00  0.00    -0.199 OA
BRANCH  12  15
HETATM   15  C   UNK N   1      23.093  19.746   3.405  0.00  0.00     0.149 A 
HETATM   16  C   UNK N   1      24.069  20.570   2.847  0.00  0.00     0.044 A 
HETATM   17  C   UNK N   1      25.404  20.385   3.176  0.00  0.00     0.020 A 
HETATM   18  C   UNK N   1      25.768  19.372   4.062  0.00  0.00     0.063 A 
HETATM   19  C   UNK N   1      24.756  18.594   4.650  0.00  0.00     0.105 A 
HETATM   20  N   UNK N   1      23.446  18.786   4.306  0.00  0.00    -0.355 N 
ATOM     21  HN  UNK N   1      22.725  18.204   4.731  1.00  0.00     0.166 HD
BRANCH  18  22
HETATM   22  C   UNK N   1      27.223  19.086   4.317  0.00  0.00     0.418 C 
HETATM   23  F   UNK N   1      27.993  20.197   4.032  0.00  0.00    -0.166 F 
HETATM   24  F   UNK N   1      27.394  18.741   5.646  0.00  0.00    -0.166 F 
HETATM   25  F   UNK N   1      27.661  18.027   3.535  0.00  0.00    -0.166 F 
ENDBRANCH  18  22
ENDBRANCH  12  15
ENDBRANCH  10  12
ENDBRANCH   8  10
ENDBRANCH   1   4
BRANCH   1  26
HETATM   26  C   UNK N   1      21.657  14.037   4.908  0.00  0.00     0.055 C 
HETATM   27  C   UNK N   1      22.634  14.708   5.593  0.00  0.00     0.059 C 
HETATM   28  C   UNK N   1      22.561  14.842   7.089  0.00  0.00     0.103 C 
HETATM   29  C   UNK N   1      21.129  15.067   7.592  0.00  0.00     0.077 C 
HETATM   30  O   UNK N   1      20.256  14.215   6.952  0.00  0.00    -0.306 OA
HETATM   31  C   UNK N   1      20.484  13.607   5.761  0.00  0.00     0.293 C 
HETATM   32  O   UNK N   1      19.718  12.740   5.422  0.00  0.00    -0.259 OA
BRANCH  27  33
HETATM   33  O   UNK N   1      23.706  15.251   4.992  0.00  0.00    -0.364 OA
HETATM   34  H   UNK N   1      23.746  16.145   4.718  0.00  0.00     0.217 HD
ENDBRANCH  27  33
BRANCH  29  35
HETATM   35  C   UNK N   1      20.649  16.510   7.357  0.00  0.00     0.038 C 
BRANCH  35  36
HETATM   36  C   UNK N   1      19.351  16.888   8.070  0.00  0.00    -0.002 C 
HETATM   37  C   UNK N   1      19.544  18.075   8.990  0.00  0.00     0.005 C 
ENDBRANCH  35  36
ENDBRANCH  29  35
BRANCH  29  38
HETATM   38  C   UNK N   1      21.085  14.733   9.086  0.00  0.00     0.043 C 
BRANCH  38  39
HETATM   39  C   UNK N   1      21.029  13.223   9.324  0.00  0.00     0.041 C 
BRANCH  39  40
HETATM   40  C   UNK N   1      22.189  12.785  10.157  0.00  0.00    -0.058 A 
HETATM   41  C   UNK N   1      23.488  12.869   9.643  0.00  0.00     0.007 A 
HETATM   42  C   UNK N   1      24.576  12.451  10.415  0.00  0.00     0.001 A 
HETATM   43  C   UNK N   1      24.368  11.951  11.704  0.00  0.00     0.000 A 
HETATM   44  C   UNK N   1      23.071  11.867  12.220  0.00  0.00     0.001 A 
HETATM   45  C   UNK N   1      21.981  12.278  11.446  0.00  0.00     0.007 A 
ENDBRANCH  39  40
ENDBRANCH  38  39
ENDBRANCH  29  38
ENDBRANCH   1  26
TORSDOF 13
ENDMDL
MODEL 3
REMARK VINA RESULT:      -8.7      5.192      8.534
REMARK  13 active torsions:
REMARK  status: ('A' for Active; 'I' for Inactive)
REMARK    1  A    between atoms: C_16  and  C_3 
REMARK    2  A    between atoms: C_25  and  C_4 
REMARK    3  A    between atoms: C_17  and  C_15 
REMARK    4  A    between atoms: C_21  and  C_15 
REMARK    5  A    between atoms: C_30  and  C_16 
REMARK    6  A    between atoms: C_30  and  C_17 
REMARK    7  A    between atoms: C_25  and  C_22 
REMARK    8  A    between atoms: C_31  and  C_23 
REMARK    9  A    between atoms: N_37  and  C_24 
REMARK   10  A    between atoms: C_25  and  C_28 
REMARK   11  A    between atoms: O_38  and  C_26 
REMARK   12  A    between atoms: S_43  and  C_27 
REMARK   13  A    between atoms: S_43  and  N_37 
ROOT
HETATM    1  C   UNK N   1      25.864  16.855   4.019  0.00  0.00     0.060 C 
ENDROOT
BRANCH   1   2
HETATM    2  C   UNK N   1      25.643  15.473   3.359  0.00  0.00     0.010 C 
HETATM    3  C   UNK N   1      26.235  15.374   1.960  0.00  0.00     0.006 C 
ENDBRANCH   1   2
BRANCH   1   4
HETATM    4  C   UNK N   1      24.486  17.516   4.249  0.00  0.00    -0.047 A 
HETATM    5  C   UNK N   1      24.178  18.759   3.684  0.00  0.00     0.008 A 
HETATM    6  C   UNK N   1      22.921  19.339   3.808  0.00  0.00     0.003 A 
HETATM    7  C   UNK N   1      21.895  18.627   4.408  0.00  0.00     0.030 A 
HETATM    8  C   UNK N   1      22.126  17.340   4.891  0.00  0.00     0.043 A 
HETATM    9  C   UNK N   1      23.419  16.792   4.833  0.00  0.00     0.038 A 
BRANCH   8  10
HETATM   10  N   UNK N   1      21.011  16.590   5.320  0.00  0.00    -0.279 N 
HETATM   11  H   UNK N   1      20.388  16.274   4.626  0.00  0.00     0.179 HD
BRANCH  10  12
HETATM   12  S   UNK N   1      20.636  16.169   6.984  0.00  0.00     0.278 S 
HETATM   13  O   UNK N   1      20.825  17.495   7.730  0.00  0.00    -0.199 OA
HETATM   14  O   UNK N   1      19.102  16.085   6.991  0.00  0.00    -0.199 OA
BRANCH  12  15
HETATM   15  C   UNK N   1      21.325  14.847   7.988  0.00  0.00     0.149 A 
HETATM   16  C   UNK N   1      20.602  14.462   9.115  0.00  0.00     0.044 A 
HETATM   17  C   UNK N   1      21.151  13.563  10.018  0.00  0.00     0.020 A 
HETATM   18  C   UNK N   1      22.428  13.049   9.797  0.00  0.00     0.063 A 
HETATM   19  C   UNK N   1      23.109  13.415   8.624  0.00  0.00     0.105 A 
HETATM   20  N   UNK N   1      22.554  14.308   7.750  0.00  0.00    -0.355 N 
ATOM     21  HN  UNK N   1      23.067  14.574   6.910  1.00  0.00     0.166 HD
BRANCH  18  22
HETATM   22  C   UNK N   1      23.077  12.179  10.841  0.00  0.00     0.418 C 
HETATM   23  F   UNK N   1      22.919  10.844  10.524  0.00  0.00    -0.166 F 
HETATM   24  F   UNK N   1      24.426  12.477  10.906  0.00  0.00    -0.166 F 
HETATM   25  F   UNK N   1      22.521  12.411  12.090  0.00  0.00    -0.166 F 
ENDBRANCH  18  22
ENDBRANCH  12  15
ENDBRANCH  10  12
ENDBRANCH   8  10
ENDBRANCH   1   4
BRANCH   1  26
HETATM   26  C   UNK N   1      26.991  16.865   5.130  0.00  0.00     0.055 C 
HETATM   27  C   UNK N   1      28.165  17.553   4.978  0.00  0.00     0.059 C 
HETATM   28  C   UNK N   1      29.183  17.576   6.084  0.00  0.00     0.103 C 
HETATM   29  C   UNK N   1      28.542  17.664   7.475  0.00  0.00     0.077 C 
HETATM   30  O   UNK N   1      27.473  16.800   7.566  0.00  0.00    -0.306 OA
HETATM   31  C   UNK N   1      26.780  16.295   6.515  0.00  0.00     0.293 C 
HETATM   32  O   UNK N   1      26.001  15.402   6.739  0.00  0.00    -0.259 OA
BRANCH  27  33
HETATM   33  O   UNK N   1      28.486  18.211   3.852  0.00  0.00    -0.364 OA
HETATM   34  H   UNK N   1      28.209  17.940   3.000  0.00  0.00     0.217 HD
ENDBRANCH  27  33
BRANCH  29  35
HETATM   35  C   UNK N   1      28.040  19.083   7.797  0.00  0.00     0.038 C 
BRANCH  35  36
HETATM   36  C   UNK N   1      27.997  20.043   6.607  0.00  0.00    -0.002 C 
HETATM   37  C   UNK N   1      26.597  20.564   6.361  0.00  0.00     0.005 C 
ENDBRANCH  35  36
ENDBRANCH  29  35
BRANCH  29  38
HETATM   38  C   UNK N   1      29.578  17.224   8.513  0.00  0.00     0.043 C 
BRANCH  38  39
HETATM   39  C   UNK N   1      30.717  18.237   8.638  0.00  0.00     0.041 C 
BRANCH  39  40
HETATM   40  C   UNK N   1      32.027  17.585   8.339  0.00  0.00    -0.058 A 
HETATM   41  C   UNK N   1      32.116  16.189   8.286  0.00  0.00     0.007 A 
HETATM   42  C   UNK N   1      33.342  15.574   8.016  0.00  0.00     0.001 A 
HETATM   43  C   UNK N   1      34.482  16.353   7.797  0.00  0.00     0.000 A 
HETATM   44  C   UNK N   1      34.396  17.748   7.849  0.00  0.00     0.001 A 
HETATM   45  C   UNK N   1      33.171  18.364   8.125  0.00  0.00     0.007 A 
ENDBRANCH  39  40
ENDBRANCH  38  39
ENDBRANCH  29  38
ENDBRANCH   1  26
TORSDOF 13
ENDMDL
MODEL 4
REMARK VINA RESULT:      -8.7      6.032      9.531
REMARK  13 active torsions:
REMARK  status: ('A' for Active; 'I' for Inactive)
REMARK    1  A    between atoms: C_16  and  C_3 
REMARK    2  A    between atoms: C_25  and  C_4 
REMARK    3  A    between atoms: C_17  and  C_15 
REMARK    4  A    between atoms: C_21  and  C_15 
REMARK    5  A    between atoms: C_30  and  C_16 
REMARK    6  A    between atoms: C_30  and  C_17 
REMARK    7  A    between atoms: C_25  and  C_22 
REMARK    8  A    between atoms: C_31  and  C_23 
REMARK    9  A    between atoms: N_37  and  C_24 
REMARK   10  A    between atoms: C_25  and  C_28 
REMARK   11  A    between atoms: O_38  and  C_26 
REMARK   12  A    between atoms: S_43  and  C_27 
REMARK   13  A    between atoms: S_43  and  N_37 
ROOT
HETATM    1  C   UNK N   1      21.886  14.287   4.210  0.00  0.00     0.060 C 
ENDROOT
BRANCH   1   2
HETATM    2  C   UNK N   1      20.776  14.214   5.285  0.00  0.00     0.010 C 
HETATM    3  C   UNK N   1      20.247  12.804   5.507  0.00  0.00     0.006 C 
ENDBRANCH   1   2
BRANCH   1   4
HETATM    4  C   UNK N   1      21.373  15.144   3.030  0.00  0.00    -0.047 A 
HETATM    5  C   UNK N   1      20.900  14.546   1.856  0.00  0.00     0.008 A 
HETATM    6  C   UNK N   1      20.359  15.289   0.812  0.00  0.00     0.003 A 
HETATM    7  C   UNK N   1      20.169  16.653   0.969  0.00  0.00     0.030 A 
HETATM    8  C   UNK N   1      20.526  17.276   2.163  0.00  0.00     0.043 A 
HETATM    9  C   UNK N   1      21.145  16.533   3.183  0.00  0.00     0.038 A 
BRANCH   8  10
HETATM   10  N   UNK N   1      20.141  18.622   2.342  0.00  0.00    -0.279 N 
HETATM   11  H   UNK N   1      19.188  18.836   2.221  0.00  0.00     0.179 HD
BRANCH  10  12
HETATM   12  S   UNK N   1      21.214  19.948   2.763  0.00  0.00     0.278 S 
HETATM   13  O   UNK N   1      20.991  20.951   1.624  0.00  0.00    -0.199 OA
HETATM   14  O   UNK N   1      20.461  20.667   3.892  0.00  0.00    -0.199 OA
BRANCH  12  15
HETATM   15  C   UNK N   1      22.971  19.892   3.137  0.00  0.00     0.149 A 
HETATM   16  C   UNK N   1      23.359  19.160   4.257  0.00  0.00     0.044 A 
HETATM   17  C   UNK N   1      24.676  19.206   4.694  0.00  0.00     0.020 A 
HETATM   18  C   UNK N   1      25.607  19.988   4.013  0.00  0.00     0.063 A 
HETATM   19  C   UNK N   1      25.197  20.671   2.856  0.00  0.00     0.105 A 
HETATM   20  N   UNK N   1      23.893  20.620   2.446  0.00  0.00    -0.355 N 
ATOM     21  HN  UNK N   1      23.608  21.132   1.611  1.00  0.00     0.166 HD
BRANCH  18  22
HETATM   22  C   UNK N   1      27.000  20.144   4.562  0.00  0.00     0.418 C 
HETATM   23  F   UNK N   1      27.134  21.358   5.205  0.00  0.00    -0.166 F 
HETATM   24  F   UNK N   1      27.252  19.121   5.459  0.00  0.00    -0.166 F 
HETATM   25  F   UNK N   1      27.941  20.070   3.545  0.00  0.00    -0.166 F 
ENDBRANCH  18  22
ENDBRANCH  12  15
ENDBRANCH  10  12
ENDBRANCH   8  10
ENDBRANCH   1   4
BRANCH   1  26
HETATM   26  C   UNK N   1      23.344  14.466   4.800  0.00  0.00     0.055 C 
HETATM   27  C   UNK N   1      24.405  13.713   4.374  0.00  0.00     0.059 C 
HETATM   28  C   UNK N   1      25.782  13.956   4.928  0.00  0.00     0.103 C 
HETATM   29  C   UNK N   1      26.075  15.447   5.146  0.00  0.00     0.077 C 
HETATM   30  O   UNK N   1      24.997  16.066   5.737  0.00  0.00    -0.306 OA
HETATM   31  C   UNK N   1      23.720  15.608   5.719  0.00  0.00     0.293 C 
HETATM   32  O   UNK N   1      22.922  16.150   6.441  0.00  0.00    -0.259 OA
BRANCH  27  33
HETATM   33  O   UNK N   1      24.283  12.718   3.481  0.00  0.00    -0.364 OA
HETATM   34  H   UNK N   1      23.994  11.856   3.706  0.00  0.00     0.217 HD
ENDBRANCH  27  33
BRANCH  29  35
HETATM   35  C   UNK N   1      26.386  16.178   3.828  0.00  0.00     0.038 C 
BRANCH  35  36
HETATM   36  C   UNK N   1      27.868  16.450   3.569  0.00  0.00    -0.002 C 
HETATM   37  C   UNK N   1      28.449  15.468   2.573  0.00  0.00     0.005 C 
ENDBRANCH  35  36
ENDBRANCH  29  35
BRANCH  29  38
HETATM   38  C   UNK N   1      27.260  15.569   6.109  0.00  0.00     0.043 C 
BRANCH  38  39
HETATM   39  C   UNK N   1      26.928  16.473   7.298  0.00  0.00     0.041 C 
BRANCH  39  40
HETATM   40  C   UNK N   1      28.173  17.093   7.842  0.00  0.00    -0.058 A 
HETATM   41  C   UNK N   1      28.140  17.763   9.070  0.00  0.00     0.007 A 
HETATM   42  C   UNK N   1      29.301  18.353   9.579  0.00  0.00     0.001 A 
HETATM   43  C   UNK N   1      30.498  18.273   8.861  0.00  0.00     0.000 A 
HETATM   44  C   UNK N   1      30.534  17.604   7.634  0.00  0.00     0.001 A 
HETATM   45  C   UNK N   1      29.372  17.019   7.121  0.00  0.00     0.007 A 
ENDBRANCH  39  40
ENDBRANCH  38  39
ENDBRANCH  29  38
ENDBRANCH   1  26
TORSDOF 13
ENDMDL
MODEL 5
REMARK VINA RESULT:      -8.7      3.070      4.752
REMARK  13 active torsions:
REMARK  status: ('A' for Active; 'I' for Inactive)
REMARK    1  A    between atoms: C_16  and  C_3 
REMARK    2  A    between atoms: C_25  and  C_4 
REMARK    3  A    between atoms: C_17  and  C_15 
REMARK    4  A    between atoms: C_21  and  C_15 
REMARK    5  A    between atoms: C_30  and  C_16 
REMARK    6  A    between atoms: C_30  and  C_17 
REMARK    7  A    between atoms: C_25  and  C_22 
REMARK    8  A    between atoms: C_31  and  C_23 
REMARK    9  A    between atoms: N_37  and  C_24 
REMARK   10  A    between atoms: C_25  and  C_28 
REMARK   11  A    between atoms: O_38  and  C_26 
REMARK   12  A    between atoms: S_43  and  C_27 
REMARK   13  A    between atoms: S_43  and  N_37 
ROOT
HETATM    1  C   UNK N   1      35.534  14.601   8.543  0.00  0.00     0.060 C 
ENDROOT
BRANCH   1   2
HETATM    2  C   UNK N   1      35.434  13.334   7.662  0.00  0.00     0.010 C 
HETATM    3  C   UNK N   1      35.344  12.046   8.468  0.00  0.00     0.006 C 
ENDBRANCH   1   2
BRANCH   1   4
HETATM    4  C   UNK N   1      34.450  15.605   8.087  0.00  0.00    -0.047 A 
HETATM    5  C   UNK N   1      34.414  16.909   8.594  0.00  0.00     0.008 A 
HETATM    6  C   UNK N   1      33.500  17.855   8.142  0.00  0.00     0.003 A 
HETATM    7  C   UNK N   1      32.669  17.549   7.077  0.00  0.00     0.030 A 
HETATM    8  C   UNK N   1      32.743  16.297   6.469  0.00  0.00     0.043 A 
HETATM    9  C   UNK N   1      33.613  15.320   6.982  0.00  0.00     0.038 A 
BRANCH   8  10
HETATM   10  N   UNK N   1      32.013  16.102   5.277  0.00  0.00    -0.279 N 
HETATM   11  H   UNK N   1      32.512  15.779   4.492  0.00  0.00     0.179 HD
BRANCH  10  12
HETATM   12  S   UNK N   1      30.292  16.386   5.070  0.00  0.00     0.278 S 
HETATM   13  O   UNK N   1      30.042  15.973   3.615  0.00  0.00    -0.199 OA
HETATM   14  O   UNK N   1      29.648  15.193   5.792  0.00  0.00    -0.199 OA
BRANCH  12  15
HETATM   15  C   UNK N   1      29.355  17.883   5.406  0.00  0.00     0.149 A 
HETATM   16  C   UNK N   1      28.954  18.100   6.723  0.00  0.00     0.044 A 
HETATM   17  C   UNK N   1      28.096  19.148   7.022  0.00  0.00     0.020 A 
HETATM   18  C   UNK N   1      27.634  19.981   6.005  0.00  0.00     0.063 A 
HETATM   19  C   UNK N   1      28.100  19.770   4.697  0.00  0.00     0.105 A 
HETATM   20  N   UNK N   1      28.939  18.726   4.420  0.00  0.00    -0.355 N 
ATOM     21  HN  UNK N   1      29.258  18.578   3.462  1.00  0.00     0.166 HD
BRANCH  18  22
HETATM   22  C   UNK N   1      26.601  21.034   6.308  0.00  0.00     0.418 C 
HETATM   23  F   UNK N   1      26.204  20.957   7.629  0.00  0.00    -0.166 F 
HETATM   24  F   UNK N   1      27.142  22.284   6.066  0.00  0.00    -0.166 F 
HETATM   25  F   UNK N   1      25.487  20.879   5.497  0.00  0.00    -0.166 F 
ENDBRANCH  18  22
ENDBRANCH  12  15
ENDBRANCH  10  12
ENDBRANCH   8  10
ENDBRANCH   1   4
BRANCH   1  26
HETATM   26  C   UNK N   1      35.804  14.301  10.074  0.00  0.00     0.055 C 
HETATM   27  C   UNK N   1      34.790  14.102  10.972  0.00  0.00     0.059 C 
HETATM   28  C   UNK N   1      35.097  13.768  12.406  0.00  0.00     0.103 C 
HETATM   29  C   UNK N   1      36.298  12.824  12.547  0.00  0.00     0.077 C 
HETATM   30  O   UNK N   1      37.323  13.224  11.718  0.00  0.00    -0.306 OA
HETATM   31  C   UNK N   1      37.184  14.008  10.619  0.00  0.00     0.293 C 
HETATM   32  O   UNK N   1      38.188  14.435  10.108  0.00  0.00    -0.259 OA
BRANCH  27  33
HETATM   33  O   UNK N   1      33.492  14.218  10.646  0.00  0.00    -0.364 OA
HETATM   34  H   UNK N   1      32.810  14.337  11.277  0.00  0.00     0.217 HD
ENDBRANCH  27  33
BRANCH  29  35
HETATM   35  C   UNK N   1      35.940  11.369  12.198  0.00  0.00     0.038 C 
BRANCH  35  36
HETATM   36  C   UNK N   1      34.685  10.826  12.882  0.00  0.00    -0.002 C 
HETATM   37  C   UNK N   1      33.811  10.056  11.915  0.00  0.00     0.005 C 
ENDBRANCH  35  36
ENDBRANCH  29  35
BRANCH  29  38
HETATM   38  C   UNK N   1      36.812  12.910  13.986  0.00  0.00     0.043 C 
BRANCH  38  39
HETATM   39  C   UNK N   1      35.875  13.733  14.872  0.00  0.00     0.041 C 
BRANCH  39  40
HETATM   40  C   UNK N   1      35.685  13.062  16.192  0.00  0.00    -0.058 A 
HETATM   41  C   UNK N   1      35.842  11.675  16.299  0.00  0.00     0.007 A 
HETATM   42  C   UNK N   1      35.655  11.041  17.531  0.00  0.00     0.001 A 
HETATM   43  C   UNK N   1      35.312  11.792  18.659  0.00  0.00     0.000 A 
HETATM   44  C   UNK N   1      35.155  13.178  18.556  0.00  0.00     0.001 A 
HETATM   45  C   UNK N   1      35.335  13.813  17.322  0.00  0.00     0.007 A 
ENDBRANCH  39  40
ENDBRANCH  38  39
ENDBRANCH  29  38
ENDBRANCH   1  26
TORSDOF 13
ENDMDL
MODEL 6
REMARK VINA RESULT:      -8.6      4.750      9.019
REMARK  13 active torsions:
REMARK  status: ('A' for Active; 'I' for Inactive)
REMARK    1  A    between atoms: C_16  and  C_3 
REMARK    2  A    between atoms: C_25  and  C_4 
REMARK    3  A    between atoms: C_17  and  C_15 
REMARK    4  A    between atoms: C_21  and  C_15 
REMARK    5  A    between atoms: C_30  and  C_16 
REMARK    6  A    between atoms: C_30  and  C_17 
REMARK    7  A    between atoms: C_25  and  C_22 
REMARK    8  A    between atoms: C_31  and  C_23 
REMARK    9  A    between atoms: N_37  and  C_24 
REMARK   10  A    between atoms: C_25  and  C_28 
REMARK   11  A    between atoms: O_38  and  C_26 
REMARK   12  A    between atoms: S_43  and  C_27 
REMARK   13  A    between atoms: S_43  and  N_37 
ROOT
HETATM    1  C   UNK N   1      32.757  14.757   5.200  0.00  0.00     0.060 C 
ENDROOT
BRANCH   1   2
HETATM    2  C   UNK N   1      34.026  14.941   4.335  0.00  0.00     0.010 C 
HETATM    3  C   UNK N   1      34.140  13.923   3.209  0.00  0.00     0.006 C 
ENDBRANCH   1   2
BRANCH   1   4
HETATM    4  C   UNK N   1      32.791  15.788   6.351  0.00  0.00    -0.047 A 
HETATM    5  C   UNK N   1      33.574  16.946   6.260  0.00  0.00     0.008 A 
HETATM    6  C   UNK N   1      33.562  17.927   7.245  0.00  0.00     0.003 A 
HETATM    7  C   UNK N   1      32.669  17.827   8.300  0.00  0.00     0.030 A 
HETATM    8  C   UNK N   1      31.794  16.745   8.376  0.00  0.00     0.043 A 
HETATM    9  C   UNK N   1      31.866  15.718   7.420  0.00  0.00     0.038 A 
BRANCH   8  10
HETATM   10  N   UNK N   1      30.783  16.787   9.359  0.00  0.00    -0.279 N 
HETATM   11  H   UNK N   1      30.915  16.235  10.163  0.00  0.00     0.179 HD
BRANCH  10  12
HETATM   12  S   UNK N   1      29.308  17.737   9.274  0.00  0.00     0.278 S 
HETATM   13  O   UNK N   1      28.342  16.965  10.180  0.00  0.00    -0.199 OA
HETATM   14  O   UNK N   1      29.608  18.939  10.181  0.00  0.00    -0.199 OA
BRANCH  12  15
HETATM   15  C   UNK N   1      28.408  18.281   7.816  0.00  0.00     0.149 A 
HETATM   16  C   UNK N   1      28.646  17.592   6.628  0.00  0.00     0.044 A 
HETATM   17  C   UNK N   1      28.108  18.058   5.437  0.00  0.00     0.020 A 
HETATM   18  C   UNK N   1      27.334  19.217   5.429  0.00  0.00     0.063 A 
HETATM   19  C   UNK N   1      27.067  19.858   6.651  0.00  0.00     0.105 A 
HETATM   20  N   UNK N   1      27.612  19.388   7.814  0.00  0.00    -0.355 N 
ATOM     21  HN  UNK N   1      27.420  19.872   8.691  1.00  0.00     0.166 HD
BRANCH  18  22
HETATM   22  C   UNK N   1      26.863  19.795   4.122  0.00  0.00     0.418 C 
HETATM   23  F   UNK N   1      25.975  20.830   4.342  0.00  0.00    -0.166 F 
HETATM   24  F   UNK N   1      27.953  20.271   3.416  0.00  0.00    -0.166 F 
HETATM   25  F   UNK N   1      26.237  18.826   3.352  0.00  0.00    -0.166 F 
ENDBRANCH  18  22
ENDBRANCH  12  15
ENDBRANCH  10  12
ENDBRANCH   8  10
ENDBRANCH   1   4
BRANCH   1  26
HETATM   26  C   UNK N   1      31.442  14.482   4.363  0.00  0.00     0.055 C 
HETATM   27  C   UNK N   1      30.785  13.281   4.402  0.00  0.00     0.059 C 
HETATM   28  C   UNK N   1      29.510  13.085   3.630  0.00  0.00     0.103 C 
HETATM   29  C   UNK N   1      28.612  14.329   3.649  0.00  0.00     0.077 C 
HETATM   30  O   UNK N   1      29.360  15.465   3.429  0.00  0.00    -0.306 OA
HETATM   31  C   UNK N   1      30.698  15.573   3.626  0.00  0.00     0.293 C 
HETATM   32  O   UNK N   1      31.244  16.562   3.206  0.00  0.00    -0.259 OA
BRANCH  27  33
HETATM   33  O   UNK N   1      31.241  12.221   5.089  0.00  0.00    -0.364 OA
HETATM   34  H   UNK N   1      31.488  12.259   5.992  0.00  0.00     0.217 HD
ENDBRANCH  27  33
BRANCH  29  35
HETATM   35  C   UNK N   1      27.873  14.494   4.989  0.00  0.00     0.038 C 
BRANCH  35  36
HETATM   36  C   UNK N   1      26.817  13.428   5.284  0.00  0.00    -0.002 C 
HETATM   37  C   UNK N   1      25.828  13.897   6.331  0.00  0.00     0.005 C 
ENDBRANCH  35  36
ENDBRANCH  29  35
BRANCH  29  38
HETATM   38  C   UNK N   1      27.604  14.214   2.502  0.00  0.00     0.043 C 
BRANCH  38  39
HETATM   39  C   UNK N   1      26.877  15.538   2.255  0.00  0.00     0.041 C 
BRANCH  39  40
HETATM   40  C   UNK N   1      25.398  15.333   2.296  0.00  0.00    -0.058 A 
HETATM   41  C   UNK N   1      24.639  15.931   3.308  0.00  0.00     0.007 A 
HETATM   42  C   UNK N   1      23.256  15.734   3.356  0.00  0.00     0.001 A 
HETATM   43  C   UNK N   1      22.628  14.942   2.391  0.00  0.00     0.000 A 
HETATM   44  C   UNK N   1      23.384  14.344   1.377  0.00  0.00     0.001 A 
HETATM   45  C   UNK N   1      24.769  14.535   1.333  0.00  0.00     0.007 A 
ENDBRANCH  39  40
ENDBRANCH  38  39
ENDBRANCH  29  38
ENDBRANCH   1  26
TORSDOF 13
ENDMDL
MODEL 7
REMARK VINA RESULT:      -8.6      4.555      5.208
REMARK  13 active torsions:
REMARK  status: ('A' for Active; 'I' for Inactive)
REMARK    1  A    between atoms: C_16  and  C_3 
REMARK    2  A    between atoms: C_25  and  C_4 
REMARK    3  A    between atoms: C_17  and  C_15 
REMARK    4  A    between atoms: C_21  and  C_15 
REMARK    5  A    between atoms: C_30  and  C_16 
REMARK    6  A    between atoms: C_30  and  C_17 
REMARK    7  A    between atoms: C_25  and  C_22 
REMARK    8  A    between atoms: C_31  and  C_23 
REMARK    9  A    between atoms: N_37  and  C_24 
REMARK   10  A    between atoms: C_25  and  C_28 
REMARK   11  A    between atoms: O_38  and  C_26 
REMARK   12  A    between atoms: S_43  and  C_27 
REMARK   13  A    between atoms: S_43  and  N_37 
ROOT
HETATM    1  C   UNK N   1      32.372  17.278   7.966  0.00  0.00     0.060 C 
ENDROOT
BRANCH   1   2
HETATM    2  C   UNK N   1      32.470  16.743   6.518  0.00  0.00     0.010 C 
HETATM    3  C   UNK N   1      33.559  17.421   5.699  0.00  0.00     0.006 C 
ENDBRANCH   1   2
BRANCH   1   4
HETATM    4  C   UNK N   1      30.880  17.488   8.312  0.00  0.00    -0.047 A 
HETATM    5  C   UNK N   1      30.493  18.310   9.378  0.00  0.00     0.008 A 
HETATM    6  C   UNK N   1      29.159  18.578   9.661  0.00  0.00     0.003 A 
HETATM    7  C   UNK N   1      28.172  18.119   8.804  0.00  0.00     0.030 A 
HETATM    8  C   UNK N   1      28.516  17.387   7.669  0.00  0.00     0.043 A 
HETATM    9  C   UNK N   1      29.859  17.052   7.432  0.00  0.00     0.038 A 
BRANCH   8  10
HETATM   10  N   UNK N   1      27.496  17.107   6.735  0.00  0.00    -0.279 N 
HETATM   11  H   UNK N   1      26.566  17.155   7.056  0.00  0.00     0.179 HD
BRANCH  10  12
HETATM   12  S   UNK N   1      27.739  16.680   5.049  0.00  0.00     0.278 S 
HETATM   13  O   UNK N   1      26.640  15.642   4.789  0.00  0.00    -0.199 OA
HETATM   14  O   UNK N   1      27.147  17.877   4.291  0.00  0.00    -0.199 OA
BRANCH  12  15
HETATM   15  C   UNK N   1      29.245  16.129   4.238  0.00  0.00     0.149 A 
HETATM   16  C   UNK N   1      29.701  14.848   4.546  0.00  0.00     0.044 A 
HETATM   17  C   UNK N   1      30.937  14.421   4.081  0.00  0.00     0.020 A 
HETATM   18  C   UNK N   1      31.723  15.276   3.310  0.00  0.00     0.063 A 
HETATM   19  C   UNK N   1      31.212  16.540   2.971  0.00  0.00     0.105 A 
HETATM   20  N   UNK N   1      29.995  16.946   3.446  0.00  0.00    -0.355 N 
ATOM     21  HN  UNK N   1      29.644  17.872   3.202  1.00  0.00     0.166 HD
BRANCH  18  22
HETATM   22  C   UNK N   1      33.116  14.864   2.918  0.00  0.00     0.418 C 
HETATM   23  F   UNK N   1      33.076  13.865   1.965  0.00  0.00    -0.166 F 
HETATM   24  F   UNK N   1      33.787  15.959   2.405  0.00  0.00    -0.166 F 
HETATM   25  F   UNK N   1      33.821  14.402   4.020  0.00  0.00    -0.166 F 
ENDBRANCH  18  22
ENDBRANCH  12  15
ENDBRANCH  10  12
ENDBRANCH   8  10
ENDBRANCH   1   4
BRANCH   1  26
HETATM   26  C   UNK N   1      33.375  16.590   8.977  0.00  0.00     0.055 C 
HETATM   27  C   UNK N   1      33.111  15.382   9.565  0.00  0.00     0.059 C 
HETATM   28  C   UNK N   1      34.120  14.743  10.479  0.00  0.00     0.103 C 
HETATM   29  C   UNK N   1      35.563  14.940   9.995  0.00  0.00     0.077 C 
HETATM   30  O   UNK N   1      35.758  16.241   9.587  0.00  0.00    -0.306 OA
HETATM   31  C   UNK N   1      34.779  17.102   9.213  0.00  0.00     0.293 C 
HETATM   32  O   UNK N   1      35.080  18.261   9.070  0.00  0.00    -0.259 OA
BRANCH  27  33
HETATM   33  O   UNK N   1      31.955  14.722   9.391  0.00  0.00    -0.364 OA
HETATM   34  H   UNK N   1      31.642  14.065   9.980  0.00  0.00     0.217 HD
ENDBRANCH  27  33
BRANCH  29  35
HETATM   35  C   UNK N   1      35.915  14.010   8.821  0.00  0.00     0.038 C 
BRANCH  35  36
HETATM   36  C   UNK N   1      35.226  12.646   8.841  0.00  0.00    -0.002 C 
HETATM   37  C   UNK N   1      36.177  11.546   9.264  0.00  0.00     0.005 C 
ENDBRANCH  35  36
ENDBRANCH  29  35
BRANCH  29  38
HETATM   38  C   UNK N   1      36.506  14.682  11.173  0.00  0.00     0.043 C 
BRANCH  38  39
HETATM   39  C   UNK N   1      35.745  14.601  12.498  0.00  0.00     0.041 C 
BRANCH  39  40
HETATM   40  C   UNK N   1      36.266  13.475  13.329  0.00  0.00    -0.058 A 
HETATM   41  C   UNK N   1      37.029  12.463  12.733  0.00  0.00     0.007 A 
HETATM   42  C   UNK N   1      37.510  11.402  13.505  0.00  0.00     0.001 A 
HETATM   43  C   UNK N   1      37.234  11.350  14.874  0.00  0.00     0.000 A 
HETATM   44  C   UNK N   1      36.473  12.360  15.472  0.00  0.00     0.001 A 
HETATM   45  C   UNK N   1      35.984  13.419  14.699  0.00  0.00     0.007 A 
ENDBRANCH  39  40
ENDBRANCH  38  39
ENDBRANCH  29  38
ENDBRANCH   1  26
TORSDOF 13
ENDMDL
MODEL 8
REMARK VINA RESULT:      -8.5      5.892      9.561
REMARK  13 active torsions:
REMARK  status: ('A' for Active; 'I' for Inactive)
REMARK    1  A    between atoms: C_16  and  C_3 
REMARK    2  A    between atoms: C_25  and  C_4 
REMARK    3  A    between atoms: C_17  and  C_15 
REMARK    4  A    between atoms: C_21  and  C_15 
REMARK    5  A    between atoms: C_30  and  C_16 
REMARK    6  A    between atoms: C_30  and  C_17 
REMARK    7  A    between atoms: C_25  and  C_22 
REMARK    8  A    between atoms: C_31  and  C_23 
REMARK    9  A    between atoms: N_37  and  C_24 
REMARK   10  A    between atoms: C_25  and  C_28 
REMARK   11  A    between atoms: O_38  and  C_26 
REMARK   12  A    between atoms: S_43  and  C_27 
REMARK   13  A    between atoms: S_43  and  N_37 
ROOT
HETATM    1  C   UNK N   1      24.411  14.988   3.799  0.00  0.00     0.060 C 
ENDROOT
BRANCH   1   2
HETATM    2  C   UNK N   1      24.216  13.638   4.527  0.00  0.00     0.010 C 
HETATM    3  C   UNK N   1      25.313  12.627   4.225  0.00  0.00     0.006 C 
ENDBRANCH   1   2
BRANCH   1   4
HETATM    4  C   UNK N   1      23.082  15.775   3.858  0.00  0.00    -0.047 A 
HETATM    5  C   UNK N   1      22.141  15.684   2.825  0.00  0.00     0.008 A 
HETATM    6  C   UNK N   1      20.906  16.318   2.890  0.00  0.00     0.003 A 
HETATM    7  C   UNK N   1      20.531  16.970   4.054  0.00  0.00     0.030 A 
HETATM    8  C   UNK N   1      21.392  16.996   5.149  0.00  0.00     0.043 A 
HETATM    9  C   UNK N   1      22.670  16.421   5.049  0.00  0.00     0.038 A 
BRANCH   8  10
HETATM   10  N   UNK N   1      20.891  17.506   6.366  0.00  0.00    -0.279 N 
HETATM   11  H   UNK N   1      20.860  18.485   6.464  0.00  0.00     0.179 HD
BRANCH  10  12
HETATM   12  S   UNK N   1      20.318  16.547   7.721  0.00  0.00     0.278 S 
HETATM   13  O   UNK N   1      20.121  17.589   8.828  0.00  0.00    -0.199 OA
HETATM   14  O   UNK N   1      18.851  16.269   7.364  0.00  0.00    -0.199 OA
BRANCH  12  15
HETATM   15  C   UNK N   1      21.059  15.079   8.447  0.00  0.00     0.149 A 
HETATM   16  C   UNK N   1      20.360  14.459   9.481  0.00  0.00     0.044 A 
HETATM   17  C   UNK N   1      20.947  13.420  10.190  0.00  0.00     0.020 A 
HETATM   18  C   UNK N   1      22.237  13.000   9.868  0.00  0.00     0.063 A 
HETATM   19  C   UNK N   1      22.893  13.608   8.786  0.00  0.00     0.105 A 
HETATM   20  N   UNK N   1      22.302  14.636   8.104  0.00  0.00    -0.355 N 
ATOM     21  HN  UNK N   1      22.798  15.076   7.329  1.00  0.00     0.166 HD
BRANCH  18  22
HETATM   22  C   UNK N   1      22.923  11.966  10.720  0.00  0.00     0.418 C 
HETATM   23  F   UNK N   1      22.279  11.835  11.935  0.00  0.00    -0.166 F 
HETATM   24  F   UNK N   1      22.906  10.750  10.061  0.00  0.00    -0.166 F 
HETATM   25  F   UNK N   1      24.245  12.316  10.950  0.00  0.00    -0.166 F 
ENDBRANCH  18  22
ENDBRANCH  12  15
ENDBRANCH  10  12
ENDBRANCH   8  10
ENDBRANCH   1   4
BRANCH   1  26
HETATM   26  C   UNK N   1      25.805  15.679   4.085  0.00  0.00     0.055 C 
HETATM   27  C   UNK N   1      26.676  16.017   3.084  0.00  0.00     0.059 C 
HETATM   28  C   UNK N   1      27.967  16.721   3.403  0.00  0.00     0.103 C 
HETATM   29  C   UNK N   1      27.812  17.759   4.521  0.00  0.00     0.077 C 
HETATM   30  O   UNK N   1      27.057  17.245   5.552  0.00  0.00    -0.306 OA
HETATM   31  C   UNK N   1      26.193  16.204   5.450  0.00  0.00     0.293 C 
HETATM   32  O   UNK N   1      25.753  15.742   6.473  0.00  0.00    -0.259 OA
BRANCH  27  33
HETATM   33  O   UNK N   1      26.454  15.724   1.793  0.00  0.00    -0.364 OA
HETATM   34  H   UNK N   1      27.000  16.024   1.094  0.00  0.00     0.217 HD
ENDBRANCH  27  33
BRANCH  29  35
HETATM   35  C   UNK N   1      27.134  19.050   4.028  0.00  0.00     0.038 C 
BRANCH  35  36
HETATM   36  C   UNK N   1      26.379  19.838   5.099  0.00  0.00    -0.002 C 
HETATM   37  C   UNK N   1      27.141  21.076   5.522  0.00  0.00     0.005 C 
ENDBRANCH  35  36
ENDBRANCH  29  35
BRANCH  29  38
HETATM   38  C   UNK N   1      29.201  18.075   5.082  0.00  0.00     0.043 C 
BRANCH  38  39
HETATM   39  C   UNK N   1      29.770  16.896   5.874  0.00  0.00     0.041 C 
BRANCH  39  40
HETATM   40  C   UNK N   1      31.181  17.173   6.277  0.00  0.00    -0.058 A 
HETATM   41  C   UNK N   1      32.190  17.210   5.307  0.00  0.00     0.007 A 
HETATM   42  C   UNK N   1      33.513  17.459   5.681  0.00  0.00     0.001 A 
HETATM   43  C   UNK N   1      33.832  17.675   7.025  0.00  0.00     0.000 A 
HETATM   44  C   UNK N   1      32.826  17.640   7.996  0.00  0.00     0.001 A 
HETATM   45  C   UNK N   1      31.502  17.383   7.624  0.00  0.00     0.007 A 
ENDBRANCH  39  40
ENDBRANCH  38  39
ENDBRANCH  29  38
ENDBRANCH   1  26
TORSDOF 13
ENDMDL
MODEL 9
REMARK VINA RESULT:      -8.5      1.373      2.414
REMARK  13 active torsions:
REMARK  status: ('A' for Active; 'I' for Inactive)
REMARK    1  A    between atoms: C_16  and  C_3 
REMARK    2  A    between atoms: C_25  and  C_4 
REMARK    3  A    between atoms: C_17  and  C_15 
REMARK    4  A    between atoms: C_21  and  C_15 
REMARK    5  A    between atoms: C_30  and  C_16 
REMARK    6  A    between atoms: C_30  and  C_17 
REMARK    7  A    between atoms: C_25  and  C_22 
REMARK    8  A    between atoms: C_31  and  C_23 
REMARK    9  A    between atoms: N_37  and  C_24 
REMARK   10  A    between atoms: C_25  and  C_28 
REMARK   11  A    between atoms: O_38  and  C_26 
REMARK   12  A    between atoms: S_43  and  C_27 
REMARK   13  A    between atoms: S_43  and  N_37 
ROOT
HETATM    1  C   UNK N   1      31.716  16.957   5.928  0.00  0.00     0.060 C 
ENDROOT
BRANCH   1   2
HETATM    2  C   UNK N   1      31.324  16.786   4.441  0.00  0.00     0.010 C 
HETATM    3  C   UNK N   1      32.397  17.275   3.477  0.00  0.00     0.006 C 
ENDBRANCH   1   2
BRANCH   1   4
HETATM    4  C   UNK N   1      30.433  17.230   6.745  0.00  0.00    -0.047 A 
HETATM    5  C   UNK N   1      30.500  17.755   8.042  0.00  0.00     0.008 A 
HETATM    6  C   UNK N   1      29.361  18.085   8.768  0.00  0.00     0.003 A 
HETATM    7  C   UNK N   1      28.117  18.005   8.164  0.00  0.00     0.030 A 
HETATM    8  C   UNK N   1      28.009  17.589   6.838  0.00  0.00     0.043 A 
HETATM    9  C   UNK N   1      29.156  17.183   6.136  0.00  0.00     0.038 A 
BRANCH   8  10
HETATM   10  N   UNK N   1      26.748  17.706   6.214  0.00  0.00    -0.279 N 
HETATM   11  H   UNK N   1      26.079  17.015   6.423  0.00  0.00     0.179 HD
BRANCH  10  12
HETATM   12  S   UNK N   1      26.269  18.975   5.099  0.00  0.00     0.278 S 
HETATM   13  O   UNK N   1      26.601  20.260   5.869  0.00  0.00    -0.199 OA
HETATM   14  O   UNK N   1      27.407  18.990   4.069  0.00  0.00    -0.199 OA
BRANCH  12  15
HETATM   15  C   UNK N   1      24.690  19.201   4.270  0.00  0.00     0.149 A 
HETATM   16  C   UNK N   1      24.593  20.255   3.363  0.00  0.00     0.044 A 
HETATM   17  C   UNK N   1      23.364  20.583   2.810  0.00  0.00     0.020 A 
HETATM   18  C   UNK N   1      22.227  19.859   3.164  0.00  0.00     0.063 A 
HETATM   19  C   UNK N   1      22.367  18.768   4.038  0.00  0.00     0.105 A 
HETATM   20  N   UNK N   1      23.585  18.466   4.580  0.00  0.00    -0.355 N 
ATOM     21  HN  UNK N   1      23.668  17.679   5.224  1.00  0.00     0.166 HD
BRANCH  18  22
HETATM   22  C   UNK N   1      20.875  20.297   2.668  0.00  0.00     0.418 C 
HETATM   23  F   UNK N   1      20.084  20.714   3.721  0.00  0.00    -0.166 F 
HETATM   24  F   UNK N   1      21.034  21.341   1.775  0.00  0.00    -0.166 F 
HETATM   25  F   UNK N   1      20.232  19.259   2.010  0.00  0.00    -0.166 F 
ENDBRANCH  18  22
ENDBRANCH  12  15
ENDBRANCH  10  12
ENDBRANCH   8  10
ENDBRANCH   1   4
BRANCH   1  26
HETATM   26  C   UNK N   1      32.822  15.939   6.424  0.00  0.00     0.055 C 
HETATM   27  C   UNK N   1      34.121  16.315   6.636  0.00  0.00     0.059 C 
HETATM   28  C   UNK N   1      35.125  15.324   7.158  0.00  0.00     0.103 C 
HETATM   29  C   UNK N   1      34.529  14.382   8.213  0.00  0.00     0.077 C 
HETATM   30  O   UNK N   1      33.291  13.933   7.811  0.00  0.00    -0.306 OA
HETATM   31  C   UNK N   1      32.494  14.541   6.897  0.00  0.00     0.293 C 
HETATM   32  O   UNK N   1      31.532  13.931   6.503  0.00  0.00    -0.259 OA
BRANCH  27  33
HETATM   33  O   UNK N   1      34.578  17.550   6.371  0.00  0.00    -0.364 OA
HETATM   34  H   UNK N   1      35.463  17.731   6.126  0.00  0.00     0.217 HD
ENDBRANCH  27  33
BRANCH  29  35
HETATM   35  C   UNK N   1      34.370  15.067   9.582  0.00  0.00     0.038 C 
BRANCH  35  36
HETATM   36  C   UNK N   1      35.633  15.732  10.127  0.00  0.00    -0.002 C 
HETATM   37  C   UNK N   1      35.665  15.714  11.641  0.00  0.00     0.005 C 
ENDBRANCH  35  36
ENDBRANCH  29  35
BRANCH  29  38
HETATM   38  C   UNK N   1      35.443  13.160   8.338  0.00  0.00     0.043 C 
BRANCH  38  39
HETATM   39  C   UNK N   1      34.859  12.115   9.291  0.00  0.00     0.041 C 
BRANCH  39  40
HETATM   40  C   UNK N   1      35.636  12.083  10.566  0.00  0.00    -0.058 A 
HETATM   41  C   UNK N   1      37.019  12.297  10.546  0.00  0.00     0.007 A 
HETATM   42  C   UNK N   1      37.752  12.258  11.736  0.00  0.00     0.001 A 
HETATM   43  C   UNK N   1      37.104  12.006  12.949  0.00  0.00     0.000 A 
HETATM   44  C   UNK N   1      35.722  11.793  12.972  0.00  0.00     0.001 A 
HETATM   45  C   UNK N   1      34.988  11.825  11.781  0.00  0.00     0.007 A 
ENDBRANCH  39  40
ENDBRANCH  38  39
ENDBRANCH  29  38
ENDBRANCH   1  26
TORSDOF 13
ENDMDL
