MODEL 1
REMARK VINA RESULT:      -7.1      0.000      0.000
REMARK  5 active torsions:
REMARK  status: ('A' for Active; 'I' for Inactive)
REMARK    1  A    between atoms: C_4  and  C_5 
REMARK    2  A    between atoms: S_11  and  C_5 
REMARK    3  A    between atoms: C_8  and  O_9 
REMARK    4  A    between atoms: S_11  and  C_12 
REMARK    5  A    between atoms: C_21  and  O_22 
ROOT
HETATM    1  O   UNK N   1      36.786  14.474  15.124  0.00  0.00    -0.249 OA
HETATM    2  S   UNK N   1      36.540  13.188  14.320  0.00  0.00     0.090 S 
ENDROOT
BRANCH   2   3
HETATM    3  C   UNK N   1      35.904  14.045  12.880  0.00  0.00     0.176 A 
HETATM    4  N   UNK N   1      34.863  13.593  12.135  0.00  0.00    -0.333 N 
HETATM    5  C   UNK N   1      34.677  14.558  11.228  0.00  0.00     0.061 A 
HETATM    6  H   UNK N   1      34.362  12.751  12.238  0.00  0.00     0.168 HD
HETATM    7  C   UNK N   1      33.711  14.618  10.231  0.00  0.00     0.035 A 
HETATM    8  C   UNK N   1      35.578  15.558  11.426  0.00  0.00     0.063 A 
HETATM    9  C   UNK N   1      33.683  15.771   9.427  0.00  0.00     0.039 A 
HETATM   10  C   UNK N   1      34.617  16.827   9.635  0.00  0.00     0.070 A 
HETATM   11  C   UNK N   1      35.590  16.710  10.650  0.00  0.00     0.068 A 
HETATM   12  N   UNK N   1      36.367  15.253  12.468  0.00  0.00    -0.333 N 
ATOM     13  HN  UNK N   1      37.132  15.801  12.859  1.00  0.00     0.168 HD
BRANCH  10  14
HETATM   14  O   UNK N   1      34.577  17.959   8.894  0.00  0.00    -0.356 OA
HETATM   15  C   UNK N   1      33.603  18.207   7.954  0.00  0.00     0.210 C 
ENDBRANCH  10  14
ENDBRANCH   2   3
BRANCH   2  16
HETATM   16  C   UNK N   1      34.881  12.992  15.019  0.00  0.00     0.175 C 
BRANCH  16  17
HETATM   17  C   UNK N   1      35.011  12.440  16.394  0.00  0.00     0.029 A 
HETATM   18  C   UNK N   1      34.971  11.055  16.621  0.00  0.00    -0.005 A 
HETATM   19  C   UNK N   1      35.123  10.556  17.926  0.00  0.00     0.083 A 
HETATM   20  C   UNK N   1      34.782  10.106  15.476  0.00  0.00     0.053 C 
HETATM   21  C   UNK N   1      35.313  11.485  18.989  0.00  0.00    -0.013 A 
HETATM   22  C   UNK N   1      35.340  12.850  18.705  0.00  0.00     0.097 A 
HETATM   23  C   UNK N   1      35.492  11.081  20.412  0.00  0.00     0.052 C 
HETATM   24  N   UNK N   1      35.194  13.295  17.433  0.00  0.00    -0.367 N 
ATOM     25  HN  UNK N   1      35.222  14.299  17.251  1.00  0.00     0.165 HD
BRANCH  19  26
HETATM   26  O   UNK N   1      35.084   9.204  18.097  0.00  0.00    -0.355 OA
HETATM   27  C   UNK N   1      34.114   8.489  18.758  0.00  0.00     0.210 C 
ENDBRANCH  19  26
ENDBRANCH  16  17
ENDBRANCH   2  16
TORSDOF 5
ENDMDL
MODEL 2
REMARK VINA RESULT:      -6.9      4.340     10.505
REMARK  5 active torsions:
REMARK  status: ('A' for Active; 'I' for Inactive)
REMARK    1  A    between atoms: C_4  and  C_5 
REMARK    2  A    between atoms: S_11  and  C_5 
REMARK    3  A    between atoms: C_8  and  O_9 
REMARK    4  A    between atoms: S_11  and  C_12 
REMARK    5  A    between atoms: C_21  and  O_22 
ROOT
HETATM    1  O   UNK N   1      35.142  18.951   7.864  0.00  0.00    -0.249 OA
HETATM    2  S   UNK N   1      33.771  18.385   8.262  0.00  0.00     0.090 S 
ENDROOT
BRANCH   2   3
HETATM    3  C   UNK N   1      34.452  16.977   9.138  0.00  0.00     0.176 A 
HETATM    4  N   UNK N   1      34.870  15.840   8.525  0.00  0.00    -0.333 N 
HETATM    5  C   UNK N   1      35.367  15.103   9.524  0.00  0.00     0.061 A 
HETATM    6  H   UNK N   1      34.819  15.612   7.568  0.00  0.00     0.168 HD
HETATM    7  C   UNK N   1      35.958  13.848   9.447  0.00  0.00     0.035 A 
HETATM    8  C   UNK N   1      35.251  15.779  10.699  0.00  0.00     0.063 A 
HETATM    9  C   UNK N   1      36.456  13.294  10.640  0.00  0.00     0.039 A 
HETATM   10  C   UNK N   1      36.348  14.001  11.872  0.00  0.00     0.070 A 
HETATM   11  C   UNK N   1      35.723  15.266  11.900  0.00  0.00     0.068 A 
HETATM   12  N   UNK N   1      34.673  16.970  10.477  0.00  0.00    -0.333 N 
ATOM     13  HN  UNK N   1      34.454  17.699  11.156  1.00  0.00     0.168 HD
BRANCH  10  14
HETATM   14  O   UNK N   1      36.857  13.497  13.020  0.00  0.00    -0.356 OA
HETATM   15  C   UNK N   1      36.450  13.911  14.268  0.00  0.00     0.210 C 
ENDBRANCH  10  14
ENDBRANCH   2   3
BRANCH   2  16
HETATM   16  C   UNK N   1      33.639  17.445   6.719  0.00  0.00     0.175 C 
BRANCH  16  17
HETATM   17  C   UNK N   1      32.197  17.246   6.410  0.00  0.00     0.029 A 
HETATM   18  C   UNK N   1      31.746  17.200   5.081  0.00  0.00    -0.005 A 
HETATM   19  C   UNK N   1      30.383  16.985   4.815  0.00  0.00     0.083 A 
HETATM   20  C   UNK N   1      32.713  17.364   3.948  0.00  0.00     0.053 C 
HETATM   21  C   UNK N   1      29.494  16.821   5.915  0.00  0.00    -0.013 A 
HETATM   22  C   UNK N   1      29.998  16.880   7.213  0.00  0.00     0.097 A 
HETATM   23  C   UNK N   1      28.031  16.581   5.763  0.00  0.00     0.052 C 
HETATM   24  N   UNK N   1      31.320  17.085   7.434  0.00  0.00    -0.367 N 
ATOM     25  HN  UNK N   1      31.664  17.120   8.394  1.00  0.00     0.165 HD
BRANCH  19  26
HETATM   26  O   UNK N   1      29.991  16.941   3.510  0.00  0.00    -0.355 OA
HETATM   27  C   UNK N   1      29.698  15.814   2.779  0.00  0.00     0.210 C 
ENDBRANCH  19  26
ENDBRANCH  16  17
ENDBRANCH   2  16
TORSDOF 5
ENDMDL
MODEL 3
REMARK VINA RESULT:      -6.8      2.381      8.564
REMARK  5 active torsions:
REMARK  status: ('A' for Active; 'I' for Inactive)
REMARK    1  A    between atoms: C_4  and  C_5 
REMARK    2  A    between atoms: S_11  and  C_5 
REMARK    3  A    between atoms: C_8  and  O_9 
REMARK    4  A    between atoms: S_11  and  C_12 
REMARK    5  A    between atoms: C_21  and  O_22 
ROOT
HETATM    1  O   UNK N   1      36.063  11.795  12.001  0.00  0.00    -0.249 OA
HETATM    2  S   UNK N   1      36.429  13.275  11.818  0.00  0.00     0.090 S 
ENDROOT
BRANCH   2   3
HETATM    3  C   UNK N   1      36.417  13.637  13.574  0.00  0.00     0.176 A 
HETATM    4  N   UNK N   1      37.054  14.702  14.126  0.00  0.00    -0.333 N 
HETATM    5  C   UNK N   1      36.724  14.634  15.420  0.00  0.00     0.061 A 
HETATM    6  H   UNK N   1      37.625  15.367  13.678  0.00  0.00     0.168 HD
HETATM    7  C   UNK N   1      37.085  15.506  16.440  0.00  0.00     0.035 A 
HETATM    8  C   UNK N   1      35.913  13.563  15.635  0.00  0.00     0.063 A 
HETATM    9  C   UNK N   1      36.565  15.252  17.721  0.00  0.00     0.039 A 
HETATM   10  C   UNK N   1      35.707  14.139  17.952  0.00  0.00     0.070 A 
HETATM   11  C   UNK N   1      35.384  13.272  16.886  0.00  0.00     0.068 A 
HETATM   12  N   UNK N   1      35.706  12.916  14.478  0.00  0.00    -0.333 N 
ATOM     13  HN  UNK N   1      35.144  12.081  14.316  1.00  0.00     0.168 HD
BRANCH  10  14
HETATM   14  O   UNK N   1      35.169  13.905  19.171  0.00  0.00    -0.356 OA
HETATM   15  C   UNK N   1      35.098  12.650  19.733  0.00  0.00     0.210 C 
ENDBRANCH  10  14
ENDBRANCH   2   3
BRANCH   2  16
HETATM   16  C   UNK N   1      34.690  13.750  11.641  0.00  0.00     0.175 C 
BRANCH  16  17
HETATM   17  C   UNK N   1      34.606  14.881  10.679  0.00  0.00     0.029 A 
HETATM   18  C   UNK N   1      33.980  14.720   9.432  0.00  0.00    -0.005 A 
HETATM   19  C   UNK N   1      33.890  15.811   8.550  0.00  0.00     0.083 A 
HETATM   20  C   UNK N   1      33.395  13.396   9.044  0.00  0.00     0.053 C 
HETATM   21  C   UNK N   1      34.445  17.058   8.956  0.00  0.00    -0.013 A 
HETATM   22  C   UNK N   1      35.058  17.158  10.204  0.00  0.00     0.097 A 
HETATM   23  C   UNK N   1      34.407  18.288   8.115  0.00  0.00     0.052 C 
HETATM   24  N   UNK N   1      35.123  16.086  11.031  0.00  0.00    -0.367 N 
ATOM     25  HN  UNK N   1      35.573  16.187  11.941  1.00  0.00     0.165 HD
BRANCH  19  26
HETATM   26  O   UNK N   1      33.268  15.610   7.354  0.00  0.00    -0.355 OA
HETATM   27  C   UNK N   1      31.967  15.929   7.042  0.00  0.00     0.210 C 
ENDBRANCH  19  26
ENDBRANCH  16  17
ENDBRANCH   2  16
TORSDOF 5
ENDMDL
MODEL 4
REMARK VINA RESULT:      -6.7      9.576     14.001
REMARK  5 active torsions:
REMARK  status: ('A' for Active; 'I' for Inactive)
REMARK    1  A    between atoms: C_4  and  C_5 
REMARK    2  A    between atoms: S_11  and  C_5 
REMARK    3  A    between atoms: C_8  and  O_9 
REMARK    4  A    between atoms: S_11  and  C_12 
REMARK    5  A    between atoms: C_21  and  O_22 
ROOT
HETATM    1  O   UNK N   1      27.607  20.031   6.394  0.00  0.00    -0.249 OA
HETATM    2  S   UNK N   1      27.884  19.801   4.901  0.00  0.00     0.090 S 
ENDROOT
BRANCH   2   3
HETATM    3  C   UNK N   1      26.157  19.583   4.473  0.00  0.00     0.176 A 
HETATM    4  N   UNK N   1      25.324  18.727   5.119  0.00  0.00    -0.333 N 
HETATM    5  C   UNK N   1      24.138  18.937   4.539  0.00  0.00     0.061 A 
HETATM    6  H   UNK N   1      25.543  18.099   5.846  0.00  0.00     0.168 HD
HETATM    7  C   UNK N   1      22.921  18.340   4.842  0.00  0.00     0.035 A 
HETATM    8  C   UNK N   1      24.257  19.890   3.575  0.00  0.00     0.063 A 
HETATM    9  C   UNK N   1      21.793  18.768   4.121  0.00  0.00     0.039 A 
HETATM   10  C   UNK N   1      21.908  19.773   3.119  0.00  0.00     0.070 A 
HETATM   11  C   UNK N   1      23.170  20.337   2.835  0.00  0.00     0.068 A 
HETATM   12  N   UNK N   1      25.529  20.313   3.516  0.00  0.00    -0.333 N 
ATOM     13  HN  UNK N   1      25.929  21.019   2.898  1.00  0.00     0.168 HD
BRANCH  10  14
HETATM   14  O   UNK N   1      20.824  20.222   2.444  0.00  0.00    -0.356 OA
HETATM   15  C   UNK N   1      20.852  20.543   1.105  0.00  0.00     0.210 C 
ENDBRANCH  10  14
ENDBRANCH   2   3
BRANCH   2  16
HETATM   16  C   UNK N   1      28.114  18.022   5.152  0.00  0.00     0.175 C 
BRANCH  16  17
HETATM   17  C   UNK N   1      29.567  17.756   5.331  0.00  0.00     0.029 A 
HETATM   18  C   UNK N   1      30.084  17.398   6.587  0.00  0.00    -0.005 A 
HETATM   19  C   UNK N   1      31.455  17.126   6.726  0.00  0.00     0.083 A 
HETATM   20  C   UNK N   1      29.177  17.292   7.776  0.00  0.00     0.053 C 
HETATM   21  C   UNK N   1      32.286  17.224   5.573  0.00  0.00    -0.013 A 
HETATM   22  C   UNK N   1      31.719  17.587   4.353  0.00  0.00     0.097 A 
HETATM   23  C   UNK N   1      33.752  16.955   5.589  0.00  0.00     0.052 C 
HETATM   24  N   UNK N   1      30.390  17.839   4.255  0.00  0.00    -0.367 N 
ATOM     25  HN  UNK N   1      29.999  18.098   3.349  1.00  0.00     0.165 HD
BRANCH  19  26
HETATM   26  O   UNK N   1      31.911  16.776   7.962  0.00  0.00    -0.355 OA
HETATM   27  C   UNK N   1      32.189  15.504   8.405  0.00  0.00     0.210 C 
ENDBRANCH  19  26
ENDBRANCH  16  17
ENDBRANCH   2  16
TORSDOF 5
ENDMDL
MODEL 5
REMARK VINA RESULT:      -6.6     10.177     15.460
REMARK  5 active torsions:
REMARK  status: ('A' for Active; 'I' for Inactive)
REMARK    1  A    between atoms: C_4  and  C_5 
REMARK    2  A    between atoms: S_11  and  C_5 
REMARK    3  A    between atoms: C_8  and  O_9 
REMARK    4  A    between atoms: S_11  and  C_12 
REMARK    5  A    between atoms: C_21  and  O_22 
ROOT
HETATM    1  O   UNK N   1      27.029  20.534   4.258  0.00  0.00    -0.249 OA
HETATM    2  S   UNK N   1      26.123  20.416   5.493  0.00  0.00     0.090 S 
ENDROOT
BRANCH   2   3
HETATM    3  C   UNK N   1      27.346  19.553   6.479  0.00  0.00     0.176 A 
HETATM    4  N   UNK N   1      27.351  19.550   7.837  0.00  0.00    -0.333 N 
HETATM    5  C   UNK N   1      28.366  18.737   8.149  0.00  0.00     0.061 A 
HETATM    6  H   UNK N   1      26.748  20.033   8.448  0.00  0.00     0.168 HD
HETATM    7  C   UNK N   1      28.795  18.355   9.414  0.00  0.00     0.035 A 
HETATM    8  C   UNK N   1      28.949  18.267   7.013  0.00  0.00     0.063 A 
HETATM    9  C   UNK N   1      29.861  17.440   9.486  0.00  0.00     0.039 A 
HETATM   10  C   UNK N   1      30.469  16.936   8.301  0.00  0.00     0.070 A 
HETATM   11  C   UNK N   1      30.008  17.368   7.040  0.00  0.00     0.068 A 
HETATM   12  N   UNK N   1      28.318  18.772   5.942  0.00  0.00    -0.333 N 
ATOM     13  HN  UNK N   1      28.521  18.607   4.957  1.00  0.00     0.168 HD
BRANCH  10  14
HETATM   14  O   UNK N   1      31.469  16.026   8.356  0.00  0.00    -0.356 OA
HETATM   15  C   UNK N   1      32.782  16.335   8.080  0.00  0.00     0.210 C 
ENDBRANCH  10  14
ENDBRANCH   2   3
BRANCH   2  16
HETATM   16  C   UNK N   1      25.408  18.861   4.899  0.00  0.00     0.175 C 
BRANCH  16  17
HETATM   17  C   UNK N   1      24.128  19.167   4.205  0.00  0.00     0.029 A 
HETATM   18  C   UNK N   1      22.969  18.418   4.469  0.00  0.00    -0.005 A 
HETATM   19  C   UNK N   1      21.765  18.743   3.821  0.00  0.00     0.083 A 
HETATM   20  C   UNK N   1      23.008  17.285   5.450  0.00  0.00     0.053 C 
HETATM   21  C   UNK N   1      21.761  19.833   2.904  0.00  0.00    -0.013 A 
HETATM   22  C   UNK N   1      22.942  20.538   2.679  0.00  0.00     0.097 A 
HETATM   23  C   UNK N   1      20.549  20.278   2.160  0.00  0.00     0.052 C 
HETATM   24  N   UNK N   1      24.085  20.200   3.325  0.00  0.00    -0.367 N 
ATOM     25  HN  UNK N   1      24.935  20.735   3.146  1.00  0.00     0.165 HD
BRANCH  19  26
HETATM   26  O   UNK N   1      20.665  17.993   4.113  0.00  0.00    -0.355 OA
HETATM   27  C   UNK N   1      20.140  16.975   3.352  0.00  0.00     0.210 C 
ENDBRANCH  19  26
ENDBRANCH  16  17
ENDBRANCH   2  16
TORSDOF 5
ENDMDL
MODEL 6
REMARK VINA RESULT:      -6.6      2.514      9.447
REMARK  5 active torsions:
REMARK  status: ('A' for Active; 'I' for Inactive)
REMARK    1  A    between atoms: C_4  and  C_5 
REMARK    2  A    between atoms: S_11  and  C_5 
REMARK    3  A    between atoms: C_8  and  O_9 
REMARK    4  A    between atoms: S_11  and  C_12 
REMARK    5  A    between atoms: C_21  and  O_22 
ROOT
HETATM    1  O   UNK N   1      36.671  15.188  10.005  0.00  0.00    -0.249 OA
HETATM    2  S   UNK N   1      35.869  16.080  10.965  0.00  0.00     0.090 S 
ENDROOT
BRANCH   2   3
HETATM    3  C   UNK N   1      35.842  14.869  12.287  0.00  0.00     0.176 A 
HETATM    4  N   UNK N   1      36.523  15.013  13.453  0.00  0.00    -0.333 N 
HETATM    5  C   UNK N   1      36.164  13.940  14.165  0.00  0.00     0.061 A 
HETATM    6  H   UNK N   1      37.136  15.739  13.713  0.00  0.00     0.168 HD
HETATM    7  C   UNK N   1      36.550  13.606  15.458  0.00  0.00     0.035 A 
HETATM    8  C   UNK N   1      35.295  13.178  13.448  0.00  0.00     0.063 A 
HETATM    9  C   UNK N   1      35.992  12.442  16.018  0.00  0.00     0.039 A 
HETATM   10  C   UNK N   1      35.073  11.645  15.277  0.00  0.00     0.070 A 
HETATM   11  C   UNK N   1      34.727  12.018  13.961  0.00  0.00     0.068 A 
HETATM   12  N   UNK N   1      35.077  13.748  12.253  0.00  0.00    -0.333 N 
ATOM     13  HN  UNK N   1      34.476  13.417  11.498  1.00  0.00     0.168 HD
BRANCH  10  14
HETATM   14  O   UNK N   1      34.500  10.545  15.817  0.00  0.00    -0.356 OA
HETATM   15  C   UNK N   1      35.227   9.474  16.289  0.00  0.00     0.210 C 
ENDBRANCH  10  14
ENDBRANCH   2   3
BRANCH   2  16
HETATM   16  C   UNK N   1      34.292  15.488  10.301  0.00  0.00     0.175 C 
BRANCH  16  17
HETATM   17  C   UNK N   1      34.433  15.322   8.829  0.00  0.00     0.029 A 
HETATM   18  C   UNK N   1      34.272  16.416   7.963  0.00  0.00    -0.005 A 
HETATM   19  C   UNK N   1      34.436  16.240   6.579  0.00  0.00     0.083 A 
HETATM   20  C   UNK N   1      33.940  17.771   8.510  0.00  0.00     0.053 C 
HETATM   21  C   UNK N   1      34.763  14.941   6.094  0.00  0.00    -0.013 A 
HETATM   22  C   UNK N   1      34.907  13.892   7.000  0.00  0.00     0.097 A 
HETATM   23  C   UNK N   1      34.969  14.629   4.651  0.00  0.00     0.052 C 
HETATM   24  N   UNK N   1      34.745  14.099   8.330  0.00  0.00    -0.367 N 
ATOM     25  HN  UNK N   1      34.860  13.315   8.973  1.00  0.00     0.165 HD
BRANCH  19  26
HETATM   26  O   UNK N   1      34.277  17.331   5.777  0.00  0.00    -0.355 OA
HETATM   27  C   UNK N   1      33.187  17.618   4.990  0.00  0.00     0.210 C 
ENDBRANCH  19  26
ENDBRANCH  16  17
ENDBRANCH   2  16
TORSDOF 5
ENDMDL
MODEL 7
REMARK VINA RESULT:      -6.6     10.149     14.909
REMARK  5 active torsions:
REMARK  status: ('A' for Active; 'I' for Inactive)
REMARK    1  A    between atoms: C_4  and  C_5 
REMARK    2  A    between atoms: S_11  and  C_5 
REMARK    3  A    between atoms: C_8  and  O_9 
REMARK    4  A    between atoms: S_11  and  C_12 
REMARK    5  A    between atoms: C_21  and  O_22 
ROOT
HETATM    1  O   UNK N   1      26.874  15.766   4.646  0.00  0.00    -0.249 OA
HETATM    2  S   UNK N   1      27.171  16.595   3.388  0.00  0.00     0.090 S 
ENDROOT
BRANCH   2   3
HETATM    3  C   UNK N   1      28.929  16.718   3.716  0.00  0.00     0.176 A 
HETATM    4  N   UNK N   1      29.881  16.659   2.749  0.00  0.00    -0.333 N 
HETATM    5  C   UNK N   1      31.023  16.867   3.413  0.00  0.00     0.061 A 
HETATM    6  H   UNK N   1      29.758  16.500   1.784  0.00  0.00     0.168 HD
HETATM    7  C   UNK N   1      32.310  16.939   2.895  0.00  0.00     0.035 A 
HETATM    8  C   UNK N   1      30.762  17.047   4.736  0.00  0.00     0.063 A 
HETATM    9  C   UNK N   1      33.353  17.223   3.794  0.00  0.00     0.039 A 
HETATM   10  C   UNK N   1      33.087  17.423   5.179  0.00  0.00     0.070 A 
HETATM   11  C   UNK N   1      31.764  17.322   5.659  0.00  0.00     0.068 A 
HETATM   12  N   UNK N   1      29.441  16.956   4.951  0.00  0.00    -0.333 N 
ATOM     13  HN  UNK N   1      28.939  17.046   5.834  1.00  0.00     0.168 HD
BRANCH  10  14
HETATM   14  O   UNK N   1      34.076  17.734   6.048  0.00  0.00    -0.356 OA
HETATM   15  C   UNK N   1      33.884  17.810   7.410  0.00  0.00     0.210 C 
ENDBRANCH  10  14
ENDBRANCH   2   3
BRANCH   2  16
HETATM   16  C   UNK N   1      26.834  18.150   4.254  0.00  0.00     0.175 C 
BRANCH  16  17
HETATM   17  C   UNK N   1      25.360  18.316   4.367  0.00  0.00     0.029 A 
HETATM   18  C   UNK N   1      24.697  19.348   3.683  0.00  0.00    -0.005 A 
HETATM   19  C   UNK N   1      23.301  19.468   3.785  0.00  0.00     0.083 A 
HETATM   20  C   UNK N   1      25.470  20.311   2.835  0.00  0.00     0.053 C 
HETATM   21  C   UNK N   1      22.596  18.528   4.589  0.00  0.00    -0.013 A 
HETATM   22  C   UNK N   1      23.307  17.526   5.249  0.00  0.00     0.097 A 
HETATM   23  C   UNK N   1      21.116  18.545   4.771  0.00  0.00     0.052 C 
HETATM   24  N   UNK N   1      24.654  17.438   5.125  0.00  0.00    -0.367 N 
ATOM     25  HN  UNK N   1      25.150  16.693   5.614  1.00  0.00     0.165 HD
BRANCH  19  26
HETATM   26  O   UNK N   1      22.700  20.481   3.098  0.00  0.00    -0.355 OA
HETATM   27  C   UNK N   1      21.696  20.357   2.166  0.00  0.00     0.210 C 
ENDBRANCH  19  26
ENDBRANCH  16  17
ENDBRANCH   2  16
TORSDOF 5
ENDMDL
MODEL 8
REMARK VINA RESULT:      -6.6      3.436      4.590
REMARK  5 active torsions:
REMARK  status: ('A' for Active; 'I' for Inactive)
REMARK    1  A    between atoms: C_4  and  C_5 
REMARK    2  A    between atoms: S_11  and  C_5 
REMARK    3  A    between atoms: C_8  and  O_9 
REMARK    4  A    between atoms: S_11  and  C_12 
REMARK    5  A    between atoms: C_21  and  O_22 
ROOT
HETATM    1  O   UNK N   1      34.663  14.135  12.347  0.00  0.00    -0.249 OA
HETATM    2  S   UNK N   1      35.826  15.112  12.120  0.00  0.00     0.090 S 
ENDROOT
BRANCH   2   3
HETATM    3  C   UNK N   1      35.198  15.709  10.550  0.00  0.00     0.176 A 
HETATM    4  N   UNK N   1      34.820  16.995  10.331  0.00  0.00    -0.333 N 
HETATM    5  C   UNK N   1      34.500  17.016   9.033  0.00  0.00     0.061 A 
HETATM    6  H   UNK N   1      34.789  17.737  10.978  0.00  0.00     0.168 HD
HETATM    7  C   UNK N   1      34.074  18.101   8.277  0.00  0.00     0.035 A 
HETATM    8  C   UNK N   1      34.682  15.781   8.492  0.00  0.00     0.063 A 
HETATM    9  C   UNK N   1      33.847  17.884   6.906  0.00  0.00     0.039 A 
HETATM   10  C   UNK N   1      34.046  16.596   6.330  0.00  0.00     0.070 A 
HETATM   11  C   UNK N   1      34.463  15.522   7.144  0.00  0.00     0.068 A 
HETATM   12  N   UNK N   1      35.124  14.937   9.436  0.00  0.00    -0.333 N 
ATOM     13  HN  UNK N   1      35.352  13.947   9.339  1.00  0.00     0.168 HD
BRANCH  10  14
HETATM   14  O   UNK N   1      33.869  16.382   5.005  0.00  0.00    -0.356 OA
HETATM   15  C   UNK N   1      32.999  17.121   4.235  0.00  0.00     0.210 C 
ENDBRANCH  10  14
ENDBRANCH   2   3
BRANCH   2  16
HETATM   16  C   UNK N   1      36.824  13.836  11.310  0.00  0.00     0.175 C 
BRANCH  16  17
HETATM   17  C   UNK N   1      37.046  12.728  12.278  0.00  0.00     0.029 A 
HETATM   18  C   UNK N   1      37.223  11.407  11.832  0.00  0.00    -0.005 A 
HETATM   19  C   UNK N   1      37.458  10.382  12.764  0.00  0.00     0.083 A 
HETATM   20  C   UNK N   1      37.176  11.091  10.368  0.00  0.00     0.053 C 
HETATM   21  C   UNK N   1      37.508  10.720  14.147  0.00  0.00    -0.013 A 
HETATM   22  C   UNK N   1      37.322  12.048  14.531  0.00  0.00     0.097 A 
HETATM   23  C   UNK N   1      37.757   9.726  15.229  0.00  0.00     0.052 C 
HETATM   24  N   UNK N   1      37.101  13.012  13.604  0.00  0.00    -0.367 N 
ATOM     25  HN  UNK N   1      36.972  13.976  13.911  1.00  0.00     0.165 HD
BRANCH  19  26
HETATM   26  O   UNK N   1      37.631   9.118  12.286  0.00  0.00    -0.355 OA
HETATM   27  C   UNK N   1      38.829   8.482  12.061  0.00  0.00     0.210 C 
ENDBRANCH  19  26
ENDBRANCH  16  17
ENDBRANCH   2  16
TORSDOF 5
ENDMDL
MODEL 9
REMARK VINA RESULT:      -6.3      5.110     10.701
REMARK  5 active torsions:
REMARK  status: ('A' for Active; 'I' for Inactive)
REMARK    1  A    between atoms: C_4  and  C_5 
REMARK    2  A    between atoms: S_11  and  C_5 
REMARK    3  A    between atoms: C_8  and  O_9 
REMARK    4  A    between atoms: S_11  and  C_12 
REMARK    5  A    between atoms: C_21  and  O_22 
ROOT
HETATM    1  O   UNK N   1      33.668  17.068   6.591  0.00  0.00    -0.249 OA
HETATM    2  S   UNK N   1      33.308  17.801   7.891  0.00  0.00     0.090 S 
ENDROOT
BRANCH   2   3
HETATM    3  C   UNK N   1      34.340  16.762   8.925  0.00  0.00     0.176 A 
HETATM    4  N   UNK N   1      34.508  16.958  10.258  0.00  0.00    -0.333 N 
HETATM    5  C   UNK N   1      35.276  15.930  10.637  0.00  0.00     0.061 A 
HETATM    6  H   UNK N   1      34.148  17.686  10.816  0.00  0.00     0.168 HD
HETATM    7  C   UNK N   1      35.726  15.627  11.915  0.00  0.00     0.035 A 
HETATM    8  C   UNK N   1      35.558  15.144   9.563  0.00  0.00     0.063 A 
HETATM    9  C   UNK N   1      36.484  14.453  12.072  0.00  0.00     0.039 A 
HETATM   10  C   UNK N   1      36.774  13.619  10.955  0.00  0.00     0.070 A 
HETATM   11  C   UNK N   1      36.309  13.980   9.673  0.00  0.00     0.068 A 
HETATM   12  N   UNK N   1      34.975  15.653   8.467  0.00  0.00    -0.333 N 
ATOM     13  HN  UNK N   1      35.002  15.290   7.514  1.00  0.00     0.168 HD
BRANCH  10  14
HETATM   14  O   UNK N   1      37.469  12.466  11.098  0.00  0.00    -0.356 OA
HETATM   15  C   UNK N   1      37.325  11.632  12.183  0.00  0.00     0.210 C 
ENDBRANCH  10  14
ENDBRANCH   2   3
BRANCH   2  16
HETATM   16  C   UNK N   1      31.861  16.745   8.161  0.00  0.00     0.175 C 
BRANCH  16  17
HETATM   17  C   UNK N   1      30.811  17.125   7.178  0.00  0.00     0.029 A 
HETATM   18  C   UNK N   1      29.682  17.858   7.578  0.00  0.00    -0.005 A 
HETATM   19  C   UNK N   1      28.717  18.228   6.626  0.00  0.00     0.083 A 
HETATM   20  C   UNK N   1      29.509  18.259   9.011  0.00  0.00     0.053 C 
HETATM   21  C   UNK N   1      28.918  17.840   5.270  0.00  0.00    -0.013 A 
HETATM   22  C   UNK N   1      30.057  17.110   4.932  0.00  0.00     0.097 A 
HETATM   23  C   UNK N   1      27.973  18.177   4.168  0.00  0.00     0.052 C 
HETATM   24  N   UNK N   1      30.970  16.774   5.876  0.00  0.00    -0.367 N 
ATOM     25  HN  UNK N   1      31.797  16.243   5.602  1.00  0.00     0.165 HD
BRANCH  19  26
HETATM   26  O   UNK N   1      27.641  18.944   7.058  0.00  0.00    -0.355 OA
HETATM   27  C   UNK N   1      27.393  20.276   6.821  0.00  0.00     0.210 C 
ENDBRANCH  19  26
ENDBRANCH  16  17
ENDBRANCH   2  16
TORSDOF 5
ENDMDL
