MODEL 1
REMARK VINA RESULT:      -9.0      0.000      0.000
REMARK  8 active torsions:
REMARK  status: ('A' for Active; 'I' for Inactive)
REMARK    1  A    between atoms: C_1  and  O_14 
REMARK    2  A    between atoms: C_2  and  C_20 
REMARK    3  A    between atoms: C_3  and  C_13 
REMARK    4  A    between atoms: C_5  and  C_10 
REMARK    5  A    between atoms: C_7  and  C_9 
REMARK    6  A    between atoms: C_13  and  O_14 
REMARK    7  A    between atoms: N_19  and  C_27 
REMARK    8  A    between atoms: C_27  and  C_28 
ROOT
HETATM    1  C   UNK N   1      23.259  15.712   4.457  0.00  0.00     0.298 C 
HETATM    2  C   UNK N   1      21.811  16.218   4.283  0.00  0.00     0.311 C 
HETATM    3  O   UNK N   1      24.200  16.653   3.955  0.00  0.00    -0.357 OA
HETATM    4  C   UNK N   1      24.172  17.812   4.768  0.00  0.00     0.201 C 
HETATM    5  C   UNK N   1      22.745  18.329   4.960  0.00  0.00     0.300 C 
HETATM    6  N   UNK N   1      21.876  17.662   3.991  0.00  0.00     0.111 N 
ENDROOT
BRANCH   1   7
HETATM    7  O   UNK N   1      23.512  15.379   5.798  0.00  0.00    -0.349 OA
BRANCH   7   8
HETATM    8  C   UNK N   1      22.837  14.173   5.984  0.00  0.00     0.153 C 
HETATM    9  C   UNK N   1      23.801  13.001   5.842  0.00  0.00     0.045 C 
BRANCH   8  10
HETATM   10  C   UNK N   1      22.012  14.170   7.235  0.00  0.00    -0.028 A 
HETATM   11  C   UNK N   1      22.304  13.267   8.267  0.00  0.00     0.025 A 
HETATM   12  C   UNK N   1      21.581  13.296   9.466  0.00  0.00     0.049 A 
HETATM   13  C   UNK N   1      20.577  14.261   9.636  0.00  0.00     0.032 A 
HETATM   14  C   UNK N   1      20.302  15.186   8.618  0.00  0.00     0.049 A 
HETATM   15  C   UNK N   1      21.018  15.128   7.424  0.00  0.00     0.025 A 
BRANCH  12  16
HETATM   16  C   UNK N   1      21.920  12.329  10.564  0.00  0.00     0.417 C 
HETATM   17  F   UNK N   1      22.879  12.891  11.388  0.00  0.00    -0.166 F 
HETATM   18  F   UNK N   1      22.417  11.156  10.025  0.00  0.00    -0.166 F 
HETATM   19  F   UNK N   1      20.806  12.028  11.328  0.00  0.00    -0.166 F 
ENDBRANCH  12  16
BRANCH  14  20
HETATM   20  C   UNK N   1      19.294  16.272   8.825  0.00  0.00     0.417 C 
HETATM   21  F   UNK N   1      19.924  17.422   9.256  0.00  0.00    -0.166 F 
HETATM   22  F   UNK N   1      18.349  15.896   9.766  0.00  0.00    -0.166 F 
HETATM   23  F   UNK N   1      18.646  16.520   7.629  0.00  0.00    -0.166 F 
ENDBRANCH  14  20
ENDBRANCH   8  10
ENDBRANCH   7   8
ENDBRANCH   1   7
BRANCH   2  24
HETATM   24  C   UNK N   1      21.117  15.397   3.207  0.00  0.00    -0.020 A 
HETATM   25  C   UNK N   1      19.909  14.719   3.443  0.00  0.00     0.012 A 
HETATM   26  C   UNK N   1      19.314  13.956   2.430  0.00  0.00     0.043 A 
HETATM   27  C   UNK N   1      19.910  13.879   1.169  0.00  0.00     0.116 A 
HETATM   28  C   UNK N   1      21.105  14.553   0.923  0.00  0.00     0.043 A 
HETATM   29  F   UNK N   1      19.331  13.149   0.186  0.00  0.00    -0.206 F 
HETATM   30  C   UNK N   1      21.710  15.298   1.938  0.00  0.00     0.012 A 
ENDBRANCH   2  24
BRANCH   6  31
HETATM   31  C   UNK N   1      20.606  18.365   3.911  0.00  0.00     0.351 C 
BRANCH  31  32
HETATM   32  C   UNK N   1      20.834  19.474   2.942  0.00  0.00     0.128 A 
HETATM   33  N   UNK N   1      21.003  19.278   1.617  0.00  0.00    -0.294 N 
HETATM   34  C   UNK N   1      20.944  20.533   1.126  0.00  0.00     0.340 A 
HETATM   35  H   UNK N   1      21.137  18.431   1.132  0.00  0.00     0.172 HD
HETATM   36  N   UNK N   1      20.736  21.450   2.098  0.00  0.00    -0.250 N 
HETATM   37  O   UNK N   1      21.033  20.804  -0.059  0.00  0.00    -0.245 OA
HETATM   38  N   UNK N   1      20.658  20.777   3.237  0.00  0.00    -0.283 N 
HETATM   39  H   UNK N   1      20.660  22.426   1.984  0.00  0.00     0.192 HD
ATOM     40  HN  UNK N   1      20.493  21.171   4.163  1.00  0.00     0.188 HD
ENDBRANCH  31  32
ENDBRANCH   6  31
TORSDOF 8
ENDMDL
MODEL 2
REMARK VINA RESULT:      -8.9      0.186      2.872
REMARK  8 active torsions:
REMARK  status: ('A' for Active; 'I' for Inactive)
REMARK    1  A    between atoms: C_1  and  O_14 
REMARK    2  A    between atoms: C_2  and  C_20 
REMARK    3  A    between atoms: C_3  and  C_13 
REMARK    4  A    between atoms: C_5  and  C_10 
REMARK    5  A    between atoms: C_7  and  C_9 
REMARK    6  A    between atoms: C_13  and  O_14 
REMARK    7  A    between atoms: N_19  and  C_27 
REMARK    8  A    between atoms: C_27  and  C_28 
ROOT
HETATM    1  C   UNK N   1      23.351  15.562   4.328  0.00  0.00     0.298 C 
HETATM    2  C   UNK N   1      21.891  16.037   4.167  0.00  0.00     0.311 C 
HETATM    3  O   UNK N   1      24.267  16.516   3.805  0.00  0.00    -0.357 OA
HETATM    4  C   UNK N   1      24.225  17.683   4.605  0.00  0.00     0.201 C 
HETATM    5  C   UNK N   1      22.790  18.174   4.809  0.00  0.00     0.300 C 
HETATM    6  N   UNK N   1      21.923  17.478   3.858  0.00  0.00     0.111 N 
ENDROOT
BRANCH   1   7
HETATM    7  O   UNK N   1      23.627  15.249   5.669  0.00  0.00    -0.349 OA
BRANCH   7   8
HETATM    8  C   UNK N   1      22.820  14.143   5.935  0.00  0.00     0.153 C 
HETATM    9  C   UNK N   1      23.601  12.853   5.719  0.00  0.00     0.045 C 
BRANCH   8  10
HETATM   10  C   UNK N   1      22.124  14.252   7.259  0.00  0.00    -0.028 A 
HETATM   11  C   UNK N   1      21.114  15.205   7.445  0.00  0.00     0.025 A 
HETATM   12  C   UNK N   1      20.413  15.274   8.656  0.00  0.00     0.049 A 
HETATM   13  C   UNK N   1      20.715  14.358   9.674  0.00  0.00     0.032 A 
HETATM   14  C   UNK N   1      21.705  13.383   9.481  0.00  0.00     0.049 A 
HETATM   15  C   UNK N   1      22.405  13.343   8.277  0.00  0.00     0.025 A 
BRANCH  12  16
HETATM   16  C   UNK N   1      19.323  16.294   8.828  0.00  0.00     0.417 C 
HETATM   17  F   UNK N   1      18.401  15.825   9.746  0.00  0.00    -0.166 F 
HETATM   18  F   UNK N   1      18.689  16.518   7.621  0.00  0.00    -0.166 F 
HETATM   19  F   UNK N   1      19.832  17.495   9.291  0.00  0.00    -0.166 F 
ENDBRANCH  12  16
BRANCH  14  20
HETATM   20  C   UNK N   1      21.973  12.349  10.528  0.00  0.00     0.417 C 
HETATM   21  F   UNK N   1      20.806  12.053  11.205  0.00  0.00    -0.166 F 
HETATM   22  F   UNK N   1      22.919  12.798  11.435  0.00  0.00    -0.166 F 
HETATM   23  F   UNK N   1      22.456  11.205   9.920  0.00  0.00    -0.166 F 
ENDBRANCH  14  20
ENDBRANCH   8  10
ENDBRANCH   7   8
ENDBRANCH   1   7
BRANCH   2  24
HETATM   24  C   UNK N   1      21.201  15.191   3.108  0.00  0.00    -0.020 A 
HETATM   25  C   UNK N   1      20.014  14.484   3.368  0.00  0.00     0.012 A 
HETATM   26  C   UNK N   1      19.422  13.700   2.371  0.00  0.00     0.043 A 
HETATM   27  C   UNK N   1      20.000  13.627   1.101  0.00  0.00     0.116 A 
HETATM   28  C   UNK N   1      21.174  14.329   0.831  0.00  0.00     0.043 A 
HETATM   29  F   UNK N   1      19.424  12.875   0.133  0.00  0.00    -0.206 F 
HETATM   30  C   UNK N   1      21.776  15.096   1.831  0.00  0.00     0.012 A 
ENDBRANCH   2  24
BRANCH   6  31
HETATM   31  C   UNK N   1      20.639  18.155   3.786  0.00  0.00     0.351 C 
BRANCH  31  32
HETATM   32  C   UNK N   1      20.860  19.321   2.884  0.00  0.00     0.128 A 
HETATM   33  N   UNK N   1      20.984  19.208   1.545  0.00  0.00    -0.294 N 
HETATM   34  C   UNK N   1      20.937  20.494   1.139  0.00  0.00     0.340 A 
HETATM   35  H   UNK N   1      21.084  18.392   1.002  0.00  0.00     0.172 HD
HETATM   36  N   UNK N   1      20.780  21.349   2.174  0.00  0.00    -0.250 N 
HETATM   37  O   UNK N   1      20.995  20.840  -0.028  0.00  0.00    -0.245 OA
HETATM   38  N   UNK N   1      20.723  20.605   3.269  0.00  0.00    -0.283 N 
HETATM   39  H   UNK N   1      20.722  22.331   2.126  0.00  0.00     0.192 HD
ATOM     40  HN  UNK N   1      20.596  20.940   4.224  1.00  0.00     0.188 HD
ENDBRANCH  31  32
ENDBRANCH   6  31
TORSDOF 8
ENDMDL
MODEL 3
REMARK VINA RESULT:      -8.8      6.973      9.520
REMARK  8 active torsions:
REMARK  status: ('A' for Active; 'I' for Inactive)
REMARK    1  A    between atoms: C_1  and  O_14 
REMARK    2  A    between atoms: C_2  and  C_20 
REMARK    3  A    between atoms: C_3  and  C_13 
REMARK    4  A    between atoms: C_5  and  C_10 
REMARK    5  A    between atoms: C_7  and  C_9 
REMARK    6  A    between atoms: C_13  and  O_14 
REMARK    7  A    between atoms: N_19  and  C_27 
REMARK    8  A    between atoms: C_27  and  C_28 
ROOT
HETATM    1  C   UNK N   1      29.920  16.488   4.321  0.00  0.00     0.298 C 
HETATM    2  C   UNK N   1      29.703  16.795   5.818  0.00  0.00     0.311 C 
HETATM    3  O   UNK N   1      31.279  16.675   3.946  0.00  0.00    -0.357 OA
HETATM    4  C   UNK N   1      32.074  15.694   4.587  0.00  0.00     0.201 C 
HETATM    5  C   UNK N   1      31.795  15.640   6.090  0.00  0.00     0.300 C 
HETATM    6  N   UNK N   1      31.028  16.828   6.463  0.00  0.00     0.111 N 
ENDROOT
BRANCH   1   7
HETATM    7  O   UNK N   1      29.460  15.199   4.005  0.00  0.00    -0.349 OA
BRANCH   7   8
HETATM    8  C   UNK N   1      28.387  15.421   3.143  0.00  0.00     0.153 C 
HETATM    9  C   UNK N   1      28.240  14.257   2.171  0.00  0.00     0.045 C 
BRANCH   8  10
HETATM   10  C   UNK N   1      27.135  15.798   3.878  0.00  0.00    -0.028 A 
HETATM   11  C   UNK N   1      26.724  15.054   4.992  0.00  0.00     0.025 A 
HETATM   12  C   UNK N   1      25.593  15.433   5.725  0.00  0.00     0.049 A 
HETATM   13  C   UNK N   1      24.888  16.586   5.348  0.00  0.00     0.032 A 
HETATM   14  C   UNK N   1      25.314  17.351   4.252  0.00  0.00     0.049 A 
HETATM   15  C   UNK N   1      26.431  16.946   3.523  0.00  0.00     0.025 A 
BRANCH  12  16
HETATM   16  C   UNK N   1      25.179  14.630   6.925  0.00  0.00     0.417 C 
HETATM   17  F   UNK N   1      23.842  14.864   7.192  0.00  0.00    -0.166 F 
HETATM   18  F   UNK N   1      25.933  14.998   8.024  0.00  0.00    -0.166 F 
HETATM   19  F   UNK N   1      25.351  13.275   6.703  0.00  0.00    -0.166 F 
ENDBRANCH  12  16
BRANCH  14  20
HETATM   20  C   UNK N   1      24.621  18.628   3.896  0.00  0.00     0.417 C 
HETATM   21  F   UNK N   1      24.588  19.466   4.993  0.00  0.00    -0.166 F 
HETATM   22  F   UNK N   1      23.323  18.384   3.476  0.00  0.00    -0.166 F 
HETATM   23  F   UNK N   1      25.307  19.243   2.865  0.00  0.00    -0.166 F 
ENDBRANCH  14  20
ENDBRANCH   8  10
ENDBRANCH   7   8
ENDBRANCH   1   7
BRANCH   2  24
HETATM   24  C   UNK N   1      28.912  18.086   5.957  0.00  0.00    -0.020 A 
HETATM   25  C   UNK N   1      28.291  18.460   7.162  0.00  0.00     0.012 A 
HETATM   26  C   UNK N   1      27.554  19.648   7.242  0.00  0.00     0.043 A 
HETATM   27  C   UNK N   1      27.445  20.481   6.125  0.00  0.00     0.116 A 
HETATM   28  C   UNK N   1      28.063  20.123   4.928  0.00  0.00     0.043 A 
HETATM   29  F   UNK N   1      26.740  21.635   6.203  0.00  0.00    -0.206 F 
HETATM   30  C   UNK N   1      28.782  18.929   4.842  0.00  0.00     0.012 A 
ENDBRANCH   2  24
BRANCH   6  31
HETATM   31  C   UNK N   1      31.043  16.984   7.908  0.00  0.00     0.351 C 
BRANCH  31  32
HETATM   32  C   UNK N   1      32.467  17.247   8.259  0.00  0.00     0.128 A 
HETATM   33  N   UNK N   1      33.183  18.263   7.733  0.00  0.00    -0.294 N 
HETATM   34  C   UNK N   1      34.302  18.253   8.488  0.00  0.00     0.340 A 
HETATM   35  H   UNK N   1      32.949  18.861   6.986  0.00  0.00     0.172 HD
HETATM   36  N   UNK N   1      34.267  17.288   9.435  0.00  0.00    -0.250 N 
HETATM   37  O   UNK N   1      35.220  19.042   8.352  0.00  0.00    -0.245 OA
HETATM   38  N   UNK N   1      33.106  16.665   9.293  0.00  0.00    -0.283 N 
HETATM   39  H   UNK N   1      34.966  17.086  10.099  0.00  0.00     0.192 HD
ATOM     40  HN  UNK N   1      32.760  15.892   9.860  1.00  0.00     0.188 HD
ENDBRANCH  31  32
ENDBRANCH   6  31
TORSDOF 8
ENDMDL
MODEL 4
REMARK VINA RESULT:      -8.7      5.593      7.844
REMARK  8 active torsions:
REMARK  status: ('A' for Active; 'I' for Inactive)
REMARK    1  A    between atoms: C_1  and  O_14 
REMARK    2  A    between atoms: C_2  and  C_20 
REMARK    3  A    between atoms: C_3  and  C_13 
REMARK    4  A    between atoms: C_5  and  C_10 
REMARK    5  A    between atoms: C_7  and  C_9 
REMARK    6  A    between atoms: C_13  and  O_14 
REMARK    7  A    between atoms: N_19  and  C_27 
REMARK    8  A    between atoms: C_27  and  C_28 
ROOT
HETATM    1  C   UNK N   1      25.643  18.946   4.231  0.00  0.00     0.298 C 
HETATM    2  C   UNK N   1      25.050  17.601   4.699  0.00  0.00     0.311 C 
HETATM    3  O   UNK N   1      24.953  19.449   3.094  0.00  0.00    -0.357 OA
HETATM    4  C   UNK N   1      23.634  19.800   3.472  0.00  0.00     0.201 C 
HETATM    5  C   UNK N   1      22.944  18.662   4.225  0.00  0.00     0.300 C 
HETATM    6  N   UNK N   1      23.735  17.444   4.052  0.00  0.00     0.111 N 
ENDROOT
BRANCH   1   7
HETATM    7  O   UNK N   1      25.664  19.875   5.285  0.00  0.00    -0.349 OA
BRANCH   7   8
HETATM    8  C   UNK N   1      26.992  20.298   5.341  0.00  0.00     0.153 C 
HETATM    9  C   UNK N   1      27.096  21.613   6.103  0.00  0.00     0.045 C 
BRANCH   8  10
HETATM   10  C   UNK N   1      27.915  19.215   5.812  0.00  0.00    -0.028 A 
HETATM   11  C   UNK N   1      28.805  18.610   4.914  0.00  0.00     0.025 A 
HETATM   12  C   UNK N   1      29.716  17.643   5.355  0.00  0.00     0.049 A 
HETATM   13  C   UNK N   1      29.748  17.303   6.715  0.00  0.00     0.032 A 
HETATM   14  C   UNK N   1      28.880  17.927   7.623  0.00  0.00     0.049 A 
HETATM   15  C   UNK N   1      27.967  18.874   7.162  0.00  0.00     0.025 A 
BRANCH  12  16
HETATM   16  C   UNK N   1      30.671  17.018   4.377  0.00  0.00     0.417 C 
HETATM   17  F   UNK N   1      31.798  17.812   4.269  0.00  0.00    -0.166 F 
HETATM   18  F   UNK N   1      30.072  16.908   3.136  0.00  0.00    -0.166 F 
HETATM   19  F   UNK N   1      31.060  15.757   4.794  0.00  0.00    -0.166 F 
ENDBRANCH  12  16
BRANCH  14  20
HETATM   20  C   UNK N   1      28.967  17.635   9.088  0.00  0.00     0.417 C 
HETATM   21  F   UNK N   1      29.087  18.815   9.796  0.00  0.00    -0.166 F 
HETATM   22  F   UNK N   1      30.060  16.830   9.366  0.00  0.00    -0.166 F 
HETATM   23  F   UNK N   1      27.821  16.972   9.485  0.00  0.00    -0.166 F 
ENDBRANCH  14  20
ENDBRANCH   8  10
ENDBRANCH   7   8
ENDBRANCH   1   7
BRANCH   2  24
HETATM   24  C   UNK N   1      26.032  16.482   4.388  0.00  0.00    -0.020 A 
HETATM   25  C   UNK N   1      26.568  15.654   5.388  0.00  0.00     0.012 A 
HETATM   26  C   UNK N   1      27.487  14.648   5.061  0.00  0.00     0.043 A 
HETATM   27  C   UNK N   1      27.865  14.452   3.730  0.00  0.00     0.116 A 
HETATM   28  C   UNK N   1      27.335  15.264   2.729  0.00  0.00     0.043 A 
HETATM   29  F   UNK N   1      28.747  13.475   3.411  0.00  0.00    -0.206 F 
HETATM   30  C   UNK N   1      26.433  16.280   3.057  0.00  0.00     0.012 A 
ENDBRANCH   2  24
BRANCH   6  31
HETATM   31  C   UNK N   1      22.947  16.290   4.454  0.00  0.00     0.351 C 
BRANCH  31  32
HETATM   32  C   UNK N   1      22.461  15.685   3.181  0.00  0.00     0.128 A 
HETATM   33  N   UNK N   1      21.325  16.071   2.565  0.00  0.00    -0.294 N 
HETATM   34  C   UNK N   1      21.408  15.438   1.376  0.00  0.00     0.340 A 
HETATM   35  H   UNK N   1      20.614  16.666   2.898  0.00  0.00     0.172 HD
HETATM   36  N   UNK N   1      22.543  14.710   1.266  0.00  0.00    -0.250 N 
HETATM   37  O   UNK N   1      20.574  15.537   0.493  0.00  0.00    -0.245 OA
HETATM   38  N   UNK N   1      23.206  14.878   2.401  0.00  0.00    -0.283 N 
HETATM   39  H   UNK N   1      22.822  14.163   0.496  0.00  0.00     0.192 HD
ATOM     40  HN  UNK N   1      24.112  14.473   2.638  1.00  0.00     0.188 HD
ENDBRANCH  31  32
ENDBRANCH   6  31
TORSDOF 8
ENDMDL
MODEL 5
REMARK VINA RESULT:      -8.7      5.442      7.692
REMARK  8 active torsions:
REMARK  status: ('A' for Active; 'I' for Inactive)
REMARK    1  A    between atoms: C_1  and  O_14 
REMARK    2  A    between atoms: C_2  and  C_20 
REMARK    3  A    between atoms: C_3  and  C_13 
REMARK    4  A    between atoms: C_5  and  C_10 
REMARK    5  A    between atoms: C_7  and  C_9 
REMARK    6  A    between atoms: C_13  and  O_14 
REMARK    7  A    between atoms: N_19  and  C_27 
REMARK    8  A    between atoms: C_27  and  C_28 
ROOT
HETATM    1  C   UNK N   1      25.523  18.907   4.275  0.00  0.00     0.298 C 
HETATM    2  C   UNK N   1      24.875  17.581   4.726  0.00  0.00     0.311 C 
HETATM    3  O   UNK N   1      24.890  19.423   3.110  0.00  0.00    -0.357 OA
HETATM    4  C   UNK N   1      23.569  19.814   3.438  0.00  0.00     0.201 C 
HETATM    5  C   UNK N   1      22.819  18.700   4.170  0.00  0.00     0.300 C 
HETATM    6  N   UNK N   1      23.580  17.459   4.030  0.00  0.00     0.111 N 
ENDROOT
BRANCH   1   7
HETATM    7  O   UNK N   1      25.532  19.839   5.325  0.00  0.00    -0.349 OA
BRANCH   7   8
HETATM    8  C   UNK N   1      26.832  20.343   5.324  0.00  0.00     0.153 C 
HETATM    9  C   UNK N   1      26.883  21.679   6.054  0.00  0.00     0.045 C 
BRANCH   8  10
HETATM   10  C   UNK N   1      27.836  19.328   5.784  0.00  0.00    -0.028 A 
HETATM   11  C   UNK N   1      27.886  18.952   7.133  0.00  0.00     0.025 A 
HETATM   12  C   UNK N   1      28.775  17.960   7.564  0.00  0.00     0.049 A 
HETATM   13  C   UNK N   1      29.598  17.323   6.624  0.00  0.00     0.032 A 
HETATM   14  C   UNK N   1      29.529  17.674   5.267  0.00  0.00     0.049 A 
HETATM   15  C   UNK N   1      28.652  18.678   4.861  0.00  0.00     0.025 A 
BRANCH  12  16
HETATM   16  C   UNK N   1      28.803  17.562   9.013  0.00  0.00     0.417 C 
HETATM   17  F   UNK N   1      27.676  16.813   9.302  0.00  0.00    -0.166 F 
HETATM   18  F   UNK N   1      28.815  18.690   9.813  0.00  0.00    -0.166 F 
HETATM   19  F   UNK N   1      29.922  16.802   9.302  0.00  0.00    -0.166 F 
ENDBRANCH  12  16
BRANCH  14  20
HETATM   20  C   UNK N   1      30.339  16.941   4.246  0.00  0.00     0.417 C 
HETATM   21  F   UNK N   1      31.543  17.587   4.048  0.00  0.00    -0.166 F 
HETATM   22  F   UNK N   1      29.663  16.868   3.039  0.00  0.00    -0.166 F 
HETATM   23  F   UNK N   1      30.574  15.654   4.695  0.00  0.00    -0.166 F 
ENDBRANCH  14  20
ENDBRANCH   8  10
ENDBRANCH   7   8
ENDBRANCH   1   7
BRANCH   2  24
HETATM   24  C   UNK N   1      25.835  16.434   4.455  0.00  0.00    -0.020 A 
HETATM   25  C   UNK N   1      26.394  15.663   5.489  0.00  0.00     0.012 A 
HETATM   26  C   UNK N   1      27.292  14.628   5.197  0.00  0.00     0.043 A 
HETATM   27  C   UNK N   1      27.626  14.343   3.871  0.00  0.00     0.116 A 
HETATM   28  C   UNK N   1      27.072  15.098   2.837  0.00  0.00     0.043 A 
HETATM   29  F   UNK N   1      28.487  13.338   3.587  0.00  0.00    -0.206 F 
HETATM   30  C   UNK N   1      26.192  16.143   3.128  0.00  0.00     0.012 A 
ENDBRANCH   2  24
BRANCH   6  31
HETATM   31  C   UNK N   1      22.745  16.330   4.407  0.00  0.00     0.351 C 
BRANCH  31  32
HETATM   32  C   UNK N   1      22.203  15.798   3.124  0.00  0.00     0.128 A 
HETATM   33  N   UNK N   1      21.109  16.304   2.517  0.00  0.00    -0.294 N 
HETATM   34  C   UNK N   1      21.131  15.687   1.316  0.00  0.00     0.340 A 
HETATM   35  H   UNK N   1      20.458  16.957   2.863  0.00  0.00     0.172 HD
HETATM   36  N   UNK N   1      22.191  14.857   1.190  0.00  0.00    -0.250 N 
HETATM   37  O   UNK N   1      20.310  15.883   0.438  0.00  0.00    -0.245 OA
HETATM   38  N   UNK N   1      22.867  14.939   2.327  0.00  0.00    -0.283 N 
HETATM   39  H   UNK N   1      22.416  14.300   0.410  0.00  0.00     0.192 HD
ATOM     40  HN  UNK N   1      23.730  14.445   2.555  1.00  0.00     0.188 HD
ENDBRANCH  31  32
ENDBRANCH   6  31
TORSDOF 8
ENDMDL
MODEL 6
REMARK VINA RESULT:      -8.6      5.318      7.744
REMARK  8 active torsions:
REMARK  status: ('A' for Active; 'I' for Inactive)
REMARK    1  A    between atoms: C_1  and  O_14 
REMARK    2  A    between atoms: C_2  and  C_20 
REMARK    3  A    between atoms: C_3  and  C_13 
REMARK    4  A    between atoms: C_5  and  C_10 
REMARK    5  A    between atoms: C_7  and  C_9 
REMARK    6  A    between atoms: C_13  and  O_14 
REMARK    7  A    between atoms: N_19  and  C_27 
REMARK    8  A    between atoms: C_27  and  C_28 
ROOT
HETATM    1  C   UNK N   1      25.696  19.240   4.231  0.00  0.00     0.298 C 
HETATM    2  C   UNK N   1      24.768  18.046   4.540  0.00  0.00     0.311 C 
HETATM    3  O   UNK N   1      25.404  19.808   2.960  0.00  0.00    -0.357 OA
HETATM    4  C   UNK N   1      24.123  20.409   3.005  0.00  0.00     0.201 C 
HETATM    5  C   UNK N   1      23.072  19.449   3.567  0.00  0.00     0.300 C 
HETATM    6  N   UNK N   1      23.640  18.101   3.590  0.00  0.00     0.111 N 
ENDROOT
BRANCH   1   7
HETATM    7  O   UNK N   1      25.636  20.196   5.259  0.00  0.00    -0.349 OA
BRANCH   7   8
HETATM    8  C   UNK N   1      26.958  20.612   5.415  0.00  0.00     0.153 C 
HETATM    9  C   UNK N   1      27.022  21.848   6.304  0.00  0.00     0.045 C 
BRANCH   8  10
HETATM   10  C   UNK N   1      27.864  19.488   5.822  0.00  0.00    -0.028 A 
HETATM   11  C   UNK N   1      27.940  19.100   7.167  0.00  0.00     0.025 A 
HETATM   12  C   UNK N   1      28.733  18.011   7.551  0.00  0.00     0.049 A 
HETATM   13  C   UNK N   1      29.432  17.294   6.569  0.00  0.00     0.032 A 
HETATM   14  C   UNK N   1      29.334  17.660   5.218  0.00  0.00     0.049 A 
HETATM   15  C   UNK N   1      28.555  18.758   4.858  0.00  0.00     0.025 A 
BRANCH  12  16
HETATM   16  C   UNK N   1      28.788  17.603   8.996  0.00  0.00     0.417 C 
HETATM   17  F   UNK N   1      27.649  16.885   9.311  0.00  0.00    -0.166 F 
HETATM   18  F   UNK N   1      28.856  18.724   9.802  0.00  0.00    -0.166 F 
HETATM   19  F   UNK N   1      29.892  16.808   9.249  0.00  0.00    -0.166 F 
ENDBRANCH  12  16
BRANCH  14  20
HETATM   20  C   UNK N   1      30.005  16.848   4.156  0.00  0.00     0.417 C 
HETATM   21  F   UNK N   1      31.278  17.334   3.928  0.00  0.00    -0.166 F 
HETATM   22  F   UNK N   1      29.286  16.893   2.972  0.00  0.00    -0.166 F 
HETATM   23  F   UNK N   1      30.081  15.532   4.574  0.00  0.00    -0.166 F 
ENDBRANCH  14  20
ENDBRANCH   8  10
ENDBRANCH   7   8
ENDBRANCH   1   7
BRANCH   2  24
HETATM   24  C   UNK N   1      25.570  16.756   4.476  0.00  0.00    -0.020 A 
HETATM   25  C   UNK N   1      25.959  16.173   3.258  0.00  0.00     0.012 A 
HETATM   26  C   UNK N   1      26.679  14.972   3.243  0.00  0.00     0.043 A 
HETATM   27  C   UNK N   1      27.031  14.352   4.444  0.00  0.00     0.116 A 
HETATM   28  C   UNK N   1      26.655  14.924   5.658  0.00  0.00     0.043 A 
HETATM   29  F   UNK N   1      27.734  13.194   4.432  0.00  0.00    -0.206 F 
HETATM   30  C   UNK N   1      25.920  16.112   5.674  0.00  0.00     0.012 A 
ENDBRANCH   2  24
BRANCH   6  31
HETATM   31  C   UNK N   1      22.579  17.128   3.788  0.00  0.00     0.351 C 
BRANCH  31  32
HETATM   32  C   UNK N   1      22.151  17.298   5.206  0.00  0.00     0.128 A 
HETATM   33  N   UNK N   1      21.528  18.404   5.663  0.00  0.00    -0.294 N 
HETATM   34  C   UNK N   1      21.138  18.028   6.900  0.00  0.00     0.340 A 
HETATM   35  H   UNK N   1      21.392  19.268   5.210  0.00  0.00     0.172 HD
HETATM   36  N   UNK N   1      21.493  16.754   7.180  0.00  0.00    -0.250 N 
HETATM   37  O   UNK N   1      20.510  18.744   7.660  0.00  0.00    -0.245 OA
HETATM   38  N   UNK N   1      22.122  16.296   6.106  0.00  0.00    -0.283 N 
HETATM   39  H   UNK N   1      21.321  16.262   8.016  0.00  0.00     0.192 HD
ATOM     40  HN  UNK N   1      22.509  15.361   5.984  1.00  0.00     0.188 HD
ENDBRANCH  31  32
ENDBRANCH   6  31
TORSDOF 8
ENDMDL
MODEL 7
REMARK VINA RESULT:      -8.4      7.808     10.236
REMARK  8 active torsions:
REMARK  status: ('A' for Active; 'I' for Inactive)
REMARK    1  A    between atoms: C_1  and  O_14 
REMARK    2  A    between atoms: C_2  and  C_20 
REMARK    3  A    between atoms: C_3  and  C_13 
REMARK    4  A    between atoms: C_5  and  C_10 
REMARK    5  A    between atoms: C_7  and  C_9 
REMARK    6  A    between atoms: C_13  and  O_14 
REMARK    7  A    between atoms: N_19  and  C_27 
REMARK    8  A    between atoms: C_27  and  C_28 
ROOT
HETATM    1  C   UNK N   1      30.613  16.568   7.164  0.00  0.00     0.298 C 
HETATM    2  C   UNK N   1      31.045  16.911   5.723  0.00  0.00     0.311 C 
HETATM    3  O   UNK N   1      31.625  15.840   7.848  0.00  0.00    -0.357 OA
HETATM    4  C   UNK N   1      32.746  16.682   8.047  0.00  0.00     0.201 C 
HETATM    5  C   UNK N   1      33.175  17.364   6.746  0.00  0.00     0.300 C 
HETATM    6  N   UNK N   1      32.501  16.698   5.631  0.00  0.00     0.111 N 
ENDROOT
BRANCH   1   7
HETATM    7  O   UNK N   1      30.239  17.729   7.861  0.00  0.00    -0.349 OA
BRANCH   7   8
HETATM    8  C   UNK N   1      28.927  17.478   8.262  0.00  0.00     0.153 C 
HETATM    9  C   UNK N   1      28.593  18.282   9.512  0.00  0.00     0.045 C 
BRANCH   8  10
HETATM   10  C   UNK N   1      27.950  17.621   7.134  0.00  0.00    -0.028 A 
HETATM   11  C   UNK N   1      27.828  18.845   6.462  0.00  0.00     0.025 A 
HETATM   12  C   UNK N   1      26.965  18.973   5.366  0.00  0.00     0.049 A 
HETATM   13  C   UNK N   1      26.242  17.853   4.929  0.00  0.00     0.032 A 
HETATM   14  C   UNK N   1      26.384  16.619   5.581  0.00  0.00     0.049 A 
HETATM   15  C   UNK N   1      27.233  16.516   6.681  0.00  0.00     0.025 A 
BRANCH  12  16
HETATM   16  C   UNK N   1      26.861  20.290   4.651  0.00  0.00     0.417 C 
HETATM   17  F   UNK N   1      27.522  21.261   5.382  0.00  0.00    -0.166 F 
HETATM   18  F   UNK N   1      25.534  20.651   4.514  0.00  0.00    -0.166 F 
HETATM   19  F   UNK N   1      27.434  20.223   3.392  0.00  0.00    -0.166 F 
ENDBRANCH  12  16
BRANCH  14  20
HETATM   20  C   UNK N   1      25.684  15.400   5.068  0.00  0.00     0.417 C 
HETATM   21  F   UNK N   1      25.594  15.454   3.692  0.00  0.00    -0.166 F 
HETATM   22  F   UNK N   1      24.408  15.304   5.600  0.00  0.00    -0.166 F 
HETATM   23  F   UNK N   1      26.400  14.278   5.441  0.00  0.00    -0.166 F 
ENDBRANCH  14  20
ENDBRANCH   8  10
ENDBRANCH   7   8
ENDBRANCH   1   7
BRANCH   2  24
HETATM   24  C   UNK N   1      30.234  16.078   4.743  0.00  0.00    -0.020 A 
HETATM   25  C   UNK N   1      29.557  16.651   3.651  0.00  0.00     0.012 A 
HETATM   26  C   UNK N   1      28.803  15.850   2.784  0.00  0.00     0.043 A 
HETATM   27  C   UNK N   1      28.732  14.470   2.990  0.00  0.00     0.116 A 
HETATM   28  C   UNK N   1      29.404  13.891   4.065  0.00  0.00     0.043 A 
HETATM   29  F   UNK N   1      28.009  13.693   2.147  0.00  0.00    -0.206 F 
HETATM   30  C   UNK N   1      30.140  14.692   4.942  0.00  0.00     0.012 A 
ENDBRANCH   2  24
BRANCH   6  31
HETATM   31  C   UNK N   1      33.135  17.082   4.381  0.00  0.00     0.351 C 
BRANCH  31  32
HETATM   32  C   UNK N   1      33.575  15.802   3.756  0.00  0.00     0.128 A 
HETATM   33  N   UNK N   1      33.471  15.549   2.434  0.00  0.00    -0.294 N 
HETATM   34  C   UNK N   1      34.181  14.409   2.298  0.00  0.00     0.340 A 
HETATM   35  H   UNK N   1      32.996  16.066   1.743  0.00  0.00     0.172 HD
HETATM   36  N   UNK N   1      34.703  13.992   3.474  0.00  0.00    -0.250 N 
HETATM   37  O   UNK N   1      34.358  13.842   1.235  0.00  0.00    -0.245 OA
HETATM   38  N   UNK N   1      34.327  14.878   4.386  0.00  0.00    -0.283 N 
HETATM   39  H   UNK N   1      35.253  13.189   3.625  0.00  0.00     0.192 HD
ATOM     40  HN  UNK N   1      34.564  14.864   5.377  1.00  0.00     0.188 HD
ENDBRANCH  31  32
ENDBRANCH   6  31
TORSDOF 8
ENDMDL
MODEL 8
REMARK VINA RESULT:      -8.4      4.031      8.120
REMARK  8 active torsions:
REMARK  status: ('A' for Active; 'I' for Inactive)
REMARK    1  A    between atoms: C_1  and  O_14 
REMARK    2  A    between atoms: C_2  and  C_20 
REMARK    3  A    between atoms: C_3  and  C_13 
REMARK    4  A    between atoms: C_5  and  C_10 
REMARK    5  A    between atoms: C_7  and  C_9 
REMARK    6  A    between atoms: C_13  and  O_14 
REMARK    7  A    between atoms: N_19  and  C_27 
REMARK    8  A    between atoms: C_27  and  C_28 
ROOT
HETATM    1  C   UNK N   1      23.591  14.803   6.210  0.00  0.00     0.298 C 
HETATM    2  C   UNK N   1      22.481  14.053   6.975  0.00  0.00     0.311 C 
HETATM    3  O   UNK N   1      24.829  14.750   6.909  0.00  0.00    -0.357 OA
HETATM    4  C   UNK N   1      25.298  13.414   6.915  0.00  0.00     0.201 C 
HETATM    5  C   UNK N   1      24.217  12.441   7.391  0.00  0.00     0.300 C 
HETATM    6  N   UNK N   1      23.133  13.213   7.997  0.00  0.00     0.111 N 
ENDROOT
BRANCH   1   7
HETATM    7  O   UNK N   1      23.707  14.317   4.897  0.00  0.00    -0.349 OA
BRANCH   7   8
HETATM    8  C   UNK N   1      24.052  15.440   4.146  0.00  0.00     0.153 C 
HETATM    9  C   UNK N   1      25.215  15.119   3.217  0.00  0.00     0.045 C 
BRANCH   8  10
HETATM   10  C   UNK N   1      22.862  16.067   3.482  0.00  0.00    -0.028 A 
HETATM   11  C   UNK N   1      22.041  15.301   2.645  0.00  0.00     0.025 A 
HETATM   12  C   UNK N   1      20.891  15.858   2.070  0.00  0.00     0.049 A 
HETATM   13  C   UNK N   1      20.554  17.187   2.364  0.00  0.00     0.032 A 
HETATM   14  C   UNK N   1      21.357  17.948   3.226  0.00  0.00     0.049 A 
HETATM   15  C   UNK N   1      22.508  17.383   3.773  0.00  0.00     0.025 A 
BRANCH  12  16
HETATM   16  C   UNK N   1      20.017  15.014   1.187  0.00  0.00     0.417 C 
HETATM   17  F   UNK N   1      20.795  14.070   0.541  0.00  0.00    -0.166 F 
HETATM   18  F   UNK N   1      19.390  15.807   0.244  0.00  0.00    -0.166 F 
HETATM   19  F   UNK N   1      19.049  14.354   1.924  0.00  0.00    -0.166 F 
ENDBRANCH  12  16
BRANCH  14  20
HETATM   20  C   UNK N   1      20.959  19.337   3.614  0.00  0.00     0.417 C 
HETATM   21  F   UNK N   1      20.988  19.468   4.988  0.00  0.00    -0.166 F 
HETATM   22  F   UNK N   1      19.683  19.629   3.160  0.00  0.00    -0.166 F 
HETATM   23  F   UNK N   1      21.843  20.236   3.046  0.00  0.00    -0.166 F 
ENDBRANCH  14  20
ENDBRANCH   8  10
ENDBRANCH   7   8
ENDBRANCH   1   7
BRANCH   2  24
HETATM   24  C   UNK N   1      21.490  15.059   7.540  0.00  0.00    -0.020 A 
HETATM   25  C   UNK N   1      20.588  14.730   8.565  0.00  0.00     0.012 A 
HETATM   26  C   UNK N   1      19.677  15.681   9.042  0.00  0.00     0.043 A 
HETATM   27  C   UNK N   1      19.671  16.973   8.511  0.00  0.00     0.116 A 
HETATM   28  C   UNK N   1      20.566  17.312   7.498  0.00  0.00     0.043 A 
HETATM   29  F   UNK N   1      18.797  17.897   8.978  0.00  0.00    -0.206 F 
HETATM   30  C   UNK N   1      21.462  16.359   7.008  0.00  0.00     0.012 A 
ENDBRANCH   2  24
BRANCH   6  31
HETATM   31  C   UNK N   1      22.267  12.325   8.755  0.00  0.00     0.351 C 
BRANCH  31  32
HETATM   32  C   UNK N   1      22.776  12.384  10.155  0.00  0.00     0.128 A 
HETATM   33  N   UNK N   1      22.137  11.815  11.199  0.00  0.00    -0.294 N 
HETATM   34  C   UNK N   1      23.049  11.919  12.189  0.00  0.00     0.340 A 
HETATM   35  H   UNK N   1      21.235  11.423  11.230  0.00  0.00     0.172 HD
HETATM   36  N   UNK N   1      24.190  12.510  11.770  0.00  0.00    -0.250 N 
HETATM   37  O   UNK N   1      22.874  11.498  13.319  0.00  0.00    -0.245 OA
HETATM   38  N   UNK N   1      24.017  12.792  10.487  0.00  0.00    -0.283 N 
HETATM   39  H   UNK N   1      24.992  12.697  12.311  0.00  0.00     0.192 HD
ATOM     40  HN  UNK N   1      24.695  13.232   9.866  1.00  0.00     0.188 HD
ENDBRANCH  31  32
ENDBRANCH   6  31
TORSDOF 8
ENDMDL
MODEL 9
REMARK VINA RESULT:      -8.3      6.811      9.985
REMARK  8 active torsions:
REMARK  status: ('A' for Active; 'I' for Inactive)
REMARK    1  A    between atoms: C_1  and  O_14 
REMARK    2  A    between atoms: C_2  and  C_20 
REMARK    3  A    between atoms: C_3  and  C_13 
REMARK    4  A    between atoms: C_5  and  C_10 
REMARK    5  A    between atoms: C_7  and  C_9 
REMARK    6  A    between atoms: C_13  and  O_14 
REMARK    7  A    between atoms: N_19  and  C_27 
REMARK    8  A    between atoms: C_27  and  C_28 
ROOT
HETATM    1  C   UNK N   1      29.605  16.430   4.376  0.00  0.00     0.298 C 
HETATM    2  C   UNK N   1      29.421  16.828   5.855  0.00  0.00     0.311 C 
HETATM    3  O   UNK N   1      30.971  16.494   3.987  0.00  0.00    -0.357 OA
HETATM    4  C   UNK N   1      31.695  15.490   4.676  0.00  0.00     0.201 C 
HETATM    5  C   UNK N   1      31.423  15.535   6.181  0.00  0.00     0.300 C 
HETATM    6  N   UNK N   1      30.750  16.795   6.494  0.00  0.00     0.111 N 
ENDROOT
BRANCH   1   7
HETATM    7  O   UNK N   1      29.048  15.164   4.128  0.00  0.00    -0.349 OA
BRANCH   7   8
HETATM    8  C   UNK N   1      28.474  15.285   2.863  0.00  0.00     0.153 C 
HETATM    9  C   UNK N   1      29.038  14.228   1.923  0.00  0.00     0.045 C 
BRANCH   8  10
HETATM   10  C   UNK N   1      26.977  15.350   2.921  0.00  0.00    -0.028 A 
HETATM   11  C   UNK N   1      26.346  16.380   3.632  0.00  0.00     0.025 A 
HETATM   12  C   UNK N   1      24.950  16.489   3.642  0.00  0.00     0.049 A 
HETATM   13  C   UNK N   1      24.187  15.569   2.906  0.00  0.00     0.032 A 
HETATM   14  C   UNK N   1      24.816  14.556   2.168  0.00  0.00     0.049 A 
HETATM   15  C   UNK N   1      26.205  14.452   2.187  0.00  0.00     0.025 A 
BRANCH  12  16
HETATM   16  C   UNK N   1      24.295  17.609   4.399  0.00  0.00     0.417 C 
HETATM   17  F   UNK N   1      23.877  18.580   3.506  0.00  0.00    -0.166 F 
HETATM   18  F   UNK N   1      25.193  18.167   5.289  0.00  0.00    -0.166 F 
HETATM   19  F   UNK N   1      23.193  17.159   5.105  0.00  0.00    -0.166 F 
ENDBRANCH  12  16
BRANCH  14  20
HETATM   20  C   UNK N   1      24.015  13.625   1.312  0.00  0.00     0.417 C 
HETATM   21  F   UNK N   1      23.894  14.146   0.039  0.00  0.00    -0.166 F 
HETATM   22  F   UNK N   1      22.750  13.432   1.843  0.00  0.00    -0.166 F 
HETATM   23  F   UNK N   1      24.657  12.402   1.252  0.00  0.00    -0.166 F 
ENDBRANCH  14  20
ENDBRANCH   8  10
ENDBRANCH   7   8
ENDBRANCH   1   7
BRANCH   2  24
HETATM   24  C   UNK N   1      28.731  18.181   5.930  0.00  0.00    -0.020 A 
HETATM   25  C   UNK N   1      28.235  18.705   7.136  0.00  0.00     0.012 A 
HETATM   26  C   UNK N   1      27.587  19.946   7.158  0.00  0.00     0.043 A 
HETATM   27  C   UNK N   1      27.442  20.682   5.978  0.00  0.00     0.116 A 
HETATM   28  C   UNK N   1      27.936  20.174   4.778  0.00  0.00     0.043 A 
HETATM   29  F   UNK N   1      26.822  21.886   5.999  0.00  0.00    -0.206 F 
HETATM   30  C   UNK N   1      28.565  18.927   4.752  0.00  0.00     0.012 A 
ENDBRANCH   2  24
BRANCH   6  31
HETATM   31  C   UNK N   1      30.786  17.023   7.929  0.00  0.00     0.351 C 
BRANCH  31  32
HETATM   32  C   UNK N   1      32.222  17.256   8.252  0.00  0.00     0.128 A 
HETATM   33  N   UNK N   1      32.953  18.248   7.702  0.00  0.00    -0.294 N 
HETATM   34  C   UNK N   1      34.084  18.220   8.438  0.00  0.00     0.340 A 
HETATM   35  H   UNK N   1      32.720  18.843   6.953  0.00  0.00     0.172 HD
HETATM   36  N   UNK N   1      34.043  17.267   9.397  0.00  0.00    -0.250 N 
HETATM   37  O   UNK N   1      35.018  18.985   8.278  0.00  0.00    -0.245 OA
HETATM   38  N   UNK N   1      32.865  16.671   9.282  0.00  0.00    -0.283 N 
HETATM   39  H   UNK N   1      34.748  17.056  10.052  0.00  0.00     0.192 HD
ATOM     40  HN  UNK N   1      32.510  15.913   9.864  1.00  0.00     0.188 HD
ENDBRANCH  31  32
ENDBRANCH   6  31
TORSDOF 8
ENDMDL
