MODEL 1
REMARK VINA RESULT:      -6.8      0.000      0.000
REMARK  19 active torsions:
REMARK  status: ('A' for Active; 'I' for Inactive)
REMARK    1  A    between atoms: C_18  and  O_3 
REMARK    2  A    between atoms: O_5  and  C_31 
REMARK    3  A    between atoms: O_5  and  C_43 
REMARK    4  A    between atoms: C_16  and  N_8 
REMARK       I    between atoms: N_8  and  C_24 
REMARK    5  A    between atoms: C_19  and  N_9 
REMARK       I    between atoms: N_9  and  C_31 
REMARK    6  A    between atoms: C_22  and  N_10 
REMARK       I    between atoms: N_10  and  C_34 
REMARK       I    between atoms: N_11  and  C_34 
REMARK    7  A    between atoms: N_11  and  C_41 
REMARK    8  A    between atoms: C_16  and  C_17 
REMARK    9  A    between atoms: C_16  and  C_20 
REMARK   10  A    between atoms: C_17  and  C_18 
REMARK   11  A    between atoms: C_18  and  C_19 
REMARK   12  A    between atoms: C_19  and  C_21 
REMARK   13  A    between atoms: C_20  and  C_25 
REMARK   14  A    between atoms: C_21  and  C_26 
REMARK   15  A    between atoms: C_22  and  C_23 
REMARK   16  A    between atoms: C_22  and  C_24 
REMARK   17  A    between atoms: C_41  and  C_44 
REMARK   18  A    between atoms: C_43  and  C_45 
REMARK   19  A    between atoms: C_46  and  C_48 
ROOT
HETATM    1  C   UNK N   1      26.311  25.038  -5.377  0.00  0.00     0.091 C 
ENDROOT
BRANCH   1   2
HETATM    2  N   UNK N   1      25.537  23.852  -5.646  0.00  0.00    -0.354 N 
HETATM    3  C   UNK N   1      25.512  22.982  -6.683  0.00  0.00     0.241 C 
HETATM    4  O   UNK N   1      24.607  22.168  -6.681  0.00  0.00    -0.271 OA
HETATM    5  H   UNK N   1      24.898  23.629  -4.931  0.00  0.00     0.162 HD
BRANCH   3   6
HETATM    6  C   UNK N   1      26.528  22.898  -7.825  0.00  0.00     0.181 C 
BRANCH   6   7
HETATM    7  N   UNK N   1      27.729  22.218  -7.382  0.00  0.00    -0.329 N 
HETATM    8  C   UNK N   1      28.108  21.028  -7.917  0.00  0.00     0.319 C 
HETATM    9  O   UNK N   1      27.493  20.553  -8.866  0.00  0.00    -0.247 OA
HETATM   10  N   UNK N   1      29.136  20.326  -7.389  0.00  0.00    -0.333 N 
HETATM   11  C   UNK N   1      29.388  18.981  -7.867  0.00  0.00     0.154 C 
HETATM   12  H   UNK N   1      28.281  22.627  -6.677  0.00  0.00     0.165 HD
BRANCH  10  13
HETATM   13  C   UNK N   1      29.994  20.912  -6.373  0.00  0.00     0.184 C 
BRANCH  13  14
HETATM   14  C   UNK N   1      31.017  21.742  -7.068  0.00  0.00     0.034 A 
HETATM   15  N   UNK N   1      30.962  23.120  -7.011  0.00  0.00    -0.355 N 
HETATM   16  C   UNK N   1      31.771  23.704  -7.920  0.00  0.00     0.054 A 
ATOM     17  HN  UNK N   1      30.377  23.637  -6.356  1.00  0.00     0.166 HD
HETATM   18  S   UNK N   1      32.552  22.523  -8.777  0.00  0.00    -0.086 SA
HETATM   19  C   UNK N   1      31.877  21.201  -8.037  0.00  0.00     0.078 A 
BRANCH  16  20
HETATM   20  C   UNK N   1      31.788  25.181  -8.164  0.00  0.00     0.035 C 
HETATM   21  C   UNK N   1      31.412  25.551  -9.587  0.00  0.00     0.016 C 
HETATM   22  C   UNK N   1      33.139  25.767  -7.811  0.00  0.00     0.016 C 
ENDBRANCH  16  20
ENDBRANCH  13  14
ENDBRANCH  10  13
ENDBRANCH   6   7
BRANCH   6  23
HETATM   23  C   UNK N   1      26.798  24.072  -8.782  0.00  0.00     0.009 C 
HETATM   24  C   UNK N   1      27.916  24.949  -8.256  0.00  0.00     0.012 C 
HETATM   25  C   UNK N   1      25.580  24.977  -8.863  0.00  0.00     0.012 C 
ENDBRANCH   6  23
ENDBRANCH   3   6
ENDBRANCH   1   2
BRANCH   1  26
HETATM   26  C   UNK N   1      26.744  25.014  -3.895  0.00  0.00     0.059 C 
BRANCH  26  27
HETATM   27  C   UNK N   1      27.835  23.968  -3.575  0.00  0.00     0.143 C 
BRANCH  27  28
HETATM   28  O   UNK N   1      27.601  23.413  -2.317  0.00  0.00    -0.393 OA
HETATM   29  H   UNK N   1      28.181  23.607  -1.564  0.00  0.00     0.210 HD
ENDBRANCH  27  28
BRANCH  27  30
HETATM   30  C   UNK N   1      29.288  24.482  -3.676  0.00  0.00     0.119 C 
BRANCH  30  31
HETATM   31  N   UNK N   1      30.311  23.440  -3.605  0.00  0.00    -0.329 N 
HETATM   32  C   UNK N   1      30.757  22.864  -2.455  0.00  0.00     0.361 C 
HETATM   33  O   UNK N   1      30.322  23.223  -1.375  0.00  0.00    -0.238 OA
HETATM   34  H   UNK N   1      30.707  23.132  -4.453  0.00  0.00     0.165 HD
BRANCH  32  35
HETATM   35  O   UNK N   1      31.648  21.846  -2.480  0.00  0.00    -0.299 OA
BRANCH  35  36
HETATM   36  C   UNK N   1      31.758  20.924  -3.494  0.00  0.00     0.228 C 
BRANCH  36  37
HETATM   37  C   UNK N   1      33.172  20.971  -3.973  0.00  0.00     0.023 A 
HETATM   38  S   UNK N   1      33.920  22.205  -4.765  0.00  0.00    -0.086 SA
HETATM   39  C   UNK N   1      35.440  21.551  -4.829  0.00  0.00     0.138 A 
HETATM   40  N   UNK N   1      35.400  20.331  -4.226  0.00  0.00    -0.368 N 
HETATM   41  C   UNK N   1      34.151  19.998  -3.747  0.00  0.00     0.104 A 
ATOM     42  HN  UNK N   1      36.215  19.723  -4.138  1.00  0.00     0.165 HD
ENDBRANCH  36  37
ENDBRANCH  35  36
ENDBRANCH  32  35
ENDBRANCH  30  31
BRANCH  30  43
HETATM   43  C   UNK N   1      29.477  25.458  -4.848  0.00  0.00     0.066 C 
BRANCH  43  44
HETATM   44  C   UNK N   1      30.055  26.780  -4.451  0.00  0.00    -0.056 A 
HETATM   45  C   UNK N   1      30.982  27.415  -5.287  0.00  0.00     0.007 A 
HETATM   46  C   UNK N   1      31.498  28.665  -4.945  0.00  0.00     0.001 A 
HETATM   47  C   UNK N   1      31.081  29.292  -3.768  0.00  0.00     0.000 A 
HETATM   48  C   UNK N   1      30.146  28.668  -2.937  0.00  0.00     0.001 A 
HETATM   49  C   UNK N   1      29.629  27.413  -3.280  0.00  0.00     0.007 A 
ENDBRANCH  43  44
ENDBRANCH  30  43
ENDBRANCH  27  30
ENDBRANCH  26  27
ENDBRANCH   1  26
BRANCH   1  50
HETATM   50  C   UNK N   1      25.487  26.308  -5.644  0.00  0.00     0.063 C 
BRANCH  50  51
HETATM   51  C   UNK N   1      26.230  27.626  -5.598  0.00  0.00    -0.056 A 
HETATM   52  C   UNK N   1      26.072  28.481  -4.505  0.00  0.00     0.007 A 
HETATM   53  C   UNK N   1      26.845  29.646  -4.412  0.00  0.00     0.001 A 
HETATM   54  C   UNK N   1      27.781  29.956  -5.405  0.00  0.00     0.000 A 
HETATM   55  C   UNK N   1      27.946  29.106  -6.495  0.00  0.00     0.001 A 
HETATM   56  C   UNK N   1      27.182  27.947  -6.578  0.00  0.00     0.007 A 
ENDBRANCH  50  51
ENDBRANCH   1  50
TORSDOF 19
ENDMDL
MODEL 2
REMARK VINA RESULT:      -6.8     13.571     16.796
REMARK  19 active torsions:
REMARK  status: ('A' for Active; 'I' for Inactive)
REMARK    1  A    between atoms: C_18  and  O_3 
REMARK    2  A    between atoms: O_5  and  C_31 
REMARK    3  A    between atoms: O_5  and  C_43 
REMARK    4  A    between atoms: C_16  and  N_8 
REMARK       I    between atoms: N_8  and  C_24 
REMARK    5  A    between atoms: C_19  and  N_9 
REMARK       I    between atoms: N_9  and  C_31 
REMARK    6  A    between atoms: C_22  and  N_10 
REMARK       I    between atoms: N_10  and  C_34 
REMARK       I    between atoms: N_11  and  C_34 
REMARK    7  A    between atoms: N_11  and  C_41 
REMARK    8  A    between atoms: C_16  and  C_17 
REMARK    9  A    between atoms: C_16  and  C_20 
REMARK   10  A    between atoms: C_17  and  C_18 
REMARK   11  A    between atoms: C_18  and  C_19 
REMARK   12  A    between atoms: C_19  and  C_21 
REMARK   13  A    between atoms: C_20  and  C_25 
REMARK   14  A    between atoms: C_21  and  C_26 
REMARK   15  A    between atoms: C_22  and  C_23 
REMARK   16  A    between atoms: C_22  and  C_24 
REMARK   17  A    between atoms: C_41  and  C_44 
REMARK   18  A    between atoms: C_43  and  C_45 
REMARK   19  A    between atoms: C_46  and  C_48 
ROOT
HETATM    1  C   UNK N   1      29.924  16.916   6.630  0.00  0.00     0.091 C 
ENDROOT
BRANCH   1   2
HETATM    2  N   UNK N   1      29.850  15.564   6.136  0.00  0.00    -0.354 N 
HETATM    3  C   UNK N   1      28.953  14.914   5.357  0.00  0.00     0.241 C 
HETATM    4  O   UNK N   1      29.095  13.709   5.264  0.00  0.00    -0.271 OA
HETATM    5  H   UNK N   1      30.604  14.999   6.421  0.00  0.00     0.162 HD
BRANCH   3   6
HETATM    6  C   UNK N   1      27.813  15.550   4.557  0.00  0.00     0.181 C 
BRANCH   6   7
HETATM    7  N   UNK N   1      26.550  14.929   4.898  0.00  0.00    -0.329 N 
HETATM    8  C   UNK N   1      25.455  15.672   5.212  0.00  0.00     0.319 C 
HETATM    9  O   UNK N   1      25.489  16.894   5.111  0.00  0.00    -0.247 OA
HETATM   10  N   UNK N   1      24.332  15.086   5.683  0.00  0.00    -0.333 N 
HETATM   11  C   UNK N   1      23.259  15.924   6.181  0.00  0.00     0.154 C 
HETATM   12  H   UNK N   1      26.483  13.947   4.905  0.00  0.00     0.165 HD
BRANCH  10  13
HETATM   13  C   UNK N   1      24.184  13.641   5.673  0.00  0.00     0.184 C 
BRANCH  13  14
HETATM   14  C   UNK N   1      24.122  13.182   7.089  0.00  0.00     0.034 A 
HETATM   15  N   UNK N   1      22.918  12.822   7.660  0.00  0.00    -0.355 N 
HETATM   16  C   UNK N   1      22.998  12.719   9.003  0.00  0.00     0.054 A 
ATOM     17  HN  UNK N   1      22.066  12.653   7.126  1.00  0.00     0.166 HD
HETATM   18  S   UNK N   1      24.548  13.062   9.474  0.00  0.00    -0.086 SA
HETATM   19  C   UNK N   1      25.190  13.378   7.979  0.00  0.00     0.078 A 
BRANCH  16  20
HETATM   20  C   UNK N   1      21.803  12.486   9.874  0.00  0.00     0.035 C 
HETATM   21  C   UNK N   1      20.839  13.658   9.885  0.00  0.00     0.016 C 
HETATM   22  C   UNK N   1      22.227  12.145  11.287  0.00  0.00     0.016 C 
ENDBRANCH  16  20
ENDBRANCH  13  14
ENDBRANCH  10  13
ENDBRANCH   6   7
BRANCH   6  23
HETATM   23  C   UNK N   1      27.946  15.906   3.066  0.00  0.00     0.009 C 
HETATM   24  C   UNK N   1      27.547  14.733   2.195  0.00  0.00     0.012 C 
HETATM   25  C   UNK N   1      29.398  16.191   2.719  0.00  0.00     0.012 C 
ENDBRANCH   6  23
ENDBRANCH   3   6
ENDBRANCH   1   2
BRANCH   1  26
HETATM   26  C   UNK N   1      30.849  16.935   7.867  0.00  0.00     0.059 C 
BRANCH  26  27
HETATM   27  C   UNK N   1      32.129  16.082   7.707  0.00  0.00     0.143 C 
BRANCH  27  28
HETATM   28  O   UNK N   1      31.919  14.813   8.247  0.00  0.00    -0.393 OA
HETATM   29  H   UNK N   1      31.331  14.679   9.008  0.00  0.00     0.210 HD
ENDBRANCH  27  28
BRANCH  27  30
HETATM   30  C   UNK N   1      33.413  16.710   8.291  0.00  0.00     0.119 C 
BRANCH  30  31
HETATM   31  N   UNK N   1      34.051  15.926   9.347  0.00  0.00    -0.329 N 
HETATM   32  C   UNK N   1      34.966  16.410  10.232  0.00  0.00     0.361 C 
HETATM   33  O   UNK N   1      35.335  17.569  10.166  0.00  0.00    -0.238 OA
HETATM   34  H   UNK N   1      33.799  14.977   9.426  0.00  0.00     0.165 HD
BRANCH  32  35
HETATM   35  O   UNK N   1      35.448  15.640  11.234  0.00  0.00    -0.299 OA
BRANCH  35  36
HETATM   36  C   UNK N   1      35.096  14.330  11.456  0.00  0.00     0.228 C 
BRANCH  36  37
HETATM   37  C   UNK N   1      35.709  13.928  12.757  0.00  0.00     0.023 A 
HETATM   38  S   UNK N   1      35.816  12.411  13.387  0.00  0.00    -0.086 SA
HETATM   39  C   UNK N   1      36.702  12.781  14.735  0.00  0.00     0.138 A 
HETATM   40  N   UNK N   1      36.939  14.122  14.729  0.00  0.00    -0.368 N 
HETATM   41  C   UNK N   1      36.396  14.769  13.639  0.00  0.00     0.104 A 
ATOM     42  HN  UNK N   1      37.466  14.601  15.460  1.00  0.00     0.165 HD
ENDBRANCH  36  37
ENDBRANCH  35  36
ENDBRANCH  32  35
ENDBRANCH  30  31
BRANCH  30  43
HETATM   43  C   UNK N   1      34.382  17.174   7.192  0.00  0.00     0.066 C 
BRANCH  43  44
HETATM   44  C   UNK N   1      33.964  16.783   5.809  0.00  0.00    -0.056 A 
HETATM   45  C   UNK N   1      34.292  15.515   5.312  0.00  0.00     0.007 A 
HETATM   46  C   UNK N   1      33.874  15.128   4.039  0.00  0.00     0.001 A 
HETATM   47  C   UNK N   1      33.116  16.004   3.258  0.00  0.00     0.000 A 
HETATM   48  C   UNK N   1      32.776  17.266   3.755  0.00  0.00     0.001 A 
HETATM   49  C   UNK N   1      33.195  17.655   5.032  0.00  0.00     0.007 A 
ENDBRANCH  43  44
ENDBRANCH  30  43
ENDBRANCH  27  30
ENDBRANCH  26  27
ENDBRANCH   1  26
BRANCH   1  50
HETATM   50  C   UNK N   1      28.533  17.435   7.030  0.00  0.00     0.063 C 
BRANCH  50  51
HETATM   51  C   UNK N   1      28.108  18.767   6.449  0.00  0.00    -0.056 A 
HETATM   52  C   UNK N   1      28.215  18.997   5.076  0.00  0.00     0.007 A 
HETATM   53  C   UNK N   1      27.717  20.186   4.527  0.00  0.00     0.001 A 
HETATM   54  C   UNK N   1      27.107  21.143   5.345  0.00  0.00     0.000 A 
HETATM   55  C   UNK N   1      26.995  20.918   6.714  0.00  0.00     0.001 A 
HETATM   56  C   UNK N   1      27.483  19.733   7.252  0.00  0.00     0.007 A 
ENDBRANCH  50  51
ENDBRANCH   1  50
TORSDOF 19
ENDMDL
MODEL 3
REMARK VINA RESULT:      -6.8      1.222      2.164
REMARK  19 active torsions:
REMARK  status: ('A' for Active; 'I' for Inactive)
REMARK    1  A    between atoms: C_18  and  O_3 
REMARK    2  A    between atoms: O_5  and  C_31 
REMARK    3  A    between atoms: O_5  and  C_43 
REMARK    4  A    between atoms: C_16  and  N_8 
REMARK       I    between atoms: N_8  and  C_24 
REMARK    5  A    between atoms: C_19  and  N_9 
REMARK       I    between atoms: N_9  and  C_31 
REMARK    6  A    between atoms: C_22  and  N_10 
REMARK       I    between atoms: N_10  and  C_34 
REMARK       I    between atoms: N_11  and  C_34 
REMARK    7  A    between atoms: N_11  and  C_41 
REMARK    8  A    between atoms: C_16  and  C_17 
REMARK    9  A    between atoms: C_16  and  C_20 
REMARK   10  A    between atoms: C_17  and  C_18 
REMARK   11  A    between atoms: C_18  and  C_19 
REMARK   12  A    between atoms: C_19  and  C_21 
REMARK   13  A    between atoms: C_20  and  C_25 
REMARK   14  A    between atoms: C_21  and  C_26 
REMARK   15  A    between atoms: C_22  and  C_23 
REMARK   16  A    between atoms: C_22  and  C_24 
REMARK   17  A    between atoms: C_41  and  C_44 
REMARK   18  A    between atoms: C_43  and  C_45 
REMARK   19  A    between atoms: C_46  and  C_48 
ROOT
HETATM    1  C   UNK N   1      26.268  25.018  -5.269  0.00  0.00     0.091 C 
ENDROOT
BRANCH   1   2
HETATM    2  N   UNK N   1      25.586  23.815  -5.674  0.00  0.00    -0.354 N 
HETATM    3  C   UNK N   1      25.640  23.057  -6.795  0.00  0.00     0.241 C 
HETATM    4  O   UNK N   1      24.796  22.185  -6.896  0.00  0.00    -0.271 OA
HETATM    5  H   UNK N   1      24.954  23.475  -5.000  0.00  0.00     0.162 HD
BRANCH   3   6
HETATM    6  C   UNK N   1      26.676  23.163  -7.917  0.00  0.00     0.181 C 
BRANCH   6   7
HETATM    7  N   UNK N   1      27.859  22.395  -7.584  0.00  0.00    -0.329 N 
HETATM    8  C   UNK N   1      28.011  21.110  -8.002  0.00  0.00     0.319 C 
HETATM    9  O   UNK N   1      27.190  20.607  -8.762  0.00  0.00    -0.247 OA
HETATM   10  N   UNK N   1      29.037  20.353  -7.555  0.00  0.00    -0.333 N 
HETATM   11  C   UNK N   1      29.058  18.939  -7.875  0.00  0.00     0.154 C 
HETATM   12  H   UNK N   1      28.567  22.812  -7.042  0.00  0.00     0.165 HD
BRANCH  10  13
HETATM   13  C   UNK N   1      30.118  20.942  -6.785  0.00  0.00     0.184 C 
BRANCH  13  14
HETATM   14  C   UNK N   1      31.393  20.666  -7.507  0.00  0.00     0.034 A 
HETATM   15  N   UNK N   1      32.272  19.709  -7.041  0.00  0.00    -0.355 N 
HETATM   16  C   UNK N   1      33.482  19.796  -7.631  0.00  0.00     0.054 A 
ATOM     17  HN  UNK N   1      32.032  19.016  -6.333  1.00  0.00     0.166 HD
HETATM   18  S   UNK N   1      33.458  21.039  -8.723  0.00  0.00    -0.086 SA
HETATM   19  C   UNK N   1      31.897  21.542  -8.481  0.00  0.00     0.078 A 
BRANCH  16  20
HETATM   20  C   UNK N   1      34.657  18.971  -7.202  0.00  0.00     0.035 C 
HETATM   21  C   UNK N   1      35.988  19.591  -7.586  0.00  0.00     0.016 C 
HETATM   22  C   UNK N   1      34.556  17.565  -7.756  0.00  0.00     0.016 C 
ENDBRANCH  16  20
ENDBRANCH  13  14
ENDBRANCH  10  13
ENDBRANCH   6   7
BRANCH   6  23
HETATM   23  C   UNK N   1      26.980  24.486  -8.641  0.00  0.00     0.009 C 
HETATM   24  C   UNK N   1      25.702  25.140  -9.126  0.00  0.00     0.012 C 
HETATM   25  C   UNK N   1      27.800  24.226  -9.894  0.00  0.00     0.012 C 
ENDBRANCH   6  23
ENDBRANCH   3   6
ENDBRANCH   1   2
BRANCH   1  26
HETATM   26  C   UNK N   1      26.526  24.946  -3.748  0.00  0.00     0.059 C 
BRANCH  26  27
HETATM   27  C   UNK N   1      27.632  23.944  -3.346  0.00  0.00     0.143 C 
BRANCH  27  28
HETATM   28  O   UNK N   1      27.376  23.449  -2.068  0.00  0.00    -0.393 OA
HETATM   29  H   UNK N   1      27.768  22.615  -1.761  0.00  0.00     0.210 HD
ENDBRANCH  27  28
BRANCH  27  30
HETATM   30  C   UNK N   1      29.075  24.488  -3.435  0.00  0.00     0.119 C 
BRANCH  30  31
HETATM   31  N   UNK N   1      30.114  23.460  -3.467  0.00  0.00    -0.329 N 
HETATM   32  C   UNK N   1      30.637  22.847  -2.369  0.00  0.00     0.361 C 
HETATM   33  O   UNK N   1      30.264  23.158  -1.252  0.00  0.00    -0.238 OA
HETATM   34  H   UNK N   1      30.462  23.191  -4.348  0.00  0.00     0.165 HD
BRANCH  32  35
HETATM   35  O   UNK N   1      31.538  21.845  -2.488  0.00  0.00    -0.299 OA
BRANCH  35  36
HETATM   36  C   UNK N   1      31.738  21.100  -3.626  0.00  0.00     0.228 C 
BRANCH  36  37
HETATM   37  C   UNK N   1      33.172  21.264  -4.008  0.00  0.00     0.023 A 
HETATM   38  S   UNK N   1      33.816  22.399  -5.013  0.00  0.00    -0.086 SA
HETATM   39  C   UNK N   1      35.411  21.997  -4.823  0.00  0.00     0.138 A 
HETATM   40  N   UNK N   1      35.482  20.947  -3.959  0.00  0.00    -0.368 N 
HETATM   41  C   UNK N   1      34.250  20.532  -3.499  0.00  0.00     0.104 A 
ATOM     42  HN  UNK N   1      36.360  20.510  -3.679  1.00  0.00     0.165 HD
ENDBRANCH  36  37
ENDBRANCH  35  36
ENDBRANCH  32  35
ENDBRANCH  30  31
BRANCH  30  43
HETATM   43  C   UNK N   1      29.225  25.555  -4.530  0.00  0.00     0.066 C 
BRANCH  43  44
HETATM   44  C   UNK N   1      30.158  26.669  -4.169  0.00  0.00    -0.056 A 
HETATM   45  C   UNK N   1      31.469  26.669  -4.664  0.00  0.00     0.007 A 
HETATM   46  C   UNK N   1      32.335  27.722  -4.366  0.00  0.00     0.001 A 
HETATM   47  C   UNK N   1      31.890  28.786  -3.577  0.00  0.00     0.000 A 
HETATM   48  C   UNK N   1      30.579  28.796  -3.091  0.00  0.00     0.001 A 
HETATM   49  C   UNK N   1      29.711  27.740  -3.390  0.00  0.00     0.007 A 
ENDBRANCH  43  44
ENDBRANCH  30  43
ENDBRANCH  27  30
ENDBRANCH  26  27
ENDBRANCH   1  26
BRANCH   1  50
HETATM   50  C   UNK N   1      25.422  26.264  -5.580  0.00  0.00     0.063 C 
BRANCH  50  51
HETATM   51  C   UNK N   1      26.112  27.606  -5.460  0.00  0.00    -0.056 A 
HETATM   52  C   UNK N   1      25.860  28.426  -4.358  0.00  0.00     0.007 A 
HETATM   53  C   UNK N   1      26.584  29.614  -4.193  0.00  0.00     0.001 A 
HETATM   54  C   UNK N   1      27.564  29.983  -5.121  0.00  0.00     0.000 A 
HETATM   55  C   UNK N   1      27.821  29.168  -6.220  0.00  0.00     0.001 A 
HETATM   56  C   UNK N   1      27.106  27.986  -6.375  0.00  0.00     0.007 A 
ENDBRANCH  50  51
ENDBRANCH   1  50
TORSDOF 19
ENDMDL
MODEL 4
REMARK VINA RESULT:      -6.7      1.763      2.978
REMARK  19 active torsions:
REMARK  status: ('A' for Active; 'I' for Inactive)
REMARK    1  A    between atoms: C_18  and  O_3 
REMARK    2  A    between atoms: O_5  and  C_31 
REMARK    3  A    between atoms: O_5  and  C_43 
REMARK    4  A    between atoms: C_16  and  N_8 
REMARK       I    between atoms: N_8  and  C_24 
REMARK    5  A    between atoms: C_19  and  N_9 
REMARK       I    between atoms: N_9  and  C_31 
REMARK    6  A    between atoms: C_22  and  N_10 
REMARK       I    between atoms: N_10  and  C_34 
REMARK       I    between atoms: N_11  and  C_34 
REMARK    7  A    between atoms: N_11  and  C_41 
REMARK    8  A    between atoms: C_16  and  C_17 
REMARK    9  A    between atoms: C_16  and  C_20 
REMARK   10  A    between atoms: C_17  and  C_18 
REMARK   11  A    between atoms: C_18  and  C_19 
REMARK   12  A    between atoms: C_19  and  C_21 
REMARK   13  A    between atoms: C_20  and  C_25 
REMARK   14  A    between atoms: C_21  and  C_26 
REMARK   15  A    between atoms: C_22  and  C_23 
REMARK   16  A    between atoms: C_22  and  C_24 
REMARK   17  A    between atoms: C_41  and  C_44 
REMARK   18  A    between atoms: C_43  and  C_45 
REMARK   19  A    between atoms: C_46  and  C_48 
ROOT
HETATM    1  C   UNK N   1      26.379  25.270  -5.353  0.00  0.00     0.091 C 
ENDROOT
BRANCH   1   2
HETATM    2  N   UNK N   1      25.731  24.075  -5.834  0.00  0.00    -0.354 N 
HETATM    3  C   UNK N   1      25.417  23.633  -7.075  0.00  0.00     0.241 C 
HETATM    4  O   UNK N   1      24.706  22.646  -7.130  0.00  0.00    -0.271 OA
HETATM    5  H   UNK N   1      25.464  23.456  -5.117  0.00  0.00     0.162 HD
BRANCH   3   6
HETATM    6  C   UNK N   1      25.900  24.225  -8.402  0.00  0.00     0.181 C 
BRANCH   6   7
HETATM    7  N   UNK N   1      27.031  23.473  -8.907  0.00  0.00    -0.329 N 
HETATM    8  C   UNK N   1      26.910  22.642  -9.977  0.00  0.00     0.319 C 
HETATM    9  O   UNK N   1      25.857  22.592 -10.603  0.00  0.00    -0.247 OA
HETATM   10  N   UNK N   1      27.925  21.827 -10.339  0.00  0.00    -0.333 N 
HETATM   11  C   UNK N   1      27.691  20.828 -11.363  0.00  0.00     0.154 C 
HETATM   12  H   UNK N   1      27.905  23.564  -8.465  0.00  0.00     0.165 HD
BRANCH  10  13
HETATM   13  C   UNK N   1      29.239  21.958  -9.734  0.00  0.00     0.184 C 
BRANCH  13  14
HETATM   14  C   UNK N   1      29.551  20.674  -9.046  0.00  0.00     0.034 A 
HETATM   15  N   UNK N   1      30.381  19.743  -9.637  0.00  0.00    -0.355 N 
HETATM   16  C   UNK N   1      30.319  18.541  -9.026  0.00  0.00     0.054 A 
ATOM     17  HN  UNK N   1      30.973  19.941 -10.443  1.00  0.00     0.166 HD
HETATM   18  S   UNK N   1      29.254  18.637  -7.762  0.00  0.00    -0.086 SA
HETATM   19  C   UNK N   1      28.804  20.222  -7.946  0.00  0.00     0.078 A 
BRANCH  16  20
HETATM   20  C   UNK N   1      31.008  17.322  -9.558  0.00  0.00     0.035 C 
HETATM   21  C   UNK N   1      32.510  17.350  -9.346  0.00  0.00     0.016 C 
HETATM   22  C   UNK N   1      30.691  17.123 -11.025  0.00  0.00     0.016 C 
ENDBRANCH  16  20
ENDBRANCH  13  14
ENDBRANCH  10  13
ENDBRANCH   6   7
BRANCH   6  23
HETATM   23  C   UNK N   1      26.006  25.740  -8.643  0.00  0.00     0.009 C 
HETATM   24  C   UNK N   1      25.321  26.129  -9.937  0.00  0.00     0.012 C 
HETATM   25  C   UNK N   1      27.460  26.147  -8.819  0.00  0.00     0.012 C 
ENDBRANCH   6  23
ENDBRANCH   3   6
ENDBRANCH   1   2
BRANCH   1  26
HETATM   26  C   UNK N   1      26.654  25.102  -3.842  0.00  0.00     0.059 C 
BRANCH  26  27
HETATM   27  C   UNK N   1      27.635  23.956  -3.506  0.00  0.00     0.143 C 
BRANCH  27  28
HETATM   28  O   UNK N   1      27.426  23.528  -2.194  0.00  0.00    -0.393 OA
HETATM   29  H   UNK N   1      26.926  24.067  -1.561  0.00  0.00     0.210 HD
ENDBRANCH  27  28
BRANCH  27  30
HETATM   30  C   UNK N   1      29.127  24.280  -3.736  0.00  0.00     0.119 C 
BRANCH  30  31
HETATM   31  N   UNK N   1      30.018  23.122  -3.684  0.00  0.00    -0.329 N 
HETATM   32  C   UNK N   1      30.599  22.636  -2.552  0.00  0.00     0.361 C 
HETATM   33  O   UNK N   1      30.414  23.185  -1.480  0.00  0.00    -0.238 OA
HETATM   34  H   UNK N   1      30.214  22.659  -4.531  0.00  0.00     0.165 HD
BRANCH  32  35
HETATM   35  O   UNK N   1      31.346  21.509  -2.575  0.00  0.00    -0.299 OA
BRANCH  35  36
HETATM   36  C   UNK N   1      32.674  21.455  -2.926  0.00  0.00     0.228 C 
BRANCH  36  37
HETATM   37  C   UNK N   1      32.727  21.140  -4.385  0.00  0.00     0.023 A 
HETATM   38  S   UNK N   1      33.684  21.842  -5.526  0.00  0.00    -0.086 SA
HETATM   39  C   UNK N   1      33.250  20.891  -6.810  0.00  0.00     0.138 A 
HETATM   40  N   UNK N   1      32.329  19.988  -6.373  0.00  0.00    -0.368 N 
HETATM   41  C   UNK N   1      32.031  20.114  -5.033  0.00  0.00     0.104 A 
ATOM     42  HN  UNK N   1      31.900  19.287  -6.979  1.00  0.00     0.165 HD
ENDBRANCH  36  37
ENDBRANCH  35  36
ENDBRANCH  32  35
ENDBRANCH  30  31
BRANCH  30  43
HETATM   43  C   UNK N   1      29.342  25.173  -4.968  0.00  0.00     0.066 C 
BRANCH  43  44
HETATM   44  C   UNK N   1      29.968  26.496  -4.658  0.00  0.00    -0.056 A 
HETATM   45  C   UNK N   1      30.761  27.136  -5.619  0.00  0.00     0.007 A 
HETATM   46  C   UNK N   1      31.318  28.388  -5.354  0.00  0.00     0.001 A 
HETATM   47  C   UNK N   1      31.077  29.011  -4.127  0.00  0.00     0.000 A 
HETATM   48  C   UNK N   1      30.276  28.382  -3.169  0.00  0.00     0.001 A 
HETATM   49  C   UNK N   1      29.717  27.126  -3.435  0.00  0.00     0.007 A 
ENDBRANCH  43  44
ENDBRANCH  30  43
ENDBRANCH  27  30
ENDBRANCH  26  27
ENDBRANCH   1  26
BRANCH   1  50
HETATM   50  C   UNK N   1      25.492  26.506  -5.572  0.00  0.00     0.063 C 
BRANCH  50  51
HETATM   51  C   UNK N   1      26.119  27.855  -5.290  0.00  0.00    -0.056 A 
HETATM   52  C   UNK N   1      25.782  28.554  -4.128  0.00  0.00     0.007 A 
HETATM   53  C   UNK N   1      26.447  29.747  -3.814  0.00  0.00     0.001 A 
HETATM   54  C   UNK N   1      27.451  30.241  -4.654  0.00  0.00     0.000 A 
HETATM   55  C   UNK N   1      27.793  29.547  -5.811  0.00  0.00     0.001 A 
HETATM   56  C   UNK N   1      27.137  28.359  -6.113  0.00  0.00     0.007 A 
ENDBRANCH  50  51
ENDBRANCH   1  50
TORSDOF 19
ENDMDL
MODEL 5
REMARK VINA RESULT:      -6.5     13.072     17.772
REMARK  19 active torsions:
REMARK  status: ('A' for Active; 'I' for Inactive)
REMARK    1  A    between atoms: C_18  and  O_3 
REMARK    2  A    between atoms: O_5  and  C_31 
REMARK    3  A    between atoms: O_5  and  C_43 
REMARK    4  A    between atoms: C_16  and  N_8 
REMARK       I    between atoms: N_8  and  C_24 
REMARK    5  A    between atoms: C_19  and  N_9 
REMARK       I    between atoms: N_9  and  C_31 
REMARK    6  A    between atoms: C_22  and  N_10 
REMARK       I    between atoms: N_10  and  C_34 
REMARK       I    between atoms: N_11  and  C_34 
REMARK    7  A    between atoms: N_11  and  C_41 
REMARK    8  A    between atoms: C_16  and  C_17 
REMARK    9  A    between atoms: C_16  and  C_20 
REMARK   10  A    between atoms: C_17  and  C_18 
REMARK   11  A    between atoms: C_18  and  C_19 
REMARK   12  A    between atoms: C_19  and  C_21 
REMARK   13  A    between atoms: C_20  and  C_25 
REMARK   14  A    between atoms: C_21  and  C_26 
REMARK   15  A    between atoms: C_22  and  C_23 
REMARK   16  A    between atoms: C_22  and  C_24 
REMARK   17  A    between atoms: C_41  and  C_44 
REMARK   18  A    between atoms: C_43  and  C_45 
REMARK   19  A    between atoms: C_46  and  C_48 
ROOT
HETATM    1  C   UNK N   1      29.816  17.251   6.217  0.00  0.00     0.091 C 
ENDROOT
BRANCH   1   2
HETATM    2  N   UNK N   1      29.921  17.144   7.650  0.00  0.00    -0.354 N 
HETATM    3  C   UNK N   1      30.947  16.842   8.480  0.00  0.00     0.241 C 
HETATM    4  O   UNK N   1      30.659  16.665   9.650  0.00  0.00    -0.271 OA
HETATM    5  H   UNK N   1      29.076  17.327   8.121  0.00  0.00     0.162 HD
BRANCH   3   6
HETATM    6  C   UNK N   1      32.427  16.747   8.100  0.00  0.00     0.181 C 
BRANCH   6   7
HETATM    7  N   UNK N   1      33.161  16.015   9.112  0.00  0.00    -0.329 N 
HETATM    8  C   UNK N   1      33.655  14.771   8.870  0.00  0.00     0.319 C 
HETATM    9  O   UNK N   1      33.577  14.284   7.747  0.00  0.00    -0.247 OA
HETATM   10  N   UNK N   1      34.196  14.035   9.866  0.00  0.00    -0.333 N 
HETATM   11  C   UNK N   1      34.538  12.650   9.609  0.00  0.00     0.154 C 
HETATM   12  H   UNK N   1      33.304  16.426   9.995  0.00  0.00     0.165 HD
BRANCH  10  13
HETATM   13  C   UNK N   1      34.455  14.619  11.170  0.00  0.00     0.184 C 
BRANCH  13  14
HETATM   14  C   UNK N   1      35.201  13.614  11.978  0.00  0.00     0.034 A 
HETATM   15  N   UNK N   1      34.541  12.812  12.887  0.00  0.00    -0.355 N 
HETATM   16  C   UNK N   1      35.390  12.183  13.726  0.00  0.00     0.054 A 
ATOM     17  HN  UNK N   1      33.527  12.708  12.920  1.00  0.00     0.166 HD
HETATM   18  S   UNK N   1      36.941  12.609  13.337  0.00  0.00    -0.086 SA
HETATM   19  C   UNK N   1      36.601  13.639  12.083  0.00  0.00     0.078 A 
BRANCH  16  20
HETATM   20  C   UNK N   1      34.925  11.371  14.896  0.00  0.00     0.035 C 
HETATM   21  C   UNK N   1      33.565  10.737  14.674  0.00  0.00     0.016 C 
HETATM   22  C   UNK N   1      34.912  12.208  16.158  0.00  0.00     0.016 C 
ENDBRANCH  16  20
ENDBRANCH  13  14
ENDBRANCH  10  13
ENDBRANCH   6   7
BRANCH   6  23
HETATM   23  C   UNK N   1      33.207  17.932   7.504  0.00  0.00     0.009 C 
HETATM   24  C   UNK N   1      33.813  17.559   6.167  0.00  0.00     0.012 C 
HETATM   25  C   UNK N   1      34.386  18.289   8.394  0.00  0.00     0.012 C 
ENDBRANCH   6  23
ENDBRANCH   3   6
ENDBRANCH   1   2
BRANCH   1  26
HETATM   26  C   UNK N   1      28.401  17.761   5.866  0.00  0.00     0.059 C 
BRANCH  26  27
HETATM   27  C   UNK N   1      28.059  17.678   4.361  0.00  0.00     0.143 C 
BRANCH  27  28
HETATM   28  O   UNK N   1      28.072  18.957   3.804  0.00  0.00    -0.393 OA
HETATM   29  H   UNK N   1      28.531  19.139   2.969  0.00  0.00     0.210 HD
ENDBRANCH  27  28
BRANCH  27  30
HETATM   30  C   UNK N   1      26.733  16.958   4.027  0.00  0.00     0.119 C 
BRANCH  30  31
HETATM   31  N   UNK N   1      25.546  17.809   4.083  0.00  0.00    -0.329 N 
HETATM   32  C   UNK N   1      24.451  17.569   4.856  0.00  0.00     0.361 C 
HETATM   33  O   UNK N   1      24.396  16.572   5.555  0.00  0.00    -0.238 OA
HETATM   34  H   UNK N   1      25.537  18.616   3.518  0.00  0.00     0.165 HD
BRANCH  32  35
HETATM   35  O   UNK N   1      23.427  18.449   4.914  0.00  0.00    -0.299 OA
BRANCH  35  36
HETATM   36  C   UNK N   1      22.649  18.820   3.843  0.00  0.00     0.228 C 
BRANCH  36  37
HETATM   37  C   UNK N   1      21.455  17.924   3.840  0.00  0.00     0.023 A 
HETATM   38  S   UNK N   1      20.828  17.087   5.112  0.00  0.00    -0.086 SA
HETATM   39  C   UNK N   1      19.498  16.464   4.347  0.00  0.00     0.138 A 
HETATM   40  N   UNK N   1      19.511  16.898   3.057  0.00  0.00    -0.368 N 
HETATM   41  C   UNK N   1      20.589  17.708   2.763  0.00  0.00     0.104 A 
ATOM     42  HN  UNK N   1      18.796  16.649   2.374  1.00  0.00     0.165 HD
ENDBRANCH  36  37
ENDBRANCH  35  36
ENDBRANCH  32  35
ENDBRANCH  30  31
BRANCH  30  43
HETATM   43  C   UNK N   1      26.837  16.120   2.744  0.00  0.00     0.066 C 
BRANCH  43  44
HETATM   44  C   UNK N   1      27.700  14.905   2.878  0.00  0.00    -0.056 A 
HETATM   45  C   UNK N   1      28.763  14.701   1.989  0.00  0.00     0.007 A 
HETATM   46  C   UNK N   1      29.597  13.592   2.129  0.00  0.00     0.001 A 
HETATM   47  C   UNK N   1      29.377  12.683   3.168  0.00  0.00     0.000 A 
HETATM   48  C   UNK N   1      28.326  12.889   4.066  0.00  0.00     0.001 A 
HETATM   49  C   UNK N   1      27.489  14.002   3.925  0.00  0.00     0.007 A 
ENDBRANCH  43  44
ENDBRANCH  30  43
ENDBRANCH  27  30
ENDBRANCH  26  27
ENDBRANCH   1  26
BRANCH   1  50
HETATM   50  C   UNK N   1      30.045  15.888   5.542  0.00  0.00     0.063 C 
BRANCH  50  51
HETATM   51  C   UNK N   1      31.266  15.762   4.656  0.00  0.00    -0.056 A 
HETATM   52  C   UNK N   1      32.061  14.616   4.720  0.00  0.00     0.007 A 
HETATM   53  C   UNK N   1      33.123  14.452   3.821  0.00  0.00     0.001 A 
HETATM   54  C   UNK N   1      33.390  15.427   2.854  0.00  0.00     0.000 A 
HETATM   55  C   UNK N   1      32.599  16.571   2.783  0.00  0.00     0.001 A 
HETATM   56  C   UNK N   1      31.541  16.724   3.672  0.00  0.00     0.007 A 
ENDBRANCH  50  51
ENDBRANCH   1  50
TORSDOF 19
ENDMDL
MODEL 6
REMARK VINA RESULT:      -6.5     13.192     17.013
REMARK  19 active torsions:
REMARK  status: ('A' for Active; 'I' for Inactive)
REMARK    1  A    between atoms: C_18  and  O_3 
REMARK    2  A    between atoms: O_5  and  C_31 
REMARK    3  A    between atoms: O_5  and  C_43 
REMARK    4  A    between atoms: C_16  and  N_8 
REMARK       I    between atoms: N_8  and  C_24 
REMARK    5  A    between atoms: C_19  and  N_9 
REMARK       I    between atoms: N_9  and  C_31 
REMARK    6  A    between atoms: C_22  and  N_10 
REMARK       I    between atoms: N_10  and  C_34 
REMARK       I    between atoms: N_11  and  C_34 
REMARK    7  A    between atoms: N_11  and  C_41 
REMARK    8  A    between atoms: C_16  and  C_17 
REMARK    9  A    between atoms: C_16  and  C_20 
REMARK   10  A    between atoms: C_17  and  C_18 
REMARK   11  A    between atoms: C_18  and  C_19 
REMARK   12  A    between atoms: C_19  and  C_21 
REMARK   13  A    between atoms: C_20  and  C_25 
REMARK   14  A    between atoms: C_21  and  C_26 
REMARK   15  A    between atoms: C_22  and  C_23 
REMARK   16  A    between atoms: C_22  and  C_24 
REMARK   17  A    between atoms: C_41  and  C_44 
REMARK   18  A    between atoms: C_43  and  C_45 
REMARK   19  A    between atoms: C_46  and  C_48 
ROOT
HETATM    1  C   UNK N   1      31.096  16.684   7.471  0.00  0.00     0.091 C 
ENDROOT
BRANCH   1   2
HETATM    2  N   UNK N   1      30.057  17.557   7.958  0.00  0.00    -0.354 N 
HETATM    3  C   UNK N   1      28.833  17.887   7.483  0.00  0.00     0.241 C 
HETATM    4  O   UNK N   1      28.263  18.800   8.053  0.00  0.00    -0.271 OA
HETATM    5  H   UNK N   1      30.284  18.002   8.805  0.00  0.00     0.162 HD
BRANCH   3   6
HETATM    6  C   UNK N   1      28.085  17.200   6.337  0.00  0.00     0.181 C 
BRANCH   6   7
HETATM    7  N   UNK N   1      27.001  18.040   5.869  0.00  0.00    -0.329 N 
HETATM    8  C   UNK N   1      27.077  18.701   4.684  0.00  0.00     0.319 C 
HETATM    9  O   UNK N   1      28.030  18.517   3.934  0.00  0.00    -0.247 OA
HETATM   10  N   UNK N   1      26.135  19.604   4.332  0.00  0.00    -0.333 N 
HETATM   11  C   UNK N   1      26.349  20.421   3.154  0.00  0.00     0.154 C 
HETATM   12  H   UNK N   1      26.192  18.134   6.421  0.00  0.00     0.165 HD
BRANCH  10  13
HETATM   13  C   UNK N   1      24.911  19.743   5.103  0.00  0.00     0.184 C 
BRANCH  13  14
HETATM   14  C   UNK N   1      23.857  18.933   4.431  0.00  0.00     0.034 A 
HETATM   15  N   UNK N   1      23.015  19.507   3.500  0.00  0.00    -0.355 N 
HETATM   16  C   UNK N   1      21.953  18.724   3.218  0.00  0.00     0.054 A 
ATOM     17  HN  UNK N   1      23.179  20.419   3.073  1.00  0.00     0.166 HD
HETATM   18  S   UNK N   1      22.063  17.333   4.107  0.00  0.00    -0.086 SA
HETATM   19  C   UNK N   1      23.471  17.672   4.914  0.00  0.00     0.078 A 
BRANCH  16  20
HETATM   20  C   UNK N   1      20.817  19.175   2.352  0.00  0.00     0.035 C 
HETATM   21  C   UNK N   1      20.658  20.684   2.321  0.00  0.00     0.016 C 
HETATM   22  C   UNK N   1      19.522  18.521   2.783  0.00  0.00     0.016 C 
ENDBRANCH  16  20
ENDBRANCH  13  14
ENDBRANCH  10  13
ENDBRANCH   6   7
BRANCH   6  23
HETATM   23  C   UNK N   1      27.746  15.700   6.352  0.00  0.00     0.009 C 
HETATM   24  C   UNK N   1      27.912  15.097   4.972  0.00  0.00     0.012 C 
HETATM   25  C   UNK N   1      26.283  15.492   6.708  0.00  0.00     0.012 C 
ENDBRANCH   6  23
ENDBRANCH   3   6
ENDBRANCH   1   2
BRANCH   1  26
HETATM   26  C   UNK N   1      32.125  16.470   8.602  0.00  0.00     0.059 C 
BRANCH  26  27
HETATM   27  C   UNK N   1      32.041  15.080   9.273  0.00  0.00     0.143 C 
BRANCH  27  28
HETATM   28  O   UNK N   1      31.644  15.222  10.602  0.00  0.00    -0.393 OA
HETATM   29  H   UNK N   1      32.142  14.809  11.326  0.00  0.00     0.210 HD
ENDBRANCH  27  28
BRANCH  27  30
HETATM   30  C   UNK N   1      33.326  14.228   9.182  0.00  0.00     0.119 C 
BRANCH  30  31
HETATM   31  N   UNK N   1      33.779  13.669  10.455  0.00  0.00    -0.329 N 
HETATM   32  C   UNK N   1      34.473  14.356  11.404  0.00  0.00     0.361 C 
HETATM   33  O   UNK N   1      34.787  15.519  11.219  0.00  0.00    -0.238 OA
HETATM   34  H   UNK N   1      33.566  12.725  10.640  0.00  0.00     0.165 HD
BRANCH  32  35
HETATM   35  O   UNK N   1      34.784  13.790  12.592  0.00  0.00    -0.299 OA
BRANCH  35  36
HETATM   36  C   UNK N   1      36.014  13.871  13.202  0.00  0.00     0.228 C 
BRANCH  36  37
HETATM   37  C   UNK N   1      35.979  12.951  14.378  0.00  0.00     0.023 A 
HETATM   38  S   UNK N   1      37.029  11.731  14.726  0.00  0.00    -0.086 SA
HETATM   39  C   UNK N   1      36.399  11.296  16.194  0.00  0.00     0.138 A 
HETATM   40  N   UNK N   1      35.334  12.103  16.453  0.00  0.00    -0.368 N 
HETATM   41  C   UNK N   1      35.090  13.025  15.456  0.00  0.00     0.104 A 
ATOM     42  HN  UNK N   1      34.770  12.033  17.300  1.00  0.00     0.165 HD
ENDBRANCH  36  37
ENDBRANCH  35  36
ENDBRANCH  32  35
ENDBRANCH  30  31
BRANCH  30  43
HETATM   43  C   UNK N   1      33.260  13.200   8.042  0.00  0.00     0.066 C 
BRANCH  43  44
HETATM   44  C   UNK N   1      34.226  13.462   6.930  0.00  0.00    -0.056 A 
HETATM   45  C   UNK N   1      34.869  14.704   6.841  0.00  0.00     0.007 A 
HETATM   46  C   UNK N   1      35.799  14.946   5.831  0.00  0.00     0.001 A 
HETATM   47  C   UNK N   1      36.101  13.941   4.908  0.00  0.00     0.000 A 
HETATM   48  C   UNK N   1      35.472  12.696   5.000  0.00  0.00     0.001 A 
HETATM   49  C   UNK N   1      34.537  12.453   6.013  0.00  0.00     0.007 A 
ENDBRANCH  43  44
ENDBRANCH  30  43
ENDBRANCH  27  30
ENDBRANCH  26  27
ENDBRANCH   1  26
BRANCH   1  50
HETATM   50  C   UNK N   1      31.805  17.295   6.251  0.00  0.00     0.063 C 
BRANCH  50  51
HETATM   51  C   UNK N   1      32.094  16.365   5.092  0.00  0.00    -0.056 A 
HETATM   52  C   UNK N   1      33.009  16.739   4.106  0.00  0.00     0.007 A 
HETATM   53  C   UNK N   1      33.359  15.831   3.097  0.00  0.00     0.001 A 
HETATM   54  C   UNK N   1      32.801  14.547   3.075  0.00  0.00     0.000 A 
HETATM   55  C   UNK N   1      31.891  14.168   4.057  0.00  0.00     0.001 A 
HETATM   56  C   UNK N   1      31.555  15.070   5.060  0.00  0.00     0.007 A 
ENDBRANCH  50  51
ENDBRANCH   1  50
TORSDOF 19
ENDMDL
MODEL 7
REMARK VINA RESULT:      -6.3      2.081      3.348
REMARK  19 active torsions:
REMARK  status: ('A' for Active; 'I' for Inactive)
REMARK    1  A    between atoms: C_18  and  O_3 
REMARK    2  A    between atoms: O_5  and  C_31 
REMARK    3  A    between atoms: O_5  and  C_43 
REMARK    4  A    between atoms: C_16  and  N_8 
REMARK       I    between atoms: N_8  and  C_24 
REMARK    5  A    between atoms: C_19  and  N_9 
REMARK       I    between atoms: N_9  and  C_31 
REMARK    6  A    between atoms: C_22  and  N_10 
REMARK       I    between atoms: N_10  and  C_34 
REMARK       I    between atoms: N_11  and  C_34 
REMARK    7  A    between atoms: N_11  and  C_41 
REMARK    8  A    between atoms: C_16  and  C_17 
REMARK    9  A    between atoms: C_16  and  C_20 
REMARK   10  A    between atoms: C_17  and  C_18 
REMARK   11  A    between atoms: C_18  and  C_19 
REMARK   12  A    between atoms: C_19  and  C_21 
REMARK   13  A    between atoms: C_20  and  C_25 
REMARK   14  A    between atoms: C_21  and  C_26 
REMARK   15  A    between atoms: C_22  and  C_23 
REMARK   16  A    between atoms: C_22  and  C_24 
REMARK   17  A    between atoms: C_41  and  C_44 
REMARK   18  A    between atoms: C_43  and  C_45 
REMARK   19  A    between atoms: C_46  and  C_48 
ROOT
HETATM    1  C   UNK N   1      26.960  23.770  -6.521  0.00  0.00     0.091 C 
ENDROOT
BRANCH   1   2
HETATM    2  N   UNK N   1      25.958  22.904  -7.092  0.00  0.00    -0.354 N 
HETATM    3  C   UNK N   1      25.257  22.943  -8.250  0.00  0.00     0.241 C 
HETATM    4  O   UNK N   1      24.349  22.139  -8.355  0.00  0.00    -0.271 OA
HETATM    5  H   UNK N   1      25.741  22.129  -6.526  0.00  0.00     0.162 HD
BRANCH   3   6
HETATM    6  C   UNK N   1      25.523  23.862  -9.445  0.00  0.00     0.181 C 
BRANCH   6   7
HETATM    7  N   UNK N   1      26.754  23.483 -10.108  0.00  0.00    -0.329 N 
HETATM    8  C   UNK N   1      26.751  22.666 -11.194  0.00  0.00     0.319 C 
HETATM    9  O   UNK N   1      25.691  22.313 -11.699  0.00  0.00    -0.247 OA
HETATM   10  N   UNK N   1      27.909  22.190 -11.706  0.00  0.00    -0.333 N 
HETATM   11  C   UNK N   1      27.855  21.177 -12.742  0.00  0.00     0.154 C 
HETATM   12  H   UNK N   1      27.611  23.825  -9.764  0.00  0.00     0.165 HD
BRANCH  10  13
HETATM   13  C   UNK N   1      29.190  22.698 -11.249  0.00  0.00     0.184 C 
BRANCH  13  14
HETATM   14  C   UNK N   1      29.993  21.537 -10.770  0.00  0.00     0.034 A 
HETATM   15  N   UNK N   1      29.603  20.825  -9.654  0.00  0.00    -0.355 N 
HETATM   16  C   UNK N   1      30.580  20.015  -9.197  0.00  0.00     0.054 A 
ATOM     17  HN  UNK N   1      28.682  20.904  -9.225  1.00  0.00     0.166 HD
HETATM   18  S   UNK N   1      31.908  20.173 -10.172  0.00  0.00    -0.086 SA
HETATM   19  C   UNK N   1      31.303  21.306 -11.221  0.00  0.00     0.078 A 
BRANCH  16  20
HETATM   20  C   UNK N   1      30.466  19.245  -7.917  0.00  0.00     0.035 C 
HETATM   21  C   UNK N   1      29.101  18.609  -7.727  0.00  0.00     0.016 C 
HETATM   22  C   UNK N   1      30.803  20.123  -6.731  0.00  0.00     0.016 C 
ENDBRANCH  16  20
ENDBRANCH  13  14
ENDBRANCH  10  13
ENDBRANCH   6   7
BRANCH   6  23
HETATM   23  C   UNK N   1      25.292  25.382  -9.387  0.00  0.00     0.009 C 
HETATM   24  C   UNK N   1      24.732  25.892 -10.699  0.00  0.00     0.012 C 
HETATM   25  C   UNK N   1      26.614  26.111  -9.204  0.00  0.00     0.012 C 
ENDBRANCH   6  23
ENDBRANCH   3   6
ENDBRANCH   1   2
BRANCH   1  26
HETATM   26  C   UNK N   1      28.335  23.080  -6.651  0.00  0.00     0.059 C 
BRANCH  26  27
HETATM   27  C   UNK N   1      29.459  24.009  -7.164  0.00  0.00     0.143 C 
BRANCH  27  28
HETATM   28  O   UNK N   1      30.379  23.270  -7.907  0.00  0.00    -0.393 OA
HETATM   29  H   UNK N   1      30.135  22.424  -8.315  0.00  0.00     0.210 HD
ENDBRANCH  27  28
BRANCH  27  30
HETATM   30  C   UNK N   1      30.182  24.829  -6.073  0.00  0.00     0.119 C 
BRANCH  30  31
HETATM   31  N   UNK N   1      31.177  24.082  -5.306  0.00  0.00    -0.329 N 
HETATM   32  C   UNK N   1      30.981  23.583  -4.054  0.00  0.00     0.361 C 
HETATM   33  O   UNK N   1      29.925  23.767  -3.474  0.00  0.00    -0.238 OA
HETATM   34  H   UNK N   1      32.054  23.926  -5.726  0.00  0.00     0.165 HD
BRANCH  32  35
HETATM   35  O   UNK N   1      31.924  22.830  -3.443  0.00  0.00    -0.299 OA
BRANCH  35  36
HETATM   36  C   UNK N   1      31.933  21.456  -3.415  0.00  0.00     0.228 C 
BRANCH  36  37
HETATM   37  C   UNK N   1      33.241  21.016  -3.985  0.00  0.00     0.023 A 
HETATM   38  S   UNK N   1      34.298  21.913  -4.874  0.00  0.00    -0.086 SA
HETATM   39  C   UNK N   1      35.504  20.787  -5.007  0.00  0.00     0.138 A 
HETATM   40  N   UNK N   1      35.104  19.662  -4.352  0.00  0.00    -0.368 N 
HETATM   41  C   UNK N   1      33.854  19.775  -3.780  0.00  0.00     0.104 A 
ATOM     42  HN  UNK N   1      35.673  18.817  -4.290  1.00  0.00     0.165 HD
ENDBRANCH  36  37
ENDBRANCH  35  36
ENDBRANCH  32  35
ENDBRANCH  30  31
BRANCH  30  43
HETATM   43  C   UNK N   1      30.694  26.176  -6.605  0.00  0.00     0.066 C 
BRANCH  43  44
HETATM   44  C   UNK N   1      29.814  27.338  -6.266  0.00  0.00    -0.056 A 
HETATM   45  C   UNK N   1      28.910  27.831  -7.217  0.00  0.00     0.007 A 
HETATM   46  C   UNK N   1      28.059  28.889  -6.898  0.00  0.00     0.001 A 
HETATM   47  C   UNK N   1      28.100  29.455  -5.621  0.00  0.00     0.000 A 
HETATM   48  C   UNK N   1      28.991  28.959  -4.665  0.00  0.00     0.001 A 
HETATM   49  C   UNK N   1      29.846  27.897  -4.985  0.00  0.00     0.007 A 
ENDBRANCH  43  44
ENDBRANCH  30  43
ENDBRANCH  27  30
ENDBRANCH  26  27
ENDBRANCH   1  26
BRANCH   1  50
HETATM   50  C   UNK N   1      26.670  24.047  -5.037  0.00  0.00     0.063 C 
BRANCH  50  51
HETATM   51  C   UNK N   1      26.144  25.423  -4.689  0.00  0.00    -0.056 A 
HETATM   52  C   UNK N   1      26.533  26.041  -3.498  0.00  0.00     0.007 A 
HETATM   53  C   UNK N   1      26.135  27.358  -3.233  0.00  0.00     0.001 A 
HETATM   54  C   UNK N   1      25.354  28.062  -4.156  0.00  0.00     0.000 A 
HETATM   55  C   UNK N   1      24.965  27.452  -5.346  0.00  0.00     0.001 A 
HETATM   56  C   UNK N   1      25.371  26.149  -5.608  0.00  0.00     0.007 A 
ENDBRANCH  50  51
ENDBRANCH   1  50
TORSDOF 19
ENDMDL
MODEL 8
REMARK VINA RESULT:      -6.3     12.744     15.831
REMARK  19 active torsions:
REMARK  status: ('A' for Active; 'I' for Inactive)
REMARK    1  A    between atoms: C_18  and  O_3 
REMARK    2  A    between atoms: O_5  and  C_31 
REMARK    3  A    between atoms: O_5  and  C_43 
REMARK    4  A    between atoms: C_16  and  N_8 
REMARK       I    between atoms: N_8  and  C_24 
REMARK    5  A    between atoms: C_19  and  N_9 
REMARK       I    between atoms: N_9  and  C_31 
REMARK    6  A    between atoms: C_22  and  N_10 
REMARK       I    between atoms: N_10  and  C_34 
REMARK       I    between atoms: N_11  and  C_34 
REMARK    7  A    between atoms: N_11  and  C_41 
REMARK    8  A    between atoms: C_16  and  C_17 
REMARK    9  A    between atoms: C_16  and  C_20 
REMARK   10  A    between atoms: C_17  and  C_18 
REMARK   11  A    between atoms: C_18  and  C_19 
REMARK   12  A    between atoms: C_19  and  C_21 
REMARK   13  A    between atoms: C_20  and  C_25 
REMARK   14  A    between atoms: C_21  and  C_26 
REMARK   15  A    between atoms: C_22  and  C_23 
REMARK   16  A    between atoms: C_22  and  C_24 
REMARK   17  A    between atoms: C_41  and  C_44 
REMARK   18  A    between atoms: C_43  and  C_45 
REMARK   19  A    between atoms: C_46  and  C_48 
ROOT
HETATM    1  C   UNK N   1      30.056  17.476   6.799  0.00  0.00     0.091 C 
ENDROOT
BRANCH   1   2
HETATM    2  N   UNK N   1      30.322  16.116   6.400  0.00  0.00    -0.354 N 
HETATM    3  C   UNK N   1      29.654  15.239   5.615  0.00  0.00     0.241 C 
HETATM    4  O   UNK N   1      30.065  14.093   5.618  0.00  0.00    -0.271 OA
HETATM    5  H   UNK N   1      31.157  15.753   6.773  0.00  0.00     0.162 HD
BRANCH   3   6
HETATM    6  C   UNK N   1      28.468  15.556   4.699  0.00  0.00     0.181 C 
BRANCH   6   7
HETATM    7  N   UNK N   1      27.408  14.588   4.894  0.00  0.00    -0.329 N 
HETATM    8  C   UNK N   1      26.197  14.954   5.392  0.00  0.00     0.319 C 
HETATM    9  O   UNK N   1      25.942  16.137   5.591  0.00  0.00    -0.247 OA
HETATM   10  N   UNK N   1      25.273  14.023   5.719  0.00  0.00    -0.333 N 
HETATM   11  C   UNK N   1      24.074  14.439   6.419  0.00  0.00     0.154 C 
HETATM   12  H   UNK N   1      27.568  13.645   4.661  0.00  0.00     0.165 HD
BRANCH  10  13
HETATM   13  C   UNK N   1      25.460  12.628   5.360  0.00  0.00     0.184 C 
BRANCH  13  14
HETATM   14  C   UNK N   1      24.545  12.327   4.222  0.00  0.00     0.034 A 
HETATM   15  N   UNK N   1      24.632  13.038   3.043  0.00  0.00    -0.355 N 
HETATM   16  C   UNK N   1      23.560  12.843   2.247  0.00  0.00     0.054 A 
ATOM     17  HN  UNK N   1      25.417  13.642   2.801  1.00  0.00     0.166 HD
HETATM   18  S   UNK N   1      22.522  11.793   2.995  0.00  0.00    -0.086 SA
HETATM   19  C   UNK N   1      23.388  11.549   4.388  0.00  0.00     0.078 A 
BRANCH  16  20
HETATM   20  C   UNK N   1      23.337  13.609   0.979  0.00  0.00     0.035 C 
HETATM   21  C   UNK N   1      21.962  14.247   0.905  0.00  0.00     0.016 C 
HETATM   22  C   UNK N   1      23.570  12.726  -0.229  0.00  0.00     0.016 C 
ENDBRANCH  16  20
ENDBRANCH  13  14
ENDBRANCH  10  13
ENDBRANCH   6   7
BRANCH   6  23
HETATM   23  C   UNK N   1      28.647  15.993   3.235  0.00  0.00     0.009 C 
HETATM   24  C   UNK N   1      28.290  14.865   2.289  0.00  0.00     0.012 C 
HETATM   25  C   UNK N   1      30.106  16.309   2.952  0.00  0.00     0.012 C 
ENDBRANCH   6  23
ENDBRANCH   3   6
ENDBRANCH   1   2
BRANCH   1  26
HETATM   26  C   UNK N   1      30.881  17.783   8.068  0.00  0.00     0.059 C 
BRANCH  26  27
HETATM   27  C   UNK N   1      31.944  16.712   8.401  0.00  0.00     0.143 C 
BRANCH  27  28
HETATM   28  O   UNK N   1      31.462  15.865   9.398  0.00  0.00    -0.393 OA
HETATM   29  H   UNK N   1      30.581  15.990   9.785  0.00  0.00     0.210 HD
ENDBRANCH  27  28
BRANCH  27  30
HETATM   30  C   UNK N   1      33.334  17.264   8.787  0.00  0.00     0.119 C 
BRANCH  30  31
HETATM   31  N   UNK N   1      34.147  16.359   9.598  0.00  0.00    -0.329 N 
HETATM   32  C   UNK N   1      35.280  16.715  10.264  0.00  0.00     0.361 C 
HETATM   33  O   UNK N   1      35.705  17.855  10.194  0.00  0.00    -0.238 OA
HETATM   34  H   UNK N   1      33.853  15.422   9.667  0.00  0.00     0.165 HD
BRANCH  32  35
HETATM   35  O   UNK N   1      35.930  15.837  11.061  0.00  0.00    -0.299 OA
BRANCH  35  36
HETATM   36  C   UNK N   1      35.318  14.932  11.896  0.00  0.00     0.228 C 
BRANCH  36  37
HETATM   37  C   UNK N   1      36.234  13.759  12.015  0.00  0.00     0.023 A 
HETATM   38  S   UNK N   1      37.020  12.976  10.799  0.00  0.00    -0.086 SA
HETATM   39  C   UNK N   1      37.892  11.919  11.729  0.00  0.00     0.138 A 
HETATM   40  N   UNK N   1      37.584  12.154  13.035  0.00  0.00    -0.368 N 
HETATM   41  C   UNK N   1      36.668  13.171  13.208  0.00  0.00     0.104 A 
ATOM     42  HN  UNK N   1      37.990  11.629  13.809  1.00  0.00     0.165 HD
ENDBRANCH  36  37
ENDBRANCH  35  36
ENDBRANCH  32  35
ENDBRANCH  30  31
BRANCH  30  43
HETATM   43  C   UNK N   1      34.079  17.853   7.579  0.00  0.00     0.066 C 
BRANCH  43  44
HETATM   44  C   UNK N   1      34.046  16.984   6.362  0.00  0.00    -0.056 A 
HETATM   45  C   UNK N   1      34.668  15.729   6.382  0.00  0.00     0.007 A 
HETATM   46  C   UNK N   1      34.610  14.895   5.265  0.00  0.00     0.001 A 
HETATM   47  C   UNK N   1      33.920  15.309   4.123  0.00  0.00     0.000 A 
HETATM   48  C   UNK N   1      33.287  16.555   4.102  0.00  0.00     0.001 A 
HETATM   49  C   UNK N   1      33.345  17.392   5.223  0.00  0.00     0.007 A 
ENDBRANCH  43  44
ENDBRANCH  30  43
ENDBRANCH  27  30
ENDBRANCH  26  27
ENDBRANCH   1  26
BRANCH   1  50
HETATM   50  C   UNK N   1      28.563  17.682   7.103  0.00  0.00     0.063 C 
BRANCH  50  51
HETATM   51  C   UNK N   1      27.900  18.892   6.481  0.00  0.00    -0.056 A 
HETATM   52  C   UNK N   1      27.349  19.883   7.296  0.00  0.00     0.007 A 
HETATM   53  C   UNK N   1      26.837  21.054   6.721  0.00  0.00     0.001 A 
HETATM   54  C   UNK N   1      26.880  21.241   5.335  0.00  0.00     0.000 A 
HETATM   55  C   UNK N   1      27.431  20.257   4.518  0.00  0.00     0.001 A 
HETATM   56  C   UNK N   1      27.945  19.102   5.095  0.00  0.00     0.007 A 
ENDBRANCH  50  51
ENDBRANCH   1  50
TORSDOF 19
ENDMDL
MODEL 9
REMARK VINA RESULT:      -6.1     12.455     15.952
REMARK  19 active torsions:
REMARK  status: ('A' for Active; 'I' for Inactive)
REMARK    1  A    between atoms: C_18  and  O_3 
REMARK    2  A    between atoms: O_5  and  C_31 
REMARK    3  A    between atoms: O_5  and  C_43 
REMARK    4  A    between atoms: C_16  and  N_8 
REMARK       I    between atoms: N_8  and  C_24 
REMARK    5  A    between atoms: C_19  and  N_9 
REMARK       I    between atoms: N_9  and  C_31 
REMARK    6  A    between atoms: C_22  and  N_10 
REMARK       I    between atoms: N_10  and  C_34 
REMARK       I    between atoms: N_11  and  C_34 
REMARK    7  A    between atoms: N_11  and  C_41 
REMARK    8  A    between atoms: C_16  and  C_17 
REMARK    9  A    between atoms: C_16  and  C_20 
REMARK   10  A    between atoms: C_17  and  C_18 
REMARK   11  A    between atoms: C_18  and  C_19 
REMARK   12  A    between atoms: C_19  and  C_21 
REMARK   13  A    between atoms: C_20  and  C_25 
REMARK   14  A    between atoms: C_21  and  C_26 
REMARK   15  A    between atoms: C_22  and  C_23 
REMARK   16  A    between atoms: C_22  and  C_24 
REMARK   17  A    between atoms: C_41  and  C_44 
REMARK   18  A    between atoms: C_43  and  C_45 
REMARK   19  A    between atoms: C_46  and  C_48 
ROOT
HETATM    1  C   UNK N   1      28.324  17.092   4.504  0.00  0.00     0.091 C 
ENDROOT
BRANCH   1   2
HETATM    2  N   UNK N   1      27.825  15.994   5.293  0.00  0.00    -0.354 N 
HETATM    3  C   UNK N   1      26.673  15.284   5.261  0.00  0.00     0.241 C 
HETATM    4  O   UNK N   1      26.485  14.521   6.190  0.00  0.00    -0.271 OA
HETATM    5  H   UNK N   1      28.447  15.701   5.997  0.00  0.00     0.162 HD
BRANCH   3   6
HETATM    6  C   UNK N   1      25.614  15.317   4.155  0.00  0.00     0.181 C 
BRANCH   6   7
HETATM    7  N   UNK N   1      24.286  15.231   4.728  0.00  0.00    -0.329 N 
HETATM    8  C   UNK N   1      23.593  16.345   5.083  0.00  0.00     0.319 C 
HETATM    9  O   UNK N   1      24.041  17.458   4.829  0.00  0.00    -0.247 OA
HETATM   10  N   UNK N   1      22.427  16.250   5.761  0.00  0.00    -0.333 N 
HETATM   11  C   UNK N   1      21.818  17.457   6.283  0.00  0.00     0.154 C 
HETATM   12  H   UNK N   1      23.876  14.346   4.863  0.00  0.00     0.165 HD
BRANCH  10  13
HETATM   13  C   UNK N   1      21.776  14.965   5.947  0.00  0.00     0.184 C 
BRANCH  13  14
HETATM   14  C   UNK N   1      21.727  14.689   7.411  0.00  0.00     0.034 A 
HETATM   15  N   UNK N   1      22.782  14.066   8.046  0.00  0.00    -0.355 N 
HETATM   16  C   UNK N   1      22.455  13.636   9.282  0.00  0.00     0.054 A 
ATOM     17  HN  UNK N   1      23.704  13.946   7.627  1.00  0.00     0.166 HD
HETATM   18  S   UNK N   1      20.877  14.033   9.586  0.00  0.00    -0.086 SA
HETATM   19  C   UNK N   1      20.528  14.761   8.139  0.00  0.00     0.078 A 
BRANCH  16  20
HETATM   20  C   UNK N   1      23.372  12.802  10.123  0.00  0.00     0.035 C 
HETATM   21  C   UNK N   1      24.158  11.787   9.314  0.00  0.00     0.016 C 
HETATM   22  C   UNK N   1      22.604  12.109  11.228  0.00  0.00     0.016 C 
ENDBRANCH  16  20
ENDBRANCH  13  14
ENDBRANCH  10  13
ENDBRANCH   6   7
BRANCH   6  23
HETATM   23  C   UNK N   1      25.771  14.544   2.834  0.00  0.00     0.009 C 
HETATM   24  C   UNK N   1      26.934  13.577   2.912  0.00  0.00     0.012 C 
HETATM   25  C   UNK N   1      26.116  15.498   1.702  0.00  0.00     0.012 C 
ENDBRANCH   6  23
ENDBRANCH   3   6
ENDBRANCH   1   2
BRANCH   1  26
HETATM   26  C   UNK N   1      29.267  16.527   3.419  0.00  0.00     0.059 C 
BRANCH  26  27
HETATM   27  C   UNK N   1      30.769  16.714   3.734  0.00  0.00     0.143 C 
BRANCH  27  28
HETATM   28  O   UNK N   1      31.422  17.234   2.617  0.00  0.00    -0.393 OA
HETATM   29  H   UNK N   1      32.391  17.277   2.572  0.00  0.00     0.210 HD
ENDBRANCH  27  28
BRANCH  27  30
HETATM   30  C   UNK N   1      31.496  15.449   4.242  0.00  0.00     0.119 C 
BRANCH  30  31
HETATM   31  N   UNK N   1      31.225  14.237   3.471  0.00  0.00    -0.329 N 
HETATM   32  C   UNK N   1      30.485  13.182   3.912  0.00  0.00     0.361 C 
HETATM   33  O   UNK N   1      30.011  13.187   5.035  0.00  0.00    -0.238 OA
HETATM   34  H   UNK N   1      31.606  14.180   2.565  0.00  0.00     0.165 HD
BRANCH  32  35
HETATM   35  O   UNK N   1      30.211  12.132   3.105  0.00  0.00    -0.299 OA
BRANCH  35  36
HETATM   36  C   UNK N   1      31.157  11.347   2.490  0.00  0.00     0.228 C 
BRANCH  36  37
HETATM   37  C   UNK N   1      31.077  11.635   1.026  0.00  0.00     0.023 A 
HETATM   38  S   UNK N   1      32.257  11.418  -0.102  0.00  0.00    -0.086 SA
HETATM   39  C   UNK N   1      31.376  11.836  -1.440  0.00  0.00     0.138 A 
HETATM   40  N   UNK N   1      30.119  12.162  -1.033  0.00  0.00    -0.368 N 
HETATM   41  C   UNK N   1      29.939  12.055   0.330  0.00  0.00     0.104 A 
ATOM     42  HN  UNK N   1      29.381  12.459  -1.673  1.00  0.00     0.165 HD
ENDBRANCH  36  37
ENDBRANCH  35  36
ENDBRANCH  32  35
ENDBRANCH  30  31
BRANCH  30  43
HETATM   43  C   UNK N   1      32.990  15.703   4.495  0.00  0.00     0.066 C 
BRANCH  43  44
HETATM   44  C   UNK N   1      33.301  16.177   5.880  0.00  0.00    -0.056 A 
HETATM   45  C   UNK N   1      33.364  15.258   6.935  0.00  0.00     0.007 A 
HETATM   46  C   UNK N   1      33.690  15.685   8.223  0.00  0.00     0.001 A 
HETATM   47  C   UNK N   1      33.965  17.034   8.460  0.00  0.00     0.000 A 
HETATM   48  C   UNK N   1      33.915  17.953   7.408  0.00  0.00     0.001 A 
HETATM   49  C   UNK N   1      33.587  17.525   6.116  0.00  0.00     0.007 A 
ENDBRANCH  43  44
ENDBRANCH  30  43
ENDBRANCH  27  30
ENDBRANCH  26  27
ENDBRANCH   1  26
BRANCH   1  50
HETATM   50  C   UNK N   1      29.098  18.094   5.377  0.00  0.00     0.063 C 
BRANCH  50  51
HETATM   51  C   UNK N   1      29.114  17.831   6.867  0.00  0.00    -0.056 A 
HETATM   52  C   UNK N   1      30.216  17.209   7.457  0.00  0.00     0.007 A 
HETATM   53  C   UNK N   1      30.276  17.070   8.850  0.00  0.00     0.001 A 
HETATM   54  C   UNK N   1      29.241  17.556   9.656  0.00  0.00     0.000 A 
HETATM   55  C   UNK N   1      28.140  18.179   9.074  0.00  0.00     0.001 A 
HETATM   56  C   UNK N   1      28.091  18.323   7.692  0.00  0.00     0.007 A 
ENDBRANCH  50  51
ENDBRANCH   1  50
TORSDOF 19
ENDMDL
