MODEL 1
REMARK VINA RESULT:      -7.1      0.000      0.000
REMARK  10 active torsions:
REMARK  status: ('A' for Active; 'I' for Inactive)
REMARK    1  A    between atoms: C_2  and  C_1 
REMARK       I    between atoms: N_4  and  C_2 
REMARK    2  A    between atoms: O_18  and  C_3 
REMARK    3  A    between atoms: C_7  and  N_4 
REMARK    4  A    between atoms: C_9  and  O_20 
REMARK    5  A    between atoms: N_16  and  C_10 
REMARK    6  A    between atoms: C_27  and  N_11 
REMARK    7  A    between atoms: O_29  and  C_21 
REMARK    8  A    between atoms: C_28  and  C_27 
REMARK    9  A    between atoms: C_30  and  C_28 
REMARK   10  A    between atoms: C_30  and  O_29 
ROOT
HETATM    1  C   UNK N   1      22.473  18.477   4.143  0.00  0.00     0.117 C 
HETATM    2  C   UNK N   1      22.105  17.168   3.461  0.00  0.00     0.171 C 
HETATM    3  N   UNK N   1      22.235  16.612   5.908  0.00  0.00     0.091 N 
HETATM    4  C   UNK N   1      21.999  16.067   4.552  0.00  0.00     0.306 C 
HETATM    5  C   UNK N   1      21.496  18.875   5.244  0.00  0.00     0.058 C 
HETATM    6  C   UNK N   1      21.301  17.702   6.210  0.00  0.00     0.274 C 
ENDROOT
BRANCH   1   7
HETATM    7  N   UNK N   1      22.849  19.580   3.301  0.00  0.00    -0.350 N 
HETATM    8  C   UNK N   1      24.150  19.983   3.191  0.00  0.00     0.254 C 
HETATM    9  O   UNK N   1      24.378  21.036   2.628  0.00  0.00    -0.268 OA
HETATM   10  H   UNK N   1      22.153  20.056   2.792  0.00  0.00     0.163 HD
BRANCH   8  11
HETATM   11  C   UNK N   1      25.288  19.183   3.795  0.00  0.00     0.067 A 
HETATM   12  C   UNK N   1      26.008  19.607   4.949  0.00  0.00     0.086 A 
HETATM   13  C   UNK N   1      26.995  18.771   5.492  0.00  0.00     0.068 A 
HETATM   14  C   UNK N   1      27.309  17.545   4.903  0.00  0.00     0.050 A 
HETATM   15  C   UNK N   1      26.637  17.140   3.749  0.00  0.00     0.061 A 
HETATM   16  C   UNK N   1      25.643  17.951   3.217  0.00  0.00     0.046 A 
HETATM   17 Cl   UNK N   1      27.005  15.614   2.962  0.00  0.00    -0.082 Cl
BRANCH  12  18
HETATM   18  O   UNK N   1      25.740  20.765   5.586  0.00  0.00    -0.355 OA
HETATM   19  C   UNK N   1      26.676  21.389   6.374  0.00  0.00     0.210 C 
ENDBRANCH  12  18
BRANCH  14  20
HETATM   20  N   UNK N   1      28.304  16.727   5.476  0.00  0.00    -0.398 N 
HETATM   21  H   UNK N   1      29.256  16.924   5.316  0.00  0.00     0.156 HD
HETATM   22  H   UNK N   1      28.047  15.959   6.036  0.00  0.00     0.156 HD
ENDBRANCH  14  20
ENDBRANCH   8  11
ENDBRANCH   1   7
BRANCH   2  23
HETATM   23  O   UNK N   1      20.879  17.304   2.802  0.00  0.00    -0.387 OA
HETATM   24  C   UNK N   1      20.333  16.021   2.750  0.00  0.00     0.202 C 
ENDBRANCH   2  23
BRANCH   3  25
HETATM   25  C   UNK N   1      22.230  15.625   6.991  0.00  0.00     0.274 C 
BRANCH  25  26
HETATM   26  C   UNK N   1      20.887  14.944   7.240  0.00  0.00     0.057 C 
BRANCH  26  27
HETATM   27  C   UNK N   1      20.917  13.447   6.996  0.00  0.00     0.177 C 
BRANCH  27  28
HETATM   28  O   UNK N   1      20.723  12.841   8.213  0.00  0.00    -0.351 OA
BRANCH  28  29
HETATM   29  C   UNK N   1      21.728  12.541   9.064  0.00  0.00     0.068 A 
HETATM   30  C   UNK N   1      23.027  12.252   8.611  0.00  0.00     0.040 A 
HETATM   31  C   UNK N   1      24.044  11.969   9.531  0.00  0.00     0.045 A 
HETATM   32  C   UNK N   1      23.771  11.989  10.902  0.00  0.00     0.116 A 
HETATM   33  C   UNK N   1      22.481  12.272  11.354  0.00  0.00     0.045 A 
HETATM   34  F   UNK N   1      24.757  11.735  11.795  0.00  0.00    -0.206 F 
HETATM   35  C   UNK N   1      21.462  12.540  10.437  0.00  0.00     0.040 A 
ENDBRANCH  28  29
ENDBRANCH  27  28
ENDBRANCH  26  27
ENDBRANCH  25  26
ENDBRANCH   3  25
TORSDOF 10
ENDMDL
MODEL 2
REMARK VINA RESULT:      -7.0      9.697     12.391
REMARK  10 active torsions:
REMARK  status: ('A' for Active; 'I' for Inactive)
REMARK    1  A    between atoms: C_2  and  C_1 
REMARK       I    between atoms: N_4  and  C_2 
REMARK    2  A    between atoms: O_18  and  C_3 
REMARK    3  A    between atoms: C_7  and  N_4 
REMARK    4  A    between atoms: C_9  and  O_20 
REMARK    5  A    between atoms: N_16  and  C_10 
REMARK    6  A    between atoms: C_27  and  N_11 
REMARK    7  A    between atoms: O_29  and  C_21 
REMARK    8  A    between atoms: C_28  and  C_27 
REMARK    9  A    between atoms: C_30  and  C_28 
REMARK   10  A    between atoms: C_30  and  O_29 
ROOT
HETATM    1  C   UNK N   1      35.005  15.919   9.699  0.00  0.00     0.117 C 
HETATM    2  C   UNK N   1      34.708  15.412  11.103  0.00  0.00     0.171 C 
HETATM    3  N   UNK N   1      34.226  13.463   9.593  0.00  0.00     0.091 N 
HETATM    4  C   UNK N   1      34.217  13.943  10.994  0.00  0.00     0.306 C 
HETATM    5  C   UNK N   1      36.007  15.050   8.947  0.00  0.00     0.058 C 
HETATM    6  C   UNK N   1      35.562  13.585   9.001  0.00  0.00     0.274 C 
ENDROOT
BRANCH   1   7
HETATM    7  N   UNK N   1      35.253  17.326   9.542  0.00  0.00    -0.350 N 
HETATM    8  C   UNK N   1      34.561  18.075   8.632  0.00  0.00     0.254 C 
HETATM    9  O   UNK N   1      34.951  19.204   8.405  0.00  0.00    -0.268 OA
HETATM   10  H   UNK N   1      35.937  17.760  10.102  0.00  0.00     0.163 HD
BRANCH   8  11
HETATM   11  C   UNK N   1      33.374  17.516   7.874  0.00  0.00     0.067 A 
HETATM   12  C   UNK N   1      33.503  16.783   6.659  0.00  0.00     0.086 A 
HETATM   13  C   UNK N   1      32.360  16.231   6.061  0.00  0.00     0.068 A 
HETATM   14  C   UNK N   1      31.092  16.415   6.617  0.00  0.00     0.050 A 
HETATM   15  C   UNK N   1      30.951  17.164   7.785  0.00  0.00     0.061 A 
HETATM   16  C   UNK N   1      32.080  17.696   8.396  0.00  0.00     0.046 A 
HETATM   17 Cl   UNK N   1      29.378  17.436   8.516  0.00  0.00    -0.082 Cl
BRANCH  12  18
HETATM   18  O   UNK N   1      34.697  16.544   6.080  0.00  0.00    -0.355 OA
HETATM   19  C   UNK N   1      34.986  15.335   5.495  0.00  0.00     0.210 C 
ENDBRANCH  12  18
BRANCH  14  20
HETATM   20  N   UNK N   1      29.964  15.843   5.993  0.00  0.00    -0.398 N 
HETATM   21  H   UNK N   1      29.221  16.417   5.697  0.00  0.00     0.156 HD
HETATM   22  H   UNK N   1      29.920  14.869   5.853  0.00  0.00     0.156 HD
ENDBRANCH  14  20
ENDBRANCH   8  11
ENDBRANCH   1   7
BRANCH   2  23
HETATM   23  O   UNK N   1      35.868  15.469  11.883  0.00  0.00    -0.387 OA
HETATM   24  C   UNK N   1      35.819  14.350  12.715  0.00  0.00     0.202 C 
ENDBRANCH   2  23
BRANCH   3  25
HETATM   25  C   UNK N   1      33.702  12.109   9.390  0.00  0.00     0.274 C 
BRANCH  25  26
HETATM   26  C   UNK N   1      34.666  10.981   9.748  0.00  0.00     0.057 C 
BRANCH  26  27
HETATM   27  C   UNK N   1      34.196  10.135  10.915  0.00  0.00     0.177 C 
BRANCH  27  28
HETATM   28  O   UNK N   1      35.246  10.057  11.798  0.00  0.00    -0.351 OA
BRANCH  28  29
HETATM   29  C   UNK N   1      35.174  10.475  13.080  0.00  0.00     0.068 A 
HETATM   30  C   UNK N   1      36.323  10.795  13.824  0.00  0.00     0.040 A 
HETATM   31  C   UNK N   1      36.200  11.246  15.144  0.00  0.00     0.045 A 
HETATM   32  C   UNK N   1      34.934  11.395  15.716  0.00  0.00     0.116 A 
HETATM   33  C   UNK N   1      33.792  11.074  14.980  0.00  0.00     0.045 A 
HETATM   34  F   UNK N   1      34.811  11.850  16.985  0.00  0.00    -0.206 F 
HETATM   35  C   UNK N   1      33.913  10.610  13.668  0.00  0.00     0.040 A 
ENDBRANCH  28  29
ENDBRANCH  27  28
ENDBRANCH  26  27
ENDBRANCH  25  26
ENDBRANCH   3  25
TORSDOF 10
ENDMDL
MODEL 3
REMARK VINA RESULT:      -7.0      1.600      2.203
REMARK  10 active torsions:
REMARK  status: ('A' for Active; 'I' for Inactive)
REMARK    1  A    between atoms: C_2  and  C_1 
REMARK       I    between atoms: N_4  and  C_2 
REMARK    2  A    between atoms: O_18  and  C_3 
REMARK    3  A    between atoms: C_7  and  N_4 
REMARK    4  A    between atoms: C_9  and  O_20 
REMARK    5  A    between atoms: N_16  and  C_10 
REMARK    6  A    between atoms: C_27  and  N_11 
REMARK    7  A    between atoms: O_29  and  C_21 
REMARK    8  A    between atoms: C_28  and  C_27 
REMARK    9  A    between atoms: C_30  and  C_28 
REMARK   10  A    between atoms: C_30  and  O_29 
ROOT
HETATM    1  C   UNK N   1      22.493  18.247   4.022  0.00  0.00     0.117 C 
HETATM    2  C   UNK N   1      22.000  16.936   3.427  0.00  0.00     0.171 C 
HETATM    3  N   UNK N   1      22.489  16.413   5.836  0.00  0.00     0.091 N 
HETATM    4  C   UNK N   1      22.039  15.854   4.540  0.00  0.00     0.306 C 
HETATM    5  C   UNK N   1      21.702  18.682   5.251  0.00  0.00     0.058 C 
HETATM    6  C   UNK N   1      21.633  17.527   6.256  0.00  0.00     0.274 C 
ENDROOT
BRANCH   1   7
HETATM    7  N   UNK N   1      22.758  19.329   3.113  0.00  0.00    -0.350 N 
HETATM    8  C   UNK N   1      23.955  19.989   3.120  0.00  0.00     0.254 C 
HETATM    9  O   UNK N   1      24.046  21.014   2.474  0.00  0.00    -0.268 OA
HETATM   10  H   UNK N   1      22.062  19.600   2.472  0.00  0.00     0.163 HD
BRANCH   8  11
HETATM   11  C   UNK N   1      25.130  19.505   3.947  0.00  0.00     0.067 A 
HETATM   12  C   UNK N   1      25.738  18.231   3.761  0.00  0.00     0.086 A 
HETATM   13  C   UNK N   1      26.873  17.890   4.513  0.00  0.00     0.068 A 
HETATM   14  C   UNK N   1      27.397  18.766   5.466  0.00  0.00     0.050 A 
HETATM   15  C   UNK N   1      26.785  20.000   5.683  0.00  0.00     0.061 A 
HETATM   16  C   UNK N   1      25.674  20.354   4.928  0.00  0.00     0.046 A 
HETATM   17 Cl   UNK N   1      27.396  21.129   6.881  0.00  0.00    -0.082 Cl
BRANCH  12  18
HETATM   18  O   UNK N   1      25.303  17.347   2.840  0.00  0.00    -0.355 OA
HETATM   19  C   UNK N   1      25.965  16.167   2.602  0.00  0.00     0.210 C 
ENDBRANCH  12  18
BRANCH  14  20
HETATM   20  N   UNK N   1      28.541  18.395   6.203  0.00  0.00    -0.398 N 
HETATM   21  H   UNK N   1      28.706  17.447   6.413  0.00  0.00     0.156 HD
HETATM   22  H   UNK N   1      29.174  19.084   6.509  0.00  0.00     0.156 HD
ENDBRANCH  14  20
ENDBRANCH   8  11
ENDBRANCH   1   7
BRANCH   2  23
HETATM   23  O   UNK N   1      20.692  17.089   2.958  0.00  0.00    -0.387 OA
HETATM   24  C   UNK N   1      20.514  16.091   2.000  0.00  0.00     0.202 C 
ENDBRANCH   2  23
BRANCH   3  25
HETATM   25  C   UNK N   1      22.629  15.442   6.924  0.00  0.00     0.274 C 
BRANCH  25  26
HETATM   26  C   UNK N   1      21.430  15.346   7.865  0.00  0.00     0.057 C 
BRANCH  26  27
HETATM   27  C   UNK N   1      20.797  13.968   7.895  0.00  0.00     0.177 C 
BRANCH  27  28
HETATM   28  O   UNK N   1      21.807  13.072   8.146  0.00  0.00    -0.351 OA
BRANCH  28  29
HETATM   29  C   UNK N   1      22.179  12.696   9.389  0.00  0.00     0.068 A 
HETATM   30  C   UNK N   1      23.528  12.498   9.735  0.00  0.00     0.040 A 
HETATM   31  C   UNK N   1      23.868  12.130  11.042  0.00  0.00     0.045 A 
HETATM   32  C   UNK N   1      22.870  11.975  12.008  0.00  0.00     0.116 A 
HETATM   33  C   UNK N   1      21.530  12.167  11.664  0.00  0.00     0.045 A 
HETATM   34  F   UNK N   1      23.198  11.638  13.277  0.00  0.00    -0.206 F 
HETATM   35  C   UNK N   1      21.187  12.520  10.357  0.00  0.00     0.040 A 
ENDBRANCH  28  29
ENDBRANCH  27  28
ENDBRANCH  26  27
ENDBRANCH  25  26
ENDBRANCH   3  25
TORSDOF 10
ENDMDL
MODEL 4
REMARK VINA RESULT:      -6.9     13.048     15.790
REMARK  10 active torsions:
REMARK  status: ('A' for Active; 'I' for Inactive)
REMARK    1  A    between atoms: C_2  and  C_1 
REMARK       I    between atoms: N_4  and  C_2 
REMARK    2  A    between atoms: O_18  and  C_3 
REMARK    3  A    between atoms: C_7  and  N_4 
REMARK    4  A    between atoms: C_9  and  O_20 
REMARK    5  A    between atoms: N_16  and  C_10 
REMARK    6  A    between atoms: C_27  and  N_11 
REMARK    7  A    between atoms: O_29  and  C_21 
REMARK    8  A    between atoms: C_28  and  C_27 
REMARK    9  A    between atoms: C_30  and  C_28 
REMARK   10  A    between atoms: C_30  and  O_29 
ROOT
HETATM    1  C   UNK N   1      27.087  24.969  -4.037  0.00  0.00     0.117 C 
HETATM    2  C   UNK N   1      27.137  26.490  -4.054  0.00  0.00     0.171 C 
HETATM    3  N   UNK N   1      27.014  25.815  -6.472  0.00  0.00     0.091 N 
HETATM    4  C   UNK N   1      27.120  26.958  -5.535  0.00  0.00     0.306 C 
HETATM    5  C   UNK N   1      25.887  24.400  -4.787  0.00  0.00     0.058 C 
HETATM    6  C   UNK N   1      25.821  25.010  -6.191  0.00  0.00     0.274 C 
ENDROOT
BRANCH   1   7
HETATM    7  N   UNK N   1      27.325  24.313  -2.780  0.00  0.00    -0.350 N 
HETATM    8  C   UNK N   1      28.417  23.515  -2.588  0.00  0.00     0.254 C 
HETATM    9  O   UNK N   1      28.458  22.833  -1.582  0.00  0.00    -0.268 OA
HETATM   10  H   UNK N   1      26.687  24.442  -2.041  0.00  0.00     0.163 HD
BRANCH   8  11
HETATM   11  C   UNK N   1      29.530  23.422  -3.613  0.00  0.00     0.067 A 
HETATM   12  C   UNK N   1      30.541  24.416  -3.754  0.00  0.00     0.086 A 
HETATM   13  C   UNK N   1      31.582  24.217  -4.673  0.00  0.00     0.068 A 
HETATM   14  C   UNK N   1      31.627  23.077  -5.478  0.00  0.00     0.050 A 
HETATM   15  C   UNK N   1      30.621  22.117  -5.375  0.00  0.00     0.061 A 
HETATM   16  C   UNK N   1      29.598  22.295  -4.452  0.00  0.00     0.046 A 
HETATM   17 Cl   UNK N   1      30.624  20.673  -6.375  0.00  0.00    -0.082 Cl
BRANCH  12  18
HETATM   18  O   UNK N   1      30.575  25.528  -2.992  0.00  0.00    -0.355 OA
HETATM   19  C   UNK N   1      30.942  26.747  -3.510  0.00  0.00     0.210 C 
ENDBRANCH  12  18
BRANCH  14  20
HETATM   20  N   UNK N   1      32.689  22.905  -6.390  0.00  0.00    -0.398 N 
HETATM   21  H   UNK N   1      32.613  22.245  -7.116  0.00  0.00     0.156 HD
HETATM   22  H   UNK N   1      33.507  23.446  -6.300  0.00  0.00     0.156 HD
ENDBRANCH  14  20
ENDBRANCH   8  11
ENDBRANCH   1   7
BRANCH   2  23
HETATM   23  O   UNK N   1      26.029  27.010  -3.378  0.00  0.00    -0.387 OA
HETATM   24  C   UNK N   1      25.680  28.174  -4.064  0.00  0.00     0.202 C 
ENDBRANCH   2  23
BRANCH   3  25
HETATM   25  C   UNK N   1      27.069  26.163  -7.895  0.00  0.00     0.274 C 
BRANCH  25  26
HETATM   26  C   UNK N   1      25.736  26.081  -8.633  0.00  0.00     0.057 C 
BRANCH  26  27
HETATM   27  C   UNK N   1      25.815  25.311  -9.937  0.00  0.00     0.177 C 
BRANCH  27  28
HETATM   28  O   UNK N   1      25.240  24.085  -9.711  0.00  0.00    -0.351 OA
BRANCH  28  29
HETATM   29  C   UNK N   1      25.932  23.003  -9.292  0.00  0.00     0.068 A 
HETATM   30  C   UNK N   1      27.295  22.828  -9.592  0.00  0.00     0.040 A 
HETATM   31  C   UNK N   1      27.978  21.702  -9.118  0.00  0.00     0.045 A 
HETATM   32  C   UNK N   1      27.309  20.758  -8.332  0.00  0.00     0.116 A 
HETATM   33  C   UNK N   1      25.955  20.928  -8.037  0.00  0.00     0.045 A 
HETATM   34  F   UNK N   1      27.972  19.678  -7.856  0.00  0.00    -0.206 F 
HETATM   35  C   UNK N   1      25.269  22.044  -8.521  0.00  0.00     0.040 A 
ENDBRANCH  28  29
ENDBRANCH  27  28
ENDBRANCH  26  27
ENDBRANCH  25  26
ENDBRANCH   3  25
TORSDOF 10
ENDMDL
MODEL 5
REMARK VINA RESULT:      -6.9      3.491      7.431
REMARK  10 active torsions:
REMARK  status: ('A' for Active; 'I' for Inactive)
REMARK    1  A    between atoms: C_2  and  C_1 
REMARK       I    between atoms: N_4  and  C_2 
REMARK    2  A    between atoms: O_18  and  C_3 
REMARK    3  A    between atoms: C_7  and  N_4 
REMARK    4  A    between atoms: C_9  and  O_20 
REMARK    5  A    between atoms: N_16  and  C_10 
REMARK    6  A    between atoms: C_27  and  N_11 
REMARK    7  A    between atoms: O_29  and  C_21 
REMARK    8  A    between atoms: C_28  and  C_27 
REMARK    9  A    between atoms: C_30  and  C_28 
REMARK   10  A    between atoms: C_30  and  O_29 
ROOT
HETATM    1  C   UNK N   1      21.174  16.455   4.365  0.00  0.00     0.117 C 
HETATM    2  C   UNK N   1      21.990  17.719   4.593  0.00  0.00     0.171 C 
HETATM    3  N   UNK N   1      23.690  15.890   4.308  0.00  0.00     0.091 N 
HETATM    4  C   UNK N   1      23.495  17.333   4.580  0.00  0.00     0.306 C 
HETATM    5  C   UNK N   1      21.551  15.722   3.081  0.00  0.00     0.058 C 
HETATM    6  C   UNK N   1      23.067  15.502   3.039  0.00  0.00     0.274 C 
ENDROOT
BRANCH   1   7
HETATM    7  N   UNK N   1      19.753  16.538   4.566  0.00  0.00    -0.350 N 
HETATM    8  C   UNK N   1      19.153  15.974   5.656  0.00  0.00     0.254 C 
HETATM    9  O   UNK N   1      17.940  15.903   5.670  0.00  0.00    -0.268 OA
HETATM   10  H   UNK N   1      19.201  17.013   3.904  0.00  0.00     0.163 HD
BRANCH   8  11
HETATM   11  C   UNK N   1      19.960  15.395   6.802  0.00  0.00     0.067 A 
HETATM   12  C   UNK N   1      20.177  16.089   8.028  0.00  0.00     0.086 A 
HETATM   13  C   UNK N   1      20.867  15.451   9.069  0.00  0.00     0.068 A 
HETATM   14  C   UNK N   1      21.376  14.160   8.915  0.00  0.00     0.050 A 
HETATM   15  C   UNK N   1      21.203  13.488   7.705  0.00  0.00     0.061 A 
HETATM   16  C   UNK N   1      20.502  14.103   6.676  0.00  0.00     0.046 A 
HETATM   17 Cl   UNK N   1      21.837  11.869   7.456  0.00  0.00    -0.082 Cl
BRANCH  12  18
HETATM   18  O   UNK N   1      19.691  17.326   8.256  0.00  0.00    -0.355 OA
HETATM   19  C   UNK N   1      18.622  17.539   9.092  0.00  0.00     0.210 C 
ENDBRANCH  12  18
BRANCH  14  20
HETATM   20  N   UNK N   1      22.062  13.546   9.983  0.00  0.00    -0.398 N 
HETATM   21  H   UNK N   1      21.606  12.875  10.542  0.00  0.00     0.156 HD
HETATM   22  H   UNK N   1      22.999  13.786  10.170  0.00  0.00     0.156 HD
ENDBRANCH  14  20
ENDBRANCH   8  11
ENDBRANCH   1   7
BRANCH   2  23
HETATM   23  O   UNK N   1      21.728  18.644   3.578  0.00  0.00    -0.387 OA
HETATM   24  C   UNK N   1      22.853  19.467   3.516  0.00  0.00     0.202 C 
ENDBRANCH   2  23
BRANCH   3  25
HETATM   25  C   UNK N   1      25.079  15.425   4.355  0.00  0.00     0.274 C 
BRANCH  25  26
HETATM   26  C   UNK N   1      25.863  15.594   3.057  0.00  0.00     0.057 C 
BRANCH  26  27
HETATM   27  C   UNK N   1      27.057  16.521   3.191  0.00  0.00     0.177 C 
BRANCH  27  28
HETATM   28  O   UNK N   1      27.122  16.897   4.509  0.00  0.00    -0.351 OA
BRANCH  28  29
HETATM   29  C   UNK N   1      27.144  18.184   4.917  0.00  0.00     0.068 A 
HETATM   30  C   UNK N   1      27.606  18.554   6.193  0.00  0.00     0.040 A 
HETATM   31  C   UNK N   1      27.633  19.904   6.564  0.00  0.00     0.045 A 
HETATM   32  C   UNK N   1      27.214  20.886   5.662  0.00  0.00     0.116 A 
HETATM   33  C   UNK N   1      26.751  20.520   4.397  0.00  0.00     0.045 A 
HETATM   34  F   UNK N   1      27.256  22.193   6.012  0.00  0.00    -0.206 F 
HETATM   35  C   UNK N   1      26.710  19.173   4.029  0.00  0.00     0.040 A 
ENDBRANCH  28  29
ENDBRANCH  27  28
ENDBRANCH  26  27
ENDBRANCH  25  26
ENDBRANCH   3  25
TORSDOF 10
ENDMDL
MODEL 6
REMARK VINA RESULT:      -6.9      7.548     11.026
REMARK  10 active torsions:
REMARK  status: ('A' for Active; 'I' for Inactive)
REMARK    1  A    between atoms: C_2  and  C_1 
REMARK       I    between atoms: N_4  and  C_2 
REMARK    2  A    between atoms: O_18  and  C_3 
REMARK    3  A    between atoms: C_7  and  N_4 
REMARK    4  A    between atoms: C_9  and  O_20 
REMARK    5  A    between atoms: N_16  and  C_10 
REMARK    6  A    between atoms: C_27  and  N_11 
REMARK    7  A    between atoms: O_29  and  C_21 
REMARK    8  A    between atoms: C_28  and  C_27 
REMARK    9  A    between atoms: C_30  and  C_28 
REMARK   10  A    between atoms: C_30  and  O_29 
ROOT
HETATM    1  C   UNK N   1      33.635  16.307   6.440  0.00  0.00     0.117 C 
HETATM    2  C   UNK N   1      32.375  16.311   5.586  0.00  0.00     0.171 C 
HETATM    3  N   UNK N   1      31.584  16.828   7.915  0.00  0.00     0.091 N 
HETATM    4  C   UNK N   1      31.163  16.600   6.514  0.00  0.00     0.306 C 
HETATM    5  C   UNK N   1      33.829  17.599   7.227  0.00  0.00     0.058 C 
HETATM    6  C   UNK N   1      32.551  17.927   8.005  0.00  0.00     0.274 C 
ENDROOT
BRANCH   1   7
HETATM    7  N   UNK N   1      34.847  15.834   5.829  0.00  0.00    -0.350 N 
HETATM    8  C   UNK N   1      35.699  14.995   6.491  0.00  0.00     0.254 C 
HETATM    9  O   UNK N   1      36.795  14.792   6.005  0.00  0.00    -0.268 OA
HETATM   10  H   UNK N   1      35.068  16.121   4.914  0.00  0.00     0.163 HD
BRANCH   8  11
HETATM   11  C   UNK N   1      35.331  14.369   7.822  0.00  0.00     0.067 A 
HETATM   12  C   UNK N   1      34.668  13.113   7.932  0.00  0.00     0.086 A 
HETATM   13  C   UNK N   1      34.434  12.565   9.202  0.00  0.00     0.068 A 
HETATM   14  C   UNK N   1      34.809  13.245  10.363  0.00  0.00     0.050 A 
HETATM   15  C   UNK N   1      35.423  14.494  10.266  0.00  0.00     0.061 A 
HETATM   16  C   UNK N   1      35.678  15.034   9.012  0.00  0.00     0.046 A 
HETATM   17 Cl   UNK N   1      35.899  15.395  11.696  0.00  0.00    -0.082 Cl
BRANCH  12  18
HETATM   18  O   UNK N   1      34.302  12.389   6.855  0.00  0.00    -0.355 OA
HETATM   19  C   UNK N   1      33.032  12.456   6.337  0.00  0.00     0.210 C 
ENDBRANCH  12  18
BRANCH  14  20
HETATM   20  N   UNK N   1      34.563  12.665  11.625  0.00  0.00    -0.398 N 
HETATM   21  H   UNK N   1      34.334  13.236  12.394  0.00  0.00     0.156 HD
HETATM   22  H   UNK N   1      34.619  11.688  11.737  0.00  0.00     0.156 HD
ENDBRANCH  14  20
ENDBRANCH   8  11
ENDBRANCH   1   7
BRANCH   2  23
HETATM   23  O   UNK N   1      32.469  17.303   4.605  0.00  0.00    -0.387 OA
HETATM   24  C   UNK N   1      31.896  16.755   3.457  0.00  0.00     0.202 C 
ENDBRANCH   2  23
BRANCH   3  25
HETATM   25  C   UNK N   1      30.494  17.031   8.874  0.00  0.00     0.274 C 
BRANCH  25  26
HETATM   26  C   UNK N   1      30.057  18.481   9.059  0.00  0.00     0.057 C 
BRANCH  26  27
HETATM   27  C   UNK N   1      28.564  18.688   8.884  0.00  0.00     0.177 C 
BRANCH  27  28
HETATM   28  O   UNK N   1      28.215  18.081   7.702  0.00  0.00    -0.351 OA
BRANCH  28  29
HETATM   29  C   UNK N   1      27.871  18.763   6.588  0.00  0.00     0.068 A 
HETATM   30  C   UNK N   1      27.908  18.172   5.312  0.00  0.00     0.040 A 
HETATM   31  C   UNK N   1      27.521  18.909   4.187  0.00  0.00     0.045 A 
HETATM   32  C   UNK N   1      27.081  20.228   4.333  0.00  0.00     0.116 A 
HETATM   33  C   UNK N   1      27.048  20.817   5.599  0.00  0.00     0.045 A 
HETATM   34  F   UNK N   1      26.687  20.937   3.249  0.00  0.00    -0.206 F 
HETATM   35  C   UNK N   1      27.448  20.088   6.720  0.00  0.00     0.040 A 
ENDBRANCH  28  29
ENDBRANCH  27  28
ENDBRANCH  26  27
ENDBRANCH  25  26
ENDBRANCH   3  25
TORSDOF 10
ENDMDL
MODEL 7
REMARK VINA RESULT:      -6.8      7.064     10.566
REMARK  10 active torsions:
REMARK  status: ('A' for Active; 'I' for Inactive)
REMARK    1  A    between atoms: C_2  and  C_1 
REMARK       I    between atoms: N_4  and  C_2 
REMARK    2  A    between atoms: O_18  and  C_3 
REMARK    3  A    between atoms: C_7  and  N_4 
REMARK    4  A    between atoms: C_9  and  O_20 
REMARK    5  A    between atoms: N_16  and  C_10 
REMARK    6  A    between atoms: C_27  and  N_11 
REMARK    7  A    between atoms: O_29  and  C_21 
REMARK    8  A    between atoms: C_28  and  C_27 
REMARK    9  A    between atoms: C_30  and  C_28 
REMARK   10  A    between atoms: C_30  and  O_29 
ROOT
HETATM    1  C   UNK N   1      33.225  16.593   6.641  0.00  0.00     0.117 C 
HETATM    2  C   UNK N   1      31.920  16.469   5.867  0.00  0.00     0.171 C 
HETATM    3  N   UNK N   1      31.229  16.795   8.261  0.00  0.00     0.091 N 
HETATM    4  C   UNK N   1      30.746  16.567   6.879  0.00  0.00     0.306 C 
HETATM    5  C   UNK N   1      33.310  17.869   7.472  0.00  0.00     0.058 C 
HETATM    6  C   UNK N   1      32.055  18.004   8.340  0.00  0.00     0.274 C 
ENDROOT
BRANCH   1   7
HETATM    7  N   UNK N   1      34.443  16.300   5.936  0.00  0.00    -0.350 N 
HETATM    8  C   UNK N   1      35.240  15.250   6.296  0.00  0.00     0.254 C 
HETATM    9  O   UNK N   1      36.346  15.174   5.798  0.00  0.00    -0.268 OA
HETATM   10  H   UNK N   1      34.709  16.869   5.178  0.00  0.00     0.163 HD
BRANCH   8  11
HETATM   11  C   UNK N   1      34.800  14.229   7.327  0.00  0.00     0.067 A 
HETATM   12  C   UNK N   1      34.946  14.429   8.730  0.00  0.00     0.086 A 
HETATM   13  C   UNK N   1      34.441  13.470   9.621  0.00  0.00     0.068 A 
HETATM   14  C   UNK N   1      33.828  12.305   9.156  0.00  0.00     0.050 A 
HETATM   15  C   UNK N   1      33.716  12.081   7.784  0.00  0.00     0.061 A 
HETATM   16  C   UNK N   1      34.194  13.036   6.895  0.00  0.00     0.046 A 
HETATM   17 Cl   UNK N   1      32.967  10.624   7.150  0.00  0.00    -0.082 Cl
BRANCH  12  18
HETATM   18  O   UNK N   1      35.503  15.542   9.249  0.00  0.00    -0.355 OA
HETATM   19  C   UNK N   1      34.938  16.203  10.313  0.00  0.00     0.210 C 
ENDBRANCH  12  18
BRANCH  14  20
HETATM   20  N   UNK N   1      33.328  11.362  10.078  0.00  0.00    -0.398 N 
HETATM   21  H   UNK N   1      32.618  10.735   9.806  0.00  0.00     0.156 HD
HETATM   22  H   UNK N   1      33.688  11.329  10.993  0.00  0.00     0.156 HD
ENDBRANCH  14  20
ENDBRANCH   8  11
ENDBRANCH   1   7
BRANCH   2  23
HETATM   23  O   UNK N   1      31.826  17.500   4.927  0.00  0.00    -0.387 OA
HETATM   24  C   UNK N   1      31.598  16.874   3.701  0.00  0.00     0.202 C 
ENDBRANCH   2  23
BRANCH   3  25
HETATM   25  C   UNK N   1      30.188  16.824   9.292  0.00  0.00     0.274 C 
BRANCH  25  26
HETATM   26  C   UNK N   1      29.465  18.159   9.447  0.00  0.00     0.057 C 
BRANCH  26  27
HETATM   27  C   UNK N   1      28.213  18.269   8.598  0.00  0.00     0.177 C 
BRANCH  27  28
HETATM   28  O   UNK N   1      28.266  19.487   7.966  0.00  0.00    -0.351 OA
BRANCH  28  29
HETATM   29  C   UNK N   1      27.814  19.696   6.711  0.00  0.00     0.068 A 
HETATM   30  C   UNK N   1      28.210  18.886   5.632  0.00  0.00     0.040 A 
HETATM   31  C   UNK N   1      27.698  19.126   4.352  0.00  0.00     0.045 A 
HETATM   32  C   UNK N   1      26.781  20.161   4.148  0.00  0.00     0.116 A 
HETATM   33  C   UNK N   1      26.390  20.969   5.218  0.00  0.00     0.045 A 
HETATM   34  F   UNK N   1      26.269  20.383   2.914  0.00  0.00    -0.206 F 
HETATM   35  C   UNK N   1      26.911  20.741   6.493  0.00  0.00     0.040 A 
ENDBRANCH  28  29
ENDBRANCH  27  28
ENDBRANCH  26  27
ENDBRANCH  25  26
ENDBRANCH   3  25
TORSDOF 10
ENDMDL
MODEL 8
REMARK VINA RESULT:      -6.8      5.596      8.804
REMARK  10 active torsions:
REMARK  status: ('A' for Active; 'I' for Inactive)
REMARK    1  A    between atoms: C_2  and  C_1 
REMARK       I    between atoms: N_4  and  C_2 
REMARK    2  A    between atoms: O_18  and  C_3 
REMARK    3  A    between atoms: C_7  and  N_4 
REMARK    4  A    between atoms: C_9  and  O_20 
REMARK    5  A    between atoms: N_16  and  C_10 
REMARK    6  A    between atoms: C_27  and  N_11 
REMARK    7  A    between atoms: O_29  and  C_21 
REMARK    8  A    between atoms: C_28  and  C_27 
REMARK    9  A    between atoms: C_30  and  C_28 
REMARK   10  A    between atoms: C_30  and  O_29 
ROOT
HETATM    1  C   UNK N   1      31.193  15.941   4.185  0.00  0.00     0.117 C 
HETATM    2  C   UNK N   1      31.095  14.445   4.448  0.00  0.00     0.171 C 
HETATM    3  N   UNK N   1      28.717  15.220   4.208  0.00  0.00     0.091 N 
HETATM    4  C   UNK N   1      29.591  14.057   4.482  0.00  0.00     0.306 C 
HETATM    5  C   UNK N   1      30.475  16.374   2.910  0.00  0.00     0.058 C 
HETATM    6  C   UNK N   1      29.042  15.834   2.916  0.00  0.00     0.274 C 
ENDROOT
BRANCH   1   7
HETATM    7  N   UNK N   1      32.482  16.558   4.341  0.00  0.00    -0.350 N 
HETATM    8  C   UNK N   1      32.862  17.126   5.524  0.00  0.00     0.254 C 
HETATM    9  O   UNK N   1      33.872  17.803   5.536  0.00  0.00    -0.268 OA
HETATM   10  H   UNK N   1      33.104  16.571   3.578  0.00  0.00     0.163 HD
BRANCH   8  11
HETATM   11  C   UNK N   1      32.034  16.977   6.785  0.00  0.00     0.067 A 
HETATM   12  C   UNK N   1      32.394  16.105   7.853  0.00  0.00     0.086 A 
HETATM   13  C   UNK N   1      31.617  16.084   9.020  0.00  0.00     0.068 A 
HETATM   14  C   UNK N   1      30.475  16.879   9.142  0.00  0.00     0.050 A 
HETATM   15  C   UNK N   1      30.092  17.707   8.087  0.00  0.00     0.061 A 
HETATM   16  C   UNK N   1      30.868  17.750   6.936  0.00  0.00     0.046 A 
HETATM   17 Cl   UNK N   1      28.656  18.713   8.185  0.00  0.00    -0.082 Cl
BRANCH  12  18
HETATM   18  O   UNK N   1      33.498  15.331   7.815  0.00  0.00    -0.355 OA
HETATM   19  C   UNK N   1      34.635  15.660   8.511  0.00  0.00     0.210 C 
ENDBRANCH  12  18
BRANCH  14  20
HETATM   20  N   UNK N   1      29.717  16.838  10.331  0.00  0.00    -0.398 N 
HETATM   21  H   UNK N   1      29.550  17.665  10.838  0.00  0.00     0.156 HD
HETATM   22  H   UNK N   1      29.353  15.981  10.653  0.00  0.00     0.156 HD
ENDBRANCH  14  20
ENDBRANCH   8  11
ENDBRANCH   1   7
BRANCH   2  23
HETATM   23  O   UNK N   1      31.745  13.741   3.430  0.00  0.00    -0.387 OA
HETATM   24  C   UNK N   1      31.017  12.562   3.263  0.00  0.00     0.202 C 
ENDBRANCH   2  23
BRANCH   3  25
HETATM   25  C   UNK N   1      27.277  14.958   4.297  0.00  0.00     0.274 C 
BRANCH  25  26
HETATM   26  C   UNK N   1      26.436  15.577   3.184  0.00  0.00     0.057 C 
BRANCH  26  27
HETATM   27  C   UNK N   1      25.423  16.589   3.685  0.00  0.00     0.177 C 
BRANCH  27  28
HETATM   28  O   UNK N   1      25.819  17.815   3.211  0.00  0.00    -0.351 OA
BRANCH  28  29
HETATM   29  C   UNK N   1      26.331  18.788   3.995  0.00  0.00     0.068 A 
HETATM   30  C   UNK N   1      27.714  19.035   4.068  0.00  0.00     0.040 A 
HETATM   31  C   UNK N   1      28.199  20.069   4.877  0.00  0.00     0.045 A 
HETATM   32  C   UNK N   1      27.308  20.868   5.599  0.00  0.00     0.116 A 
HETATM   33  C   UNK N   1      25.935  20.622   5.531  0.00  0.00     0.045 A 
HETATM   34  F   UNK N   1      27.773  21.882   6.367  0.00  0.00    -0.206 F 
HETATM   35  C   UNK N   1      25.451  19.581   4.736  0.00  0.00     0.040 A 
ENDBRANCH  28  29
ENDBRANCH  27  28
ENDBRANCH  26  27
ENDBRANCH  25  26
ENDBRANCH   3  25
TORSDOF 10
ENDMDL
MODEL 9
REMARK VINA RESULT:      -6.7      3.516      7.257
REMARK  10 active torsions:
REMARK  status: ('A' for Active; 'I' for Inactive)
REMARK    1  A    between atoms: C_2  and  C_1 
REMARK       I    between atoms: N_4  and  C_2 
REMARK    2  A    between atoms: O_18  and  C_3 
REMARK    3  A    between atoms: C_7  and  N_4 
REMARK    4  A    between atoms: C_9  and  O_20 
REMARK    5  A    between atoms: N_16  and  C_10 
REMARK    6  A    between atoms: C_27  and  N_11 
REMARK    7  A    between atoms: O_29  and  C_21 
REMARK    8  A    between atoms: C_28  and  C_27 
REMARK    9  A    between atoms: C_30  and  C_28 
REMARK   10  A    between atoms: C_30  and  O_29 
ROOT
HETATM    1  C   UNK N   1      21.189  16.941   4.645  0.00  0.00     0.117 C 
HETATM    2  C   UNK N   1      21.729  18.363   4.660  0.00  0.00     0.171 C 
HETATM    3  N   UNK N   1      23.750  16.897   4.944  0.00  0.00     0.091 N 
HETATM    4  C   UNK N   1      23.267  18.295   4.870  0.00  0.00     0.306 C 
HETATM    5  C   UNK N   1      21.856  16.057   3.596  0.00  0.00     0.058 C 
HETATM    6  C   UNK N   1      23.379  16.145   3.741  0.00  0.00     0.274 C 
ENDROOT
BRANCH   1   7
HETATM    7  N   UNK N   1      19.762  16.774   4.694  0.00  0.00    -0.350 N 
HETATM    8  C   UNK N   1      19.168  15.988   5.640  0.00  0.00     0.254 C 
HETATM    9  O   UNK N   1      17.988  15.727   5.509  0.00  0.00    -0.268 OA
HETATM   10  H   UNK N   1      19.201  17.236   4.030  0.00  0.00     0.163 HD
BRANCH   8  11
HETATM   11  C   UNK N   1      19.950  15.402   6.799  0.00  0.00     0.067 A 
HETATM   12  C   UNK N   1      20.112  16.072   8.045  0.00  0.00     0.086 A 
HETATM   13  C   UNK N   1      20.784  15.427   9.095  0.00  0.00     0.068 A 
HETATM   14  C   UNK N   1      21.327  14.151   8.929  0.00  0.00     0.050 A 
HETATM   15  C   UNK N   1      21.208  13.503   7.699  0.00  0.00     0.061 A 
HETATM   16  C   UNK N   1      20.526  14.125   6.662  0.00  0.00     0.046 A 
HETATM   17 Cl   UNK N   1      21.887  11.905   7.436  0.00  0.00    -0.082 Cl
BRANCH  12  18
HETATM   18  O   UNK N   1      19.591  17.293   8.285  0.00  0.00    -0.355 OA
HETATM   19  C   UNK N   1      18.492  17.463   9.091  0.00  0.00     0.210 C 
ENDBRANCH  12  18
BRANCH  14  20
HETATM   20  N   UNK N   1      21.993  13.528  10.005  0.00  0.00    -0.398 N 
HETATM   21  H   UNK N   1      21.480  13.200  10.778  0.00  0.00     0.156 HD
HETATM   22  H   UNK N   1      22.972  13.422   9.982  0.00  0.00     0.156 HD
ENDBRANCH  14  20
ENDBRANCH   8  11
ENDBRANCH   1   7
BRANCH   2  23
HETATM   23  O   UNK N   1      21.442  18.993   3.445  0.00  0.00    -0.387 OA
HETATM   24  C   UNK N   1      22.513  19.855   3.205  0.00  0.00     0.202 C 
ENDBRANCH   2  23
BRANCH   3  25
HETATM   25  C   UNK N   1      25.181  16.741   5.219  0.00  0.00     0.274 C 
BRANCH  25  26
HETATM   26  C   UNK N   1      26.099  17.652   4.409  0.00  0.00     0.057 C 
BRANCH  26  27
HETATM   27  C   UNK N   1      27.560  17.537   4.799  0.00  0.00     0.177 C 
BRANCH  27  28
HETATM   28  O   UNK N   1      27.627  17.739   6.155  0.00  0.00    -0.351 OA
BRANCH  28  29
HETATM   29  C   UNK N   1      28.785  17.769   6.849  0.00  0.00     0.068 A 
HETATM   30  C   UNK N   1      28.878  18.363   8.120  0.00  0.00     0.040 A 
HETATM   31  C   UNK N   1      30.094  18.350   8.813  0.00  0.00     0.045 A 
HETATM   32  C   UNK N   1      31.214  17.733   8.248  0.00  0.00     0.116 A 
HETATM   33  C   UNK N   1      31.125  17.146   6.983  0.00  0.00     0.045 A 
HETATM   34  F   UNK N   1      32.387  17.702   8.923  0.00  0.00    -0.206 F 
HETATM   35  C   UNK N   1      29.916  17.171   6.285  0.00  0.00     0.040 A 
ENDBRANCH  28  29
ENDBRANCH  27  28
ENDBRANCH  26  27
ENDBRANCH  25  26
ENDBRANCH   3  25
TORSDOF 10
ENDMDL
