MODEL 1
REMARK VINA RESULT:      -7.8      0.000      0.000
REMARK  2 active torsions:
REMARK  status: ('A' for Active; 'I' for Inactive)
REMARK    1  A    between atoms: C_3  and  O_21 
REMARK    2  A    between atoms: C_15  and  C_16 
ROOT
HETATM    1  C   UNK N   1      35.578  13.870  15.746  0.00  0.00     0.010 C 
HETATM    2  C   UNK N   1      35.445  12.736  18.492  0.00  0.00     0.010 C 
HETATM    3  C   UNK N   1      36.168  12.851  13.728  0.00  0.00     0.128 C 
HETATM    4  C   UNK N   1      36.977  10.517  15.161  0.00  0.00     0.047 C 
HETATM    5  C   UNK N   1      36.536  14.049  14.574  0.00  0.00     0.052 C 
HETATM    6  C   UNK N   1      35.489   9.735  18.873  0.00  0.00     0.023 C 
HETATM    7  C   UNK N   1      36.305   9.711  16.321  0.00  0.00    -0.083 C 
HETATM    8  C   UNK N   1      35.171  12.186  19.888  0.00  0.00     0.035 C 
HETATM    9  C   UNK N   1      35.168  10.690  20.024  0.00  0.00    -0.072 C 
HETATM   10  C   UNK N   1      34.263   8.825  18.737  0.00  0.00     0.017 C 
HETATM   11  C   UNK N   1      34.745  10.184  21.190  0.00  0.00     0.053 C 
HETATM   12  C   UNK N   1      34.149   7.959  20.023  0.00  0.00     0.084 C 
HETATM   13  C   UNK N   1      35.227  11.774  17.306  0.00  0.00    -0.000 C 
HETATM   14  C   UNK N   1      36.019  10.487  17.609  0.00  0.00     0.026 C 
HETATM   15  C   UNK N   1      35.969  11.617  14.719  0.00  0.00     0.009 C 
HETATM   16  C   UNK N   1      35.869  12.429  16.071  0.00  0.00     0.003 C 
HETATM   17  O   UNK N   1      34.389   8.206  22.381  0.00  0.00    -0.293 OA
HETATM   18  C   UNK N   1      34.450   8.745  21.288  0.00  0.00     0.149 C 
HETATM   19  C   UNK N   1      37.048  12.688  12.572  0.00  0.00    -0.078 C 
HETATM   20  C   UNK N   1      37.746  12.674  11.589  0.00  0.00     0.015 C 
HETATM   21  C   UNK N   1      35.550   8.647  16.020  0.00  0.00     0.015 C 
ENDROOT
BRANCH   3  22
HETATM   22  O   UNK N   1      34.923  13.220  13.196  0.00  0.00    -0.377 OA
HETATM   23  H   UNK N   1      34.288  13.601  12.569  0.00  0.00     0.211 HD
ENDBRANCH   3  22
BRANCH  15  24
HETATM   24  C   UNK N   1      34.964  10.651  14.020  0.00  0.00     0.010 C 
HETATM   25  C   UNK N   1      33.483  10.698  14.285  0.00  0.00     0.006 C 
ENDBRANCH  15  24
TORSDOF 2
ENDMDL
MODEL 2
REMARK VINA RESULT:      -7.3     27.081     28.509
REMARK  2 active torsions:
REMARK  status: ('A' for Active; 'I' for Inactive)
REMARK    1  A    between atoms: C_3  and  O_21 
REMARK    2  A    between atoms: C_15  and  C_16 
ROOT
HETATM    1  C   UNK N   1      28.943  23.795  -6.652  0.00  0.00     0.010 C 
HETATM    2  C   UNK N   1      29.349  25.908  -4.599  0.00  0.00     0.010 C 
HETATM    3  C   UNK N   1      26.964  22.918  -7.532  0.00  0.00     0.128 C 
HETATM    4  C   UNK N   1      25.469  24.379  -5.588  0.00  0.00     0.047 C 
HETATM    5  C   UNK N   1      28.242  22.458  -6.866  0.00  0.00     0.052 C 
HETATM    6  C   UNK N   1      27.039  27.700  -3.822  0.00  0.00     0.023 C 
HETATM    7  C   UNK N   1      25.559  25.860  -5.088  0.00  0.00    -0.083 C 
HETATM    8  C   UNK N   1      29.641  27.105  -3.701  0.00  0.00     0.035 C 
HETATM    9  C   UNK N   1      28.471  27.988  -3.370  0.00  0.00    -0.072 C 
HETATM   10  C   UNK N   1      26.598  28.939  -4.611  0.00  0.00     0.017 C 
HETATM   11  C   UNK N   1      28.735  29.142  -2.743  0.00  0.00     0.053 C 
HETATM   12  C   UNK N   1      26.528  30.145  -3.632  0.00  0.00     0.084 C 
HETATM   13  C   UNK N   1      28.059  25.964  -5.444  0.00  0.00    -0.000 C 
HETATM   14  C   UNK N   1      26.898  26.291  -4.484  0.00  0.00     0.026 C 
HETATM   15  C   UNK N   1      26.476  24.227  -6.764  0.00  0.00     0.009 C 
HETATM   16  C   UNK N   1      27.818  24.548  -5.993  0.00  0.00     0.003 C 
HETATM   17  O   UNK N   1      27.776  31.062  -1.822  0.00  0.00    -0.293 OA
HETATM   18  C   UNK N   1      27.684  30.168  -2.647  0.00  0.00     0.149 C 
HETATM   19  C   UNK N   1      26.012  21.826  -7.734  0.00  0.00    -0.078 C 
HETATM   20  C   UNK N   1      25.321  20.864  -7.959  0.00  0.00     0.015 C 
HETATM   21  C   UNK N   1      24.769  26.783  -5.649  0.00  0.00     0.015 C 
ENDROOT
BRANCH   3  22
HETATM   22  O   UNK N   1      27.397  23.272  -8.819  0.00  0.00    -0.377 OA
HETATM   23  H   UNK N   1      27.362  23.666  -9.705  0.00  0.00     0.211 HD
ENDBRANCH   3  22
BRANCH  15  24
HETATM   24  C   UNK N   1      25.655  25.060  -7.795  0.00  0.00     0.010 C 
HETATM   25  C   UNK N   1      26.283  26.120  -8.659  0.00  0.00     0.006 C 
ENDBRANCH  15  24
TORSDOF 2
ENDMDL
MODEL 3
REMARK VINA RESULT:      -7.1     23.013     26.315
REMARK  2 active torsions:
REMARK  status: ('A' for Active; 'I' for Inactive)
REMARK    1  A    between atoms: C_3  and  O_21 
REMARK    2  A    between atoms: C_15  and  C_16 
ROOT
HETATM    1  C   UNK N   1      33.127  18.896  -8.651  0.00  0.00     0.010 C 
HETATM    2  C   UNK N   1      32.929  19.791  -5.821  0.00  0.00     0.010 C 
HETATM    3  C   UNK N   1      31.454  18.621 -10.258  0.00  0.00     0.128 C 
HETATM    4  C   UNK N   1      29.473  19.078  -8.254  0.00  0.00     0.047 C 
HETATM    5  C   UNK N   1      32.580  17.845  -9.611  0.00  0.00     0.052 C 
HETATM    6  C   UNK N   1      30.391  21.121  -4.850  0.00  0.00     0.023 C 
HETATM    7  C   UNK N   1      29.353  20.151  -7.121  0.00  0.00    -0.083 C 
HETATM    8  C   UNK N   1      32.935  20.419  -4.432  0.00  0.00     0.035 C 
HETATM    9  C   UNK N   1      31.665  21.099  -4.004  0.00  0.00    -0.072 C 
HETATM   10  C   UNK N   1      30.055  22.603  -5.053  0.00  0.00     0.017 C 
HETATM   11  C   UNK N   1      31.707  21.816  -2.874  0.00  0.00     0.053 C 
HETATM   12  C   UNK N   1      29.690  23.217  -3.671  0.00  0.00     0.084 C 
HETATM   13  C   UNK N   1      31.857  20.293  -6.811  0.00  0.00    -0.000 C 
HETATM   14  C   UNK N   1      30.493  20.189  -6.101  0.00  0.00     0.026 C 
HETATM   15  C   UNK N   1      30.723  19.444  -9.105  0.00  0.00     0.009 C 
HETATM   16  C   UNK N   1      31.837  19.308  -7.992  0.00  0.00     0.003 C 
HETATM   17  O   UNK N   1      30.444  23.130  -1.413  0.00  0.00    -0.293 OA
HETATM   18  C   UNK N   1      30.596  22.727  -2.554  0.00  0.00     0.149 C 
HETATM   19  C   UNK N   1      30.645  17.794 -11.152  0.00  0.00    -0.078 C 
HETATM   20  C   UNK N   1      30.085  17.080 -11.946  0.00  0.00     0.015 C 
HETATM   21  C   UNK N   1      28.647  21.264  -7.354  0.00  0.00     0.015 C 
ENDROOT
BRANCH   3  22
HETATM   22  O   UNK N   1      32.137  19.513 -11.099  0.00  0.00    -0.377 OA
HETATM   23  H   UNK N   1      32.538  20.346 -11.395  0.00  0.00     0.211 HD
ENDBRANCH   3  22
BRANCH  15  24
HETATM   24  C   UNK N   1      30.098  20.698  -9.790  0.00  0.00     0.010 C 
HETATM   25  C   UNK N   1      28.928  20.604 -10.731  0.00  0.00     0.006 C 
ENDBRANCH  15  24
TORSDOF 2
ENDMDL
MODEL 4
REMARK VINA RESULT:      -7.1     23.423     26.781
REMARK  2 active torsions:
REMARK  status: ('A' for Active; 'I' for Inactive)
REMARK    1  A    between atoms: C_3  and  O_21 
REMARK    2  A    between atoms: C_15  and  C_16 
ROOT
HETATM    1  C   UNK N   1      27.164  23.850  -7.817  0.00  0.00     0.010 C 
HETATM    2  C   UNK N   1      28.933  21.595  -7.020  0.00  0.00     0.010 C 
HETATM    3  C   UNK N   1      26.476  25.720  -6.599  0.00  0.00     0.128 C 
HETATM    4  C   UNK N   1      27.660  24.609  -4.251  0.00  0.00     0.047 C 
HETATM    5  C   UNK N   1      25.891  24.575  -7.395  0.00  0.00     0.052 C 
HETATM    6  C   UNK N   1      30.638  21.842  -4.533  0.00  0.00     0.023 C 
HETATM    7  C   UNK N   1      29.045  23.927  -3.994  0.00  0.00    -0.083 C 
HETATM    8  C   UNK N   1      29.974  20.513  -6.754  0.00  0.00     0.035 C 
HETATM    9  C   UNK N   1      30.822  20.694  -5.528  0.00  0.00    -0.072 C 
HETATM   10  C   UNK N   1      31.992  22.560  -4.478  0.00  0.00     0.017 C 
HETATM   11  C   UNK N   1      31.862  19.863  -5.376  0.00  0.00     0.053 C 
HETATM   12  C   UNK N   1      33.037  21.590  -3.857  0.00  0.00     0.084 C 
HETATM   13  C   UNK N   1      29.146  22.957  -6.326  0.00  0.00    -0.000 C 
HETATM   14  C   UNK N   1      29.350  22.677  -4.823  0.00  0.00     0.026 C 
HETATM   15  C   UNK N   1      27.665  25.126  -5.718  0.00  0.00     0.009 C 
HETATM   16  C   UNK N   1      27.835  23.747  -6.473  0.00  0.00     0.003 C 
HETATM   17  O   UNK N   1      33.642  19.288  -3.977  0.00  0.00    -0.293 OA
HETATM   18  C   UNK N   1      32.885  20.165  -4.362  0.00  0.00     0.149 C 
HETATM   19  C   UNK N   1      25.450  26.527  -5.940  0.00  0.00    -0.078 C 
HETATM   20  C   UNK N   1      24.549  27.204  -5.510  0.00  0.00     0.015 C 
HETATM   21  C   UNK N   1      30.061  24.672  -3.540  0.00  0.00     0.015 C 
ENDROOT
BRANCH   3  22
HETATM   22  O   UNK N   1      27.011  26.548  -7.597  0.00  0.00    -0.377 OA
HETATM   23  H   UNK N   1      27.345  27.360  -8.013  0.00  0.00     0.211 HD
ENDBRANCH   3  22
BRANCH  15  24
HETATM   24  C   UNK N   1      28.663  26.300  -5.478  0.00  0.00     0.010 C 
HETATM   25  C   UNK N   1      28.340  27.461  -4.578  0.00  0.00     0.006 C 
ENDBRANCH  15  24
TORSDOF 2
ENDMDL
MODEL 5
REMARK VINA RESULT:      -7.1     15.732     18.872
REMARK  2 active torsions:
REMARK  status: ('A' for Active; 'I' for Inactive)
REMARK    1  A    between atoms: C_3  and  O_21 
REMARK    2  A    between atoms: C_15  and  C_16 
ROOT
HETATM    1  C   UNK N   1      27.204  19.674   3.604  0.00  0.00     0.010 C 
HETATM    2  C   UNK N   1      24.311  20.295   3.302  0.00  0.00     0.010 C 
HETATM    3  C   UNK N   1      28.251  17.889   4.688  0.00  0.00     0.128 C 
HETATM    4  C   UNK N   1      25.727  17.069   5.743  0.00  0.00     0.047 C 
HETATM    5  C   UNK N   1      28.261  19.401   4.668  0.00  0.00     0.052 C 
HETATM    6  C   UNK N   1      22.254  18.163   3.914  0.00  0.00     0.023 C 
HETATM    7  C   UNK N   1      24.314  16.916   5.088  0.00  0.00    -0.083 C 
HETATM    8  C   UNK N   1      22.856  20.578   2.943  0.00  0.00     0.035 C 
HETATM    9  C   UNK N   1      21.875  19.478   3.232  0.00  0.00    -0.072 C 
HETATM   10  C   UNK N   1      21.834  17.056   2.939  0.00  0.00     0.017 C 
HETATM   11  C   UNK N   1      20.632  19.629   2.756  0.00  0.00     0.053 C 
HETATM   12  C   UNK N   1      20.284  17.071   2.818  0.00  0.00     0.084 C 
HETATM   13  C   UNK N   1      24.715  18.815   3.470  0.00  0.00    -0.000 C 
HETATM   14  C   UNK N   1      23.719  18.178   4.458  0.00  0.00     0.026 C 
HETATM   15  C   UNK N   1      26.727  17.426   4.605  0.00  0.00     0.009 C 
HETATM   16  C   UNK N   1      26.100  18.799   4.138  0.00  0.00     0.003 C 
HETATM   17  O   UNK N   1      18.512  18.653   2.646  0.00  0.00    -0.293 OA
HETATM   18  C   UNK N   1      19.714  18.477   2.756  0.00  0.00     0.149 C 
HETATM   19  C   UNK N   1      29.096  17.335   5.745  0.00  0.00    -0.078 C 
HETATM   20  C   UNK N   1      29.887  16.951   6.570  0.00  0.00     0.015 C 
HETATM   21  C   UNK N   1      23.939  15.717   4.626  0.00  0.00     0.015 C 
ENDROOT
BRANCH   3  22
HETATM   22  O   UNK N   1      28.898  17.559   3.487  0.00  0.00    -0.377 OA
HETATM   23  H   UNK N   1      29.537  17.627   2.760  0.00  0.00     0.211 HD
ENDBRANCH   3  22
BRANCH  15  24
HETATM   24  C   UNK N   1      26.732  16.016   3.940  0.00  0.00     0.010 C 
HETATM   25  C   UNK N   1      26.597  15.825   2.453  0.00  0.00     0.006 C 
ENDBRANCH  15  24
TORSDOF 2
ENDMDL
MODEL 6
REMARK VINA RESULT:      -7.1      1.305      3.114
REMARK  2 active torsions:
REMARK  status: ('A' for Active; 'I' for Inactive)
REMARK    1  A    between atoms: C_3  and  O_21 
REMARK    2  A    between atoms: C_15  and  C_16 
ROOT
HETATM    1  C   UNK N   1      36.397  10.497  13.471  0.00  0.00     0.010 C 
HETATM    2  C   UNK N   1      35.585   8.881  15.833  0.00  0.00     0.010 C 
HETATM    3  C   UNK N   1      36.249  12.800  13.106  0.00  0.00     0.128 C 
HETATM    4  C   UNK N   1      34.731  13.069  15.509  0.00  0.00     0.047 C 
HETATM    5  C   UNK N   1      35.842  11.494  12.460  0.00  0.00     0.052 C 
HETATM    6  C   UNK N   1      34.987  10.266  18.455  0.00  0.00     0.023 C 
HETATM    7  C   UNK N   1      34.924  12.477  16.945  0.00  0.00    -0.083 C 
HETATM    8  C   UNK N   1      35.373   8.014  17.069  0.00  0.00     0.035 C 
HETATM    9  C   UNK N   1      35.114   8.744  18.356  0.00  0.00    -0.072 C 
HETATM   10  C   UNK N   1      36.053  10.703  19.468  0.00  0.00     0.017 C 
HETATM   11  C   UNK N   1      35.112   8.017  19.481  0.00  0.00     0.053 C 
HETATM   12  C   UNK N   1      35.671  10.127  20.861  0.00  0.00     0.084 C 
HETATM   13  C   UNK N   1      35.979  10.354  16.070  0.00  0.00    -0.000 C 
HETATM   14  C   UNK N   1      34.951  10.950  17.051  0.00  0.00     0.026 C 
HETATM   15  C   UNK N   1      35.976  12.658  14.670  0.00  0.00     0.009 C 
HETATM   16  C   UNK N   1      35.813  11.087  14.728  0.00  0.00     0.003 C 
HETATM   17  O   UNK N   1      34.821   8.107  21.797  0.00  0.00    -0.293 OA
HETATM   18  C   UNK N   1      35.150   8.702  20.784  0.00  0.00     0.149 C 
HETATM   19  C   UNK N   1      35.713  13.964  12.402  0.00  0.00    -0.078 C 
HETATM   20  C   UNK N   1      35.324  14.877  11.717  0.00  0.00     0.015 C 
HETATM   21  C   UNK N   1      35.565  13.206  17.867  0.00  0.00     0.015 C 
ENDROOT
BRANCH   3  22
HETATM   22  O   UNK N   1      37.633  12.837  12.881  0.00  0.00    -0.377 OA
HETATM   23  H   UNK N   1      38.575  12.651  13.023  0.00  0.00     0.211 HD
ENDBRANCH   3  22
BRANCH  15  24
HETATM   24  C   UNK N   1      36.980  13.617  15.379  0.00  0.00     0.010 C 
HETATM   25  C   UNK N   1      36.928  15.111  15.205  0.00  0.00     0.006 C 
ENDBRANCH  15  24
TORSDOF 2
ENDMDL
MODEL 7
REMARK VINA RESULT:      -7.1     11.777     14.629
REMARK  2 active torsions:
REMARK  status: ('A' for Active; 'I' for Inactive)
REMARK    1  A    between atoms: C_3  and  O_21 
REMARK    2  A    between atoms: C_15  and  C_16 
ROOT
HETATM    1  C   UNK N   1      27.163  19.681   7.099  0.00  0.00     0.010 C 
HETATM    2  C   UNK N   1      29.773  18.683   8.118  0.00  0.00     0.010 C 
HETATM    3  C   UNK N   1      26.185  19.443   4.991  0.00  0.00     0.128 C 
HETATM    4  C   UNK N   1      28.611  18.301   4.010  0.00  0.00     0.047 C 
HETATM    5  C   UNK N   1      26.563  20.524   5.980  0.00  0.00     0.052 C 
HETATM    6  C   UNK N   1      31.273  16.567   6.561  0.00  0.00     0.023 C 
HETATM    7  C   UNK N   1      29.572  17.214   4.595  0.00  0.00    -0.083 C 
HETATM    8  C   UNK N   1      30.998  18.049   8.768  0.00  0.00     0.035 C 
HETATM    9  C   UNK N   1      31.691  16.978   7.974  0.00  0.00    -0.072 C 
HETATM   10  C   UNK N   1      30.982  15.063   6.638  0.00  0.00     0.017 C 
HETATM   11  C   UNK N   1      32.649  16.279   8.597  0.00  0.00     0.053 C 
HETATM   12  C   UNK N   1      32.313  14.321   6.948  0.00  0.00     0.084 C 
HETATM   13  C   UNK N   1      29.092  17.889   6.983  0.00  0.00    -0.000 C 
HETATM   14  C   UNK N   1      30.188  17.519   5.963  0.00  0.00     0.026 C 
HETATM   15  C   UNK N   1      27.382  18.391   4.961  0.00  0.00     0.009 C 
HETATM   16  C   UNK N   1      28.117  18.849   6.283  0.00  0.00     0.003 C 
HETATM   17  O   UNK N   1      34.231  14.580   8.338  0.00  0.00    -0.293 OA
HETATM   18  C   UNK N   1      33.162  15.045   7.979  0.00  0.00     0.149 C 
HETATM   19  C   UNK N   1      25.696  19.987   3.724  0.00  0.00    -0.078 C 
HETATM   20  C   UNK N   1      25.211  20.503   2.749  0.00  0.00     0.015 C 
HETATM   21  C   UNK N   1      29.414  15.938   4.221  0.00  0.00     0.015 C 
ENDROOT
BRANCH   3  22
HETATM   22  O   UNK N   1      25.065  18.851   5.594  0.00  0.00    -0.377 OA
HETATM   23  H   UNK N   1      24.427  18.631   6.292  0.00  0.00     0.211 HD
ENDBRANCH   3  22
BRANCH  15  24
HETATM   24  C   UNK N   1      26.754  17.024   4.552  0.00  0.00     0.010 C 
HETATM   25  C   UNK N   1      26.205  16.768   3.175  0.00  0.00     0.006 C 
ENDBRANCH  15  24
TORSDOF 2
ENDMDL
MODEL 8
REMARK VINA RESULT:      -7.0      2.821      4.734
REMARK  2 active torsions:
REMARK  status: ('A' for Active; 'I' for Inactive)
REMARK    1  A    between atoms: C_3  and  O_21 
REMARK    2  A    between atoms: C_15  and  C_16 
ROOT
HETATM    1  C   UNK N   1      36.157   7.418  13.675  0.00  0.00     0.010 C 
HETATM    2  C   UNK N   1      35.647   8.661  16.328  0.00  0.00     0.010 C 
HETATM    3  C   UNK N   1      35.544   8.137  11.538  0.00  0.00     0.128 C 
HETATM    4  C   UNK N   1      33.953  10.201  12.705  0.00  0.00     0.047 C 
HETATM    5  C   UNK N   1      35.430   6.921  12.430  0.00  0.00     0.052 C 
HETATM    6  C   UNK N   1      34.721  11.537  16.477  0.00  0.00     0.023 C 
HETATM    7  C   UNK N   1      34.234  11.216  13.863  0.00  0.00    -0.083 C 
HETATM    8  C   UNK N   1      35.593   9.326  17.699  0.00  0.00     0.035 C 
HETATM    9  C   UNK N   1      35.162  10.765  17.723  0.00  0.00    -0.072 C 
HETATM   10  C   UNK N   1      35.651  12.754  16.396  0.00  0.00     0.017 C 
HETATM   11  C   UNK N   1      35.287  11.421  18.884  0.00  0.00     0.053 C 
HETATM   12  C   UNK N   1      35.368  13.671  17.619  0.00  0.00     0.084 C 
HETATM   13  C   UNK N   1      35.723   9.592  15.101  0.00  0.00    -0.000 C 
HETATM   14  C   UNK N   1      34.573  10.611  15.227  0.00  0.00     0.026 C 
HETATM   15  C   UNK N   1      35.273   9.418  12.448  0.00  0.00     0.009 C 
HETATM   16  C   UNK N   1      35.438   8.728  13.861  0.00  0.00     0.003 C 
HETATM   17  O   UNK N   1      34.935  13.468  19.953  0.00  0.00    -0.293 OA
HETATM   18  C   UNK N   1      35.154  12.887  18.902  0.00  0.00     0.149 C 
HETATM   19  C   UNK N   1      34.794   7.991  10.291  0.00  0.00    -0.078 C 
HETATM   20  C   UNK N   1      34.239   7.762   9.246  0.00  0.00     0.015 C 
HETATM   21  C   UNK N   1      34.690  12.437  13.559  0.00  0.00     0.015 C 
ENDROOT
BRANCH   3  22
HETATM   22  O   UNK N   1      36.895   8.117  11.160  0.00  0.00    -0.377 OA
HETATM   23  H   UNK N   1      37.685   7.879  10.648  0.00  0.00     0.211 HD
ENDBRANCH   3  22
BRANCH  15  24
HETATM   24  C   UNK N   1      36.042  10.600  11.782  0.00  0.00     0.010 C 
HETATM   25  C   UNK N   1      37.466  10.935  12.133  0.00  0.00     0.006 C 
ENDBRANCH  15  24
TORSDOF 2
ENDMDL
MODEL 9
REMARK VINA RESULT:      -6.9      6.174     11.428
REMARK  2 active torsions:
REMARK  status: ('A' for Active; 'I' for Inactive)
REMARK    1  A    between atoms: C_3  and  O_21 
REMARK    2  A    between atoms: C_15  and  C_16 
ROOT
HETATM    1  C   UNK N   1      35.892  16.127  10.818  0.00  0.00     0.010 C 
HETATM    2  C   UNK N   1      34.377  17.298   8.542  0.00  0.00     0.010 C 
HETATM    3  C   UNK N   1      36.178  13.892  11.439  0.00  0.00     0.128 C 
HETATM    4  C   UNK N   1      34.264  13.114   9.469  0.00  0.00     0.047 C 
HETATM    5  C   UNK N   1      35.715  15.209  12.023  0.00  0.00     0.052 C 
HETATM    6  C   UNK N   1      33.479  15.514   6.270  0.00  0.00     0.023 C 
HETATM    7  C   UNK N   1      34.067  13.531   7.973  0.00  0.00    -0.083 C 
HETATM    8  C   UNK N   1      33.787  17.960   7.302  0.00  0.00     0.035 C 
HETATM    9  C   UNK N   1      33.387  17.038   6.184  0.00  0.00    -0.072 C 
HETATM   10  C   UNK N   1      34.371  15.088   5.097  0.00  0.00     0.017 C 
HETATM   11  C   UNK N   1      33.045  17.604   5.019  0.00  0.00     0.053 C 
HETATM   12  C   UNK N   1      33.630  15.421   3.771  0.00  0.00     0.084 C 
HETATM   13  C   UNK N   1      34.937  15.870   8.375  0.00  0.00    -0.000 C 
HETATM   14  C   UNK N   1      33.835  15.021   7.710  0.00  0.00     0.026 C 
HETATM   15  C   UNK N   1      35.574  13.790   9.967  0.00  0.00     0.009 C 
HETATM   16  C   UNK N   1      35.163  15.305   9.787  0.00  0.00     0.003 C 
HETATM   17  O   UNK N   1      32.307  17.172   2.846  0.00  0.00    -0.293 OA
HETATM   18  C   UNK N   1      32.922  16.764   3.817  0.00  0.00     0.149 C 
HETATM   19  C   UNK N   1      35.983  12.771  12.358  0.00  0.00    -0.078 C 
HETATM   20  C   UNK N   1      35.886  11.915  13.201  0.00  0.00     0.015 C 
HETATM   21  C   UNK N   1      34.611  12.776   7.012  0.00  0.00     0.015 C 
ENDROOT
BRANCH   3  22
HETATM   22  O   UNK N   1      37.568  14.064  11.356  0.00  0.00    -0.377 OA
HETATM   23  H   UNK N   1      38.438  14.466  11.511  0.00  0.00     0.211 HD
ENDBRANCH   3  22
BRANCH  15  24
HETATM   24  C   UNK N   1      36.548  12.883   9.155  0.00  0.00     0.010 C 
HETATM   25  C   UNK N   1      37.716  13.439   8.387  0.00  0.00     0.006 C 
ENDBRANCH  15  24
TORSDOF 2
ENDMDL
