MODEL 1
REMARK VINA RESULT:      -7.9      0.000      0.000
REMARK  10 active torsions:
REMARK  status: ('A' for Active; 'I' for Inactive)
REMARK    1  A    between atoms: C_2  and  C_3 
REMARK    2  A    between atoms: C_4  and  C_5 
REMARK    3  A    between atoms: C_19  and  C_7 
REMARK    4  A    between atoms: N_23  and  C_19 
REMARK    5  A    between atoms: C_20  and  C_24 
REMARK    6  A    between atoms: C_24  and  C_25 
REMARK    7  A    between atoms: C_27  and  C_28 
REMARK    8  A    between atoms: C_28  and  O_30 
REMARK    9  A    between atoms: C_31  and  C_32 
REMARK   10  A    between atoms: C_32  and  O_35 
ROOT
HETATM    1  C   UNK N   1      34.668  12.059  14.395  0.00  0.00     0.013 A 
HETATM    2  C   UNK N   1      35.429  12.752  15.348  0.00  0.00    -0.025 A 
HETATM    3  C   UNK N   1      35.815  13.193  12.608  0.00  0.00    -0.040 A 
HETATM    4  C   UNK N   1      34.874  12.260  13.032  0.00  0.00     0.010 A 
HETATM    5  C   UNK N   1      36.294  13.762  14.910  0.00  0.00     0.013 A 
HETATM    6  C   UNK N   1      36.503  13.959  13.549  0.00  0.00     0.010 A 
ENDROOT
BRANCH   3   7
HETATM    7  C   UNK N   1      36.294  13.147  11.199  0.00  0.00     0.169 C 
BRANCH   7   8
HETATM    8  N   UNK N   1      35.365  13.625  10.181  0.00  0.00    -0.325 N 
HETATM    9  C   UNK N   1      34.547  12.888   9.402  0.00  0.00     0.084 A 
HETATM   10  N   UNK N   1      33.744  13.655   8.647  0.00  0.00    -0.345 N 
HETATM   11  C   UNK N   1      34.049  14.936   8.954  0.00  0.00     0.078 A 
ATOM     12  HN  UNK N   1      33.045  13.335   7.977  1.00  0.00     0.167 HD
HETATM   13  C   UNK N   1      35.084  14.923   9.917  0.00  0.00     0.136 A 
BRANCH   9  14
HETATM   14  C   UNK N   1      34.481  11.397   9.393  0.00  0.00     0.076 C 
BRANCH  14  15
HETATM   15  C   UNK N   1      33.092  10.936   9.800  0.00  0.00     0.003 C 
HETATM   16  C   UNK N   1      33.205   9.771  10.763  0.00  0.00     0.005 C 
ENDBRANCH  14  15
ENDBRANCH   9  14
BRANCH  11  17
HETATM   17  C   UNK N   1      33.264  16.051   8.287  0.00  0.00     0.095 C 
HETATM   18  C   UNK N   1      32.076  15.656   7.445  0.00  0.00     0.052 C 
HETATM   19  C   UNK N   1      34.212  16.813   7.377  0.00  0.00     0.052 C 
BRANCH  17  20
HETATM   20  O   UNK N   1      32.808  16.922   9.276  0.00  0.00    -0.384 OA
HETATM   21  H   UNK N   1      32.449  17.780   9.548  0.00  0.00     0.211 HD
ENDBRANCH  17  20
ENDBRANCH  11  17
BRANCH  13  22
HETATM   22  C   UNK N   1      35.788  16.051  10.618  0.00  0.00     0.196 C 
HETATM   23  O   UNK N   1      35.177  16.990  11.087  0.00  0.00    -0.645 OA
BRANCH  22  24
HETATM   24  O   UNK N   1      37.130  16.043  10.734  0.00  0.00    -0.772 OA
HETATM   25  H   UNK N   1      37.673  16.647  10.268  0.00  0.00     0.167 HD
ENDBRANCH  22  24
ENDBRANCH  13  22
ENDBRANCH   7   8
ENDBRANCH   3   7
BRANCH   2  26
HETATM   26  C   UNK N   1      35.419  12.387  16.793  0.00  0.00    -0.012 A 
HETATM   27  C   UNK N   1      35.157  13.413  17.718  0.00  0.00     0.013 A 
HETATM   28  C   UNK N   1      35.124  13.165  19.088  0.00  0.00     0.001 A 
HETATM   29  C   UNK N   1      35.345  11.877  19.565  0.00  0.00     0.001 A 
HETATM   30  C   UNK N   1      35.631  10.843  18.675  0.00  0.00     0.016 A 
HETATM   31  C   UNK N   1      35.697  11.069  17.291  0.00  0.00     0.021 A 
BRANCH  31  32
HETATM   32  C   UNK N   1      36.163   9.922  16.461  0.00  0.00     0.142 A 
HETATM   33  N   UNK N   1      37.373   9.852  15.880  0.00  0.00    -0.270 N 
HETATM   34  N   UNK N   1      37.373   8.720  15.191  0.00  0.00    -0.007 NA
ATOM     35  HN  UNK N   1      38.133  10.529  15.953  1.00  0.00     0.185 HD
HETATM   36  N   UNK N   1      36.198   8.127  15.319  0.00  0.00    -0.007 NA
HETATM   37  N   UNK N   1      35.420   8.862  16.093  0.00  0.00    -0.270 N 
HETATM   38  H   UNK N   1      34.489   8.673  16.349  0.00  0.00     0.185 HD
ENDBRANCH  31  32
ENDBRANCH   2  26
TORSDOF 10
ENDMDL
MODEL 2
REMARK VINA RESULT:      -7.9      5.065     11.452
REMARK  10 active torsions:
REMARK  status: ('A' for Active; 'I' for Inactive)
REMARK    1  A    between atoms: C_2  and  C_3 
REMARK    2  A    between atoms: C_4  and  C_5 
REMARK    3  A    between atoms: C_19  and  C_7 
REMARK    4  A    between atoms: N_23  and  C_19 
REMARK    5  A    between atoms: C_20  and  C_24 
REMARK    6  A    between atoms: C_24  and  C_25 
REMARK    7  A    between atoms: C_27  and  C_28 
REMARK    8  A    between atoms: C_28  and  O_30 
REMARK    9  A    between atoms: C_31  and  C_32 
REMARK   10  A    between atoms: C_32  and  O_35 
ROOT
HETATM    1  C   UNK N   1      31.500  17.285   3.747  0.00  0.00     0.013 A 
HETATM    2  C   UNK N   1      30.355  16.868   4.443  0.00  0.00    -0.025 A 
HETATM    3  C   UNK N   1      32.818  17.118   5.755  0.00  0.00    -0.040 A 
HETATM    4  C   UNK N   1      32.730  17.388   4.393  0.00  0.00     0.010 A 
HETATM    5  C   UNK N   1      30.435  16.705   5.830  0.00  0.00     0.013 A 
HETATM    6  C   UNK N   1      31.664  16.803   6.474  0.00  0.00     0.010 A 
ENDROOT
BRANCH   3   7
HETATM    7  C   UNK N   1      34.156  16.868   6.358  0.00  0.00     0.169 C 
BRANCH   7   8
HETATM    8  N   UNK N   1      34.257  15.736   7.271  0.00  0.00    -0.325 N 
HETATM    9  C   UNK N   1      34.307  14.425   6.955  0.00  0.00     0.084 A 
HETATM   10  N   UNK N   1      34.509  13.654   8.035  0.00  0.00    -0.345 N 
HETATM   11  C   UNK N   1      34.599  14.497   9.088  0.00  0.00     0.078 A 
ATOM     12  HN  UNK N   1      34.579  12.636   8.056  1.00  0.00     0.167 HD
HETATM   13  C   UNK N   1      34.428  15.816   8.612  0.00  0.00     0.136 A 
BRANCH   9  14
HETATM   14  C   UNK N   1      34.206  13.869   5.574  0.00  0.00     0.076 C 
BRANCH  14  15
HETATM   15  C   UNK N   1      32.776  13.447   5.286  0.00  0.00     0.003 C 
HETATM   16  C   UNK N   1      32.458  13.692   3.825  0.00  0.00     0.005 C 
ENDBRANCH  14  15
ENDBRANCH   9  14
BRANCH  11  17
HETATM   17  C   UNK N   1      34.878  13.916  10.464  0.00  0.00     0.095 C 
HETATM   18  C   UNK N   1      36.217  14.220  11.087  0.00  0.00     0.052 C 
HETATM   19  C   UNK N   1      34.773  12.404  10.365  0.00  0.00     0.052 C 
BRANCH  17  20
HETATM   20  O   UNK N   1      33.893  14.370  11.340  0.00  0.00    -0.384 OA
HETATM   21  H   UNK N   1      33.228  14.203  12.026  0.00  0.00     0.211 HD
ENDBRANCH  17  20
ENDBRANCH  11  17
BRANCH  13  22
HETATM   22  C   UNK N   1      34.453  17.133   9.336  0.00  0.00     0.196 C 
HETATM   23  O   UNK N   1      35.435  17.510   9.941  0.00  0.00    -0.645 OA
BRANCH  22  24
HETATM   24  O   UNK N   1      33.365  17.928   9.332  0.00  0.00    -0.772 OA
HETATM   25  H   UNK N   1      32.573  17.690   9.772  0.00  0.00     0.167 HD
ENDBRANCH  22  24
ENDBRANCH  13  22
ENDBRANCH   7   8
ENDBRANCH   3   7
BRANCH   2  26
HETATM   26  C   UNK N   1      29.089  16.505   3.744  0.00  0.00    -0.012 A 
HETATM   27  C   UNK N   1      29.135  15.427   2.841  0.00  0.00     0.013 A 
HETATM   28  C   UNK N   1      28.001  15.015   2.146  0.00  0.00     0.001 A 
HETATM   29  C   UNK N   1      26.789  15.667   2.346  0.00  0.00     0.001 A 
HETATM   30  C   UNK N   1      26.716  16.752   3.217  0.00  0.00     0.016 A 
HETATM   31  C   UNK N   1      27.848  17.208   3.911  0.00  0.00     0.021 A 
BRANCH  31  32
HETATM   32  C   UNK N   1      27.678  18.469   4.688  0.00  0.00     0.142 A 
HETATM   33  N   UNK N   1      28.099  19.676   4.273  0.00  0.00    -0.270 N 
HETATM   34  N   UNK N   1      27.818  20.511   5.262  0.00  0.00    -0.007 NA
ATOM     35  HN  UNK N   1      28.544  19.902   3.383  1.00  0.00     0.185 HD
HETATM   36  N   UNK N   1      27.269  19.842   6.262  0.00  0.00    -0.007 NA
HETATM   37  N   UNK N   1      27.184  18.564   5.936  0.00  0.00    -0.270 N 
HETATM   38  H   UNK N   1      26.830  17.833   6.492  0.00  0.00     0.185 HD
ENDBRANCH  31  32
ENDBRANCH   2  26
TORSDOF 10
ENDMDL
MODEL 3
REMARK VINA RESULT:      -7.6      4.044      9.322
REMARK  10 active torsions:
REMARK  status: ('A' for Active; 'I' for Inactive)
REMARK    1  A    between atoms: C_2  and  C_3 
REMARK    2  A    between atoms: C_4  and  C_5 
REMARK    3  A    between atoms: C_19  and  C_7 
REMARK    4  A    between atoms: N_23  and  C_19 
REMARK    5  A    between atoms: C_20  and  C_24 
REMARK    6  A    between atoms: C_24  and  C_25 
REMARK    7  A    between atoms: C_27  and  C_28 
REMARK    8  A    between atoms: C_28  and  O_30 
REMARK    9  A    between atoms: C_31  and  C_32 
REMARK   10  A    between atoms: C_32  and  O_35 
ROOT
HETATM    1  C   UNK N   1      33.841  17.742   8.281  0.00  0.00     0.013 A 
HETATM    2  C   UNK N   1      32.820  16.826   7.987  0.00  0.00    -0.025 A 
HETATM    3  C   UNK N   1      34.799  16.210   9.872  0.00  0.00    -0.040 A 
HETATM    4  C   UNK N   1      34.839  17.429   9.201  0.00  0.00     0.010 A 
HETATM    5  C   UNK N   1      32.733  15.654   8.745  0.00  0.00     0.013 A 
HETATM    6  C   UNK N   1      33.731  15.339   9.660  0.00  0.00     0.010 A 
ENDROOT
BRANCH   3   7
HETATM    7  C   UNK N   1      36.027  15.723  10.560  0.00  0.00     0.169 C 
BRANCH   7   8
HETATM    8  N   UNK N   1      36.288  14.290  10.485  0.00  0.00    -0.325 N 
HETATM    9  C   UNK N   1      36.700  13.582   9.414  0.00  0.00     0.084 A 
HETATM   10  N   UNK N   1      36.948  12.300   9.721  0.00  0.00    -0.345 N 
HETATM   11  C   UNK N   1      36.693  12.174  11.044  0.00  0.00     0.078 A 
ATOM     12  HN  UNK N   1      37.264  11.567   9.086  1.00  0.00     0.167 HD
HETATM   13  C   UNK N   1      36.263  13.429  11.530  0.00  0.00     0.136 A 
BRANCH   9  14
HETATM   14  C   UNK N   1      36.914  14.140   8.046  0.00  0.00     0.076 C 
BRANCH  14  15
HETATM   15  C   UNK N   1      35.727  13.812   7.158  0.00  0.00     0.003 C 
HETATM   16  C   UNK N   1      35.518  14.929   6.156  0.00  0.00     0.005 C 
ENDBRANCH  14  15
ENDBRANCH   9  14
BRANCH  11  17
HETATM   17  C   UNK N   1      36.930  10.828  11.706  0.00  0.00     0.095 C 
HETATM   18  C   UNK N   1      37.700  10.819  13.003  0.00  0.00     0.052 C 
HETATM   19  C   UNK N   1      37.702   9.955  10.732  0.00  0.00     0.052 C 
BRANCH  17  20
HETATM   20  O   UNK N   1      35.693  10.232  11.947  0.00  0.00    -0.384 OA
HETATM   21  H   UNK N   1      34.850   9.874  11.630  0.00  0.00     0.211 HD
ENDBRANCH  17  20
ENDBRANCH  11  17
BRANCH  13  22
HETATM   22  C   UNK N   1      35.870  13.864  12.914  0.00  0.00     0.196 C 
HETATM   23  O   UNK N   1      34.749  13.688  13.344  0.00  0.00    -0.645 OA
BRANCH  22  24
HETATM   24  O   UNK N   1      36.769  14.472  13.713  0.00  0.00    -0.772 OA
HETATM   25  H   UNK N   1      36.521  14.891  14.513  0.00  0.00     0.167 HD
ENDBRANCH  22  24
ENDBRANCH  13  22
ENDBRANCH   7   8
ENDBRANCH   3   7
BRANCH   2  26
HETATM   26  C   UNK N   1      31.889  17.015   6.838  0.00  0.00    -0.012 A 
HETATM   27  C   UNK N   1      32.432  16.921   5.543  0.00  0.00     0.013 A 
HETATM   28  C   UNK N   1      31.637  17.080   4.411  0.00  0.00     0.001 A 
HETATM   29  C   UNK N   1      30.276  17.329   4.548  0.00  0.00     0.001 A 
HETATM   30  C   UNK N   1      29.713  17.452   5.816  0.00  0.00     0.016 A 
HETATM   31  C   UNK N   1      30.494  17.323   6.976  0.00  0.00     0.021 A 
BRANCH  31  32
HETATM   32  C   UNK N   1      29.809  17.629   8.265  0.00  0.00     0.142 A 
HETATM   33  N   UNK N   1      28.542  17.282   8.549  0.00  0.00    -0.270 N 
HETATM   34  N   UNK N   1      28.295  17.785   9.750  0.00  0.00    -0.007 NA
ATOM     35  HN  UNK N   1      27.903  16.745   7.962  1.00  0.00     0.185 HD
HETATM   36  N   UNK N   1      29.359  18.441  10.180  0.00  0.00    -0.007 NA
HETATM   37  N   UNK N   1      30.313  18.373   9.267  0.00  0.00    -0.270 N 
HETATM   38  H   UNK N   1      31.207  18.781   9.312  0.00  0.00     0.185 HD
ENDBRANCH  31  32
ENDBRANCH   2  26
TORSDOF 10
ENDMDL
MODEL 4
REMARK VINA RESULT:      -7.4     11.993     13.991
REMARK  10 active torsions:
REMARK  status: ('A' for Active; 'I' for Inactive)
REMARK    1  A    between atoms: C_2  and  C_3 
REMARK    2  A    between atoms: C_4  and  C_5 
REMARK    3  A    between atoms: C_19  and  C_7 
REMARK    4  A    between atoms: N_23  and  C_19 
REMARK    5  A    between atoms: C_20  and  C_24 
REMARK    6  A    between atoms: C_24  and  C_25 
REMARK    7  A    between atoms: C_27  and  C_28 
REMARK    8  A    between atoms: C_28  and  O_30 
REMARK    9  A    between atoms: C_31  and  C_32 
REMARK   10  A    between atoms: C_32  and  O_35 
ROOT
HETATM    1  C   UNK N   1      25.216  14.646   8.025  0.00  0.00     0.013 A 
HETATM    2  C   UNK N   1      24.657  13.364   8.133  0.00  0.00    -0.025 A 
HETATM    3  C   UNK N   1      25.455  14.374   5.645  0.00  0.00    -0.040 A 
HETATM    4  C   UNK N   1      25.592  15.159   6.786  0.00  0.00     0.010 A 
HETATM    5  C   UNK N   1      24.625  12.548   6.997  0.00  0.00     0.013 A 
HETATM    6  C   UNK N   1      24.996  13.061   5.759  0.00  0.00     0.010 A 
ENDROOT
BRANCH   3   7
HETATM    7  C   UNK N   1      25.503  15.027   4.308  0.00  0.00     0.169 C 
BRANCH   7   8
HETATM    8  N   UNK N   1      24.797  16.296   4.179  0.00  0.00    -0.325 N 
HETATM    9  C   UNK N   1      25.328  17.517   3.967  0.00  0.00     0.084 A 
HETATM   10  N   UNK N   1      24.385  18.455   3.790  0.00  0.00    -0.345 N 
HETATM   11  C   UNK N   1      23.197  17.815   3.883  0.00  0.00     0.078 A 
ATOM     12  HN  UNK N   1      24.534  19.449   3.620  1.00  0.00     0.167 HD
HETATM   13  C   UNK N   1      23.452  16.449   4.142  0.00  0.00     0.136 A 
BRANCH   9  14
HETATM   14  C   UNK N   1      26.788  17.816   3.882  0.00  0.00     0.076 C 
BRANCH  14  15
HETATM   15  C   UNK N   1      27.314  18.233   5.245  0.00  0.00     0.003 C 
HETATM   16  C   UNK N   1      28.436  17.304   5.663  0.00  0.00     0.005 C 
ENDBRANCH  14  15
ENDBRANCH   9  14
BRANCH  11  17
HETATM   17  C   UNK N   1      21.922  18.614   3.677  0.00  0.00     0.095 C 
HETATM   18  C   UNK N   1      20.881  18.033   2.754  0.00  0.00     0.052 C 
HETATM   19  C   UNK N   1      22.303  19.970   3.109  0.00  0.00     0.052 C 
BRANCH  17  20
HETATM   20  O   UNK N   1      21.320  18.810   4.919  0.00  0.00    -0.384 OA
HETATM   21  H   UNK N   1      21.352  18.790   5.888  0.00  0.00     0.211 HD
ENDBRANCH  17  20
ENDBRANCH  11  17
BRANCH  13  22
HETATM   22  C   UNK N   1      22.510  15.291   4.318  0.00  0.00     0.196 C 
HETATM   23  O   UNK N   1      22.121  14.636   3.372  0.00  0.00    -0.645 OA
BRANCH  22  24
HETATM   24  O   UNK N   1      22.070  14.957   5.546  0.00  0.00    -0.772 OA
HETATM   25  H   UNK N   1      22.258  14.125   5.934  0.00  0.00     0.167 HD
ENDBRANCH  22  24
ENDBRANCH  13  22
ENDBRANCH   7   8
ENDBRANCH   3   7
BRANCH   2  26
HETATM   26  C   UNK N   1      24.014  12.880   9.388  0.00  0.00    -0.012 A 
HETATM   27  C   UNK N   1      24.858  12.378  10.396  0.00  0.00     0.013 A 
HETATM   28  C   UNK N   1      24.347  11.907  11.602  0.00  0.00     0.001 A 
HETATM   29  C   UNK N   1      22.975  11.936  11.833  0.00  0.00     0.001 A 
HETATM   30  C   UNK N   1      22.111  12.406  10.846  0.00  0.00     0.016 A 
HETATM   31  C   UNK N   1      22.595  12.862   9.610  0.00  0.00     0.021 A 
BRANCH  31  32
HETATM   32  C   UNK N   1      21.565  13.191   8.583  0.00  0.00     0.142 A 
HETATM   33  N   UNK N   1      21.277  12.412   7.526  0.00  0.00    -0.270 N 
HETATM   34  N   UNK N   1      20.365  13.077   6.832  0.00  0.00    -0.007 NA
ATOM     35  HN  UNK N   1      21.677  11.501   7.303  1.00  0.00     0.185 HD
HETATM   36  N   UNK N   1      20.120  14.235   7.422  0.00  0.00    -0.007 NA
HETATM   37  N   UNK N   1      20.866  14.338   8.508  0.00  0.00    -0.270 N 
HETATM   38  H   UNK N   1      20.901  15.097   9.133  0.00  0.00     0.185 HD
ENDBRANCH  31  32
ENDBRANCH   2  26
TORSDOF 10
ENDMDL
MODEL 5
REMARK VINA RESULT:      -7.4      5.125     10.335
REMARK  10 active torsions:
REMARK  status: ('A' for Active; 'I' for Inactive)
REMARK    1  A    between atoms: C_2  and  C_3 
REMARK    2  A    between atoms: C_4  and  C_5 
REMARK    3  A    between atoms: C_19  and  C_7 
REMARK    4  A    between atoms: N_23  and  C_19 
REMARK    5  A    between atoms: C_20  and  C_24 
REMARK    6  A    between atoms: C_24  and  C_25 
REMARK    7  A    between atoms: C_27  and  C_28 
REMARK    8  A    between atoms: C_28  and  O_30 
REMARK    9  A    between atoms: C_31  and  C_32 
REMARK   10  A    between atoms: C_32  and  O_35 
ROOT
HETATM    1  C   UNK N   1      29.593  16.452   6.079  0.00  0.00     0.013 A 
HETATM    2  C   UNK N   1      29.584  17.659   5.365  0.00  0.00    -0.025 A 
HETATM    3  C   UNK N   1      31.791  15.937   5.242  0.00  0.00    -0.040 A 
HETATM    4  C   UNK N   1      30.698  15.605   6.037  0.00  0.00     0.010 A 
HETATM    5  C   UNK N   1      30.641  17.928   4.489  0.00  0.00     0.013 A 
HETATM    6  C   UNK N   1      31.747  17.085   4.450  0.00  0.00     0.010 A 
ENDROOT
BRANCH   3   7
HETATM    7  C   UNK N   1      33.090  15.248   5.473  0.00  0.00     0.169 C 
BRANCH   7   8
HETATM    8  N   UNK N   1      33.374  14.840   6.844  0.00  0.00    -0.325 N 
HETATM    9  C   UNK N   1      33.512  13.586   7.319  0.00  0.00     0.084 A 
HETATM   10  N   UNK N   1      33.880  13.572   8.610  0.00  0.00    -0.345 N 
HETATM   11  C   UNK N   1      33.991  14.867   8.983  0.00  0.00     0.078 A 
ATOM     12  HN  UNK N   1      34.042  12.750   9.192  1.00  0.00     0.167 HD
HETATM   13  C   UNK N   1      33.659  15.675   7.872  0.00  0.00     0.136 A 
BRANCH   9  14
HETATM   14  C   UNK N   1      33.335  12.339   6.518  0.00  0.00     0.076 C 
BRANCH  14  15
HETATM   15  C   UNK N   1      33.337  11.128   7.433  0.00  0.00     0.003 C 
HETATM   16  C   UNK N   1      33.038   9.880   6.626  0.00  0.00     0.005 C 
ENDBRANCH  14  15
ENDBRANCH   9  14
BRANCH  11  17
HETATM   17  C   UNK N   1      34.444  15.181  10.398  0.00  0.00     0.095 C 
HETATM   18  C   UNK N   1      35.179  16.480  10.619  0.00  0.00     0.052 C 
HETATM   19  C   UNK N   1      35.374  14.069  10.851  0.00  0.00     0.052 C 
BRANCH  17  20
HETATM   20  O   UNK N   1      33.324  15.184  11.229  0.00  0.00    -0.384 OA
HETATM   21  H   UNK N   1      32.373  15.310  11.366  0.00  0.00     0.211 HD
ENDBRANCH  17  20
ENDBRANCH  11  17
BRANCH  13  22
HETATM   22  C   UNK N   1      33.633  17.170   7.717  0.00  0.00     0.196 C 
HETATM   23  O   UNK N   1      34.541  17.772   7.182  0.00  0.00    -0.645 OA
BRANCH  22  24
HETATM   24  O   UNK N   1      32.588  17.880   8.184  0.00  0.00    -0.772 OA
HETATM   25  H   UNK N   1      31.805  18.001   7.683  0.00  0.00     0.167 HD
ENDBRANCH  22  24
ENDBRANCH  13  22
ENDBRANCH   7   8
ENDBRANCH   3   7
BRANCH   2  26
HETATM   26  C   UNK N   1      28.541  18.703   5.580  0.00  0.00    -0.012 A 
HETATM   27  C   UNK N   1      28.113  19.431   4.455  0.00  0.00     0.013 A 
HETATM   28  C   UNK N   1      27.141  20.422   4.559  0.00  0.00     0.001 A 
HETATM   29  C   UNK N   1      26.566  20.703   5.794  0.00  0.00     0.001 A 
HETATM   30  C   UNK N   1      26.985  20.015   6.932  0.00  0.00     0.016 A 
HETATM   31  C   UNK N   1      27.983  19.029   6.862  0.00  0.00     0.021 A 
BRANCH  31  32
HETATM   32  C   UNK N   1      28.453  18.479   8.165  0.00  0.00     0.142 A 
HETATM   33  N   UNK N   1      29.670  18.710   8.688  0.00  0.00    -0.270 N 
HETATM   34  N   UNK N   1      29.716  18.003   9.808  0.00  0.00    -0.007 NA
ATOM     35  HN  UNK N   1      30.404  19.304   8.304  1.00  0.00     0.185 HD
HETATM   36  N   UNK N   1      28.583  17.338   9.957  0.00  0.00    -0.007 NA
HETATM   37  N   UNK N   1      27.784  17.605   8.939  0.00  0.00    -0.270 N 
HETATM   38  H   UNK N   1      26.884  17.240   8.781  0.00  0.00     0.185 HD
ENDBRANCH  31  32
ENDBRANCH   2  26
TORSDOF 10
ENDMDL
MODEL 6
REMARK VINA RESULT:      -7.3      5.854     12.018
REMARK  10 active torsions:
REMARK  status: ('A' for Active; 'I' for Inactive)
REMARK    1  A    between atoms: C_2  and  C_3 
REMARK    2  A    between atoms: C_4  and  C_5 
REMARK    3  A    between atoms: C_19  and  C_7 
REMARK    4  A    between atoms: N_23  and  C_19 
REMARK    5  A    between atoms: C_20  and  C_24 
REMARK    6  A    between atoms: C_24  and  C_25 
REMARK    7  A    between atoms: C_27  and  C_28 
REMARK    8  A    between atoms: C_28  and  O_30 
REMARK    9  A    between atoms: C_31  and  C_32 
REMARK   10  A    between atoms: C_32  and  O_35 
ROOT
HETATM    1  C   UNK N   1      29.844  15.596   5.191  0.00  0.00     0.013 A 
HETATM    2  C   UNK N   1      29.519  16.102   3.924  0.00  0.00    -0.025 A 
HETATM    3  C   UNK N   1      31.980  16.706   5.120  0.00  0.00    -0.040 A 
HETATM    4  C   UNK N   1      31.058  15.914   5.798  0.00  0.00     0.010 A 
HETATM    5  C   UNK N   1      30.496  16.806   3.212  0.00  0.00     0.013 A 
HETATM    6  C   UNK N   1      31.706  17.127   3.819  0.00  0.00     0.010 A 
ENDROOT
BRANCH   3   7
HETATM    7  C   UNK N   1      33.088  17.341   5.886  0.00  0.00     0.169 C 
BRANCH   7   8
HETATM    8  N   UNK N   1      33.280  16.878   7.255  0.00  0.00    -0.325 N 
HETATM    9  C   UNK N   1      32.681  17.338   8.372  0.00  0.00     0.084 A 
HETATM   10  N   UNK N   1      33.006  16.614   9.454  0.00  0.00    -0.345 N 
HETATM   11  C   UNK N   1      33.843  15.644   9.020  0.00  0.00     0.078 A 
ATOM     12  HN  UNK N   1      32.688  16.766  10.411  1.00  0.00     0.167 HD
HETATM   13  C   UNK N   1      34.030  15.814   7.629  0.00  0.00     0.136 A 
BRANCH   9  14
HETATM   14  C   UNK N   1      31.724  18.482   8.425  0.00  0.00     0.076 C 
BRANCH  14  15
HETATM   15  C   UNK N   1      30.410  18.034   9.039  0.00  0.00     0.003 C 
HETATM   16  C   UNK N   1      29.308  18.124   8.002  0.00  0.00     0.005 C 
ENDBRANCH  14  15
ENDBRANCH   9  14
BRANCH  11  17
HETATM   17  C   UNK N   1      34.353  14.622  10.020  0.00  0.00     0.095 C 
HETATM   18  C   UNK N   1      35.837  14.599  10.292  0.00  0.00     0.052 C 
HETATM   19  C   UNK N   1      33.980  13.240   9.512  0.00  0.00     0.052 C 
BRANCH  17  20
HETATM   20  O   UNK N   1      33.706  14.834  11.236  0.00  0.00    -0.384 OA
HETATM   21  H   UNK N   1      33.513  14.573  12.150  0.00  0.00     0.211 HD
ENDBRANCH  17  20
ENDBRANCH  11  17
BRANCH  13  22
HETATM   22  C   UNK N   1      34.835  15.017   6.642  0.00  0.00     0.196 C 
HETATM   23  O   UNK N   1      35.967  15.335   6.338  0.00  0.00    -0.645 OA
BRANCH  22  24
HETATM   24  O   UNK N   1      34.305  13.923   6.063  0.00  0.00    -0.772 OA
HETATM   25  H   UNK N   1      34.355  13.076   6.460  0.00  0.00     0.167 HD
ENDBRANCH  22  24
ENDBRANCH  13  22
ENDBRANCH   7   8
ENDBRANCH   3   7
BRANCH   2  26
HETATM   26  C   UNK N   1      28.145  15.997   3.355  0.00  0.00    -0.012 A 
HETATM   27  C   UNK N   1      27.885  14.921   2.487  0.00  0.00     0.013 A 
HETATM   28  C   UNK N   1      26.631  14.741   1.910  0.00  0.00     0.001 A 
HETATM   29  C   UNK N   1      25.601  15.631   2.196  0.00  0.00     0.001 A 
HETATM   30  C   UNK N   1      25.834  16.721   3.033  0.00  0.00     0.016 A 
HETATM   31  C   UNK N   1      27.096  16.944   3.607  0.00  0.00     0.021 A 
BRANCH  31  32
HETATM   32  C   UNK N   1      27.259  18.223   4.355  0.00  0.00     0.142 A 
HETATM   33  N   UNK N   1      26.651  18.501   5.520  0.00  0.00    -0.270 N 
HETATM   34  N   UNK N   1      27.003  19.743   5.819  0.00  0.00    -0.007 NA
ATOM     35  HN  UNK N   1      26.043  17.886   6.061  1.00  0.00     0.185 HD
HETATM   36  N   UNK N   1      27.777  20.224   4.861  0.00  0.00    -0.007 NA
HETATM   37  N   UNK N   1      27.941  19.303   3.928  0.00  0.00    -0.270 N 
HETATM   38  H   UNK N   1      28.456  19.388   3.095  0.00  0.00     0.185 HD
ENDBRANCH  31  32
ENDBRANCH   2  26
TORSDOF 10
ENDMDL
MODEL 7
REMARK VINA RESULT:      -7.2     12.417     14.691
REMARK  10 active torsions:
REMARK  status: ('A' for Active; 'I' for Inactive)
REMARK    1  A    between atoms: C_2  and  C_3 
REMARK    2  A    between atoms: C_4  and  C_5 
REMARK    3  A    between atoms: C_19  and  C_7 
REMARK    4  A    between atoms: N_23  and  C_19 
REMARK    5  A    between atoms: C_20  and  C_24 
REMARK    6  A    between atoms: C_24  and  C_25 
REMARK    7  A    between atoms: C_27  and  C_28 
REMARK    8  A    between atoms: C_28  and  O_30 
REMARK    9  A    between atoms: C_31  and  C_32 
REMARK   10  A    between atoms: C_32  and  O_35 
ROOT
HETATM    1  C   UNK N   1      25.275  14.605   7.762  0.00  0.00     0.013 A 
HETATM    2  C   UNK N   1      24.431  13.492   7.881  0.00  0.00    -0.025 A 
HETATM    3  C   UNK N   1      25.008  14.592   5.369  0.00  0.00    -0.040 A 
HETATM    4  C   UNK N   1      25.545  15.168   6.516  0.00  0.00     0.010 A 
HETATM    5  C   UNK N   1      23.986  12.860   6.715  0.00  0.00     0.013 A 
HETATM    6  C   UNK N   1      24.251  13.424   5.471  0.00  0.00     0.010 A 
ENDROOT
BRANCH   3   7
HETATM    7  C   UNK N   1      24.984  15.380   4.107  0.00  0.00     0.169 C 
BRANCH   7   8
HETATM    8  N   UNK N   1      23.686  15.534   3.461  0.00  0.00    -0.325 N 
HETATM    9  C   UNK N   1      23.264  14.966   2.313  0.00  0.00     0.084 A 
HETATM   10  N   UNK N   1      21.973  15.235   2.061  0.00  0.00    -0.345 N 
HETATM   11  C   UNK N   1      21.541  16.000   3.089  0.00  0.00     0.078 A 
ATOM     12  HN  UNK N   1      21.428  14.925   1.257  1.00  0.00     0.167 HD
HETATM   13  C   UNK N   1      22.626  16.204   3.973  0.00  0.00     0.136 A 
BRANCH   9  14
HETATM   14  C   UNK N   1      24.093  14.095   1.430  0.00  0.00     0.076 C 
BRANCH  14  15
HETATM   15  C   UNK N   1      23.331  12.827   1.086  0.00  0.00     0.003 C 
HETATM   16  C   UNK N   1      23.630  12.426  -0.344  0.00  0.00     0.005 C 
ENDBRANCH  14  15
ENDBRANCH   9  14
BRANCH  11  17
HETATM   17  C   UNK N   1      20.085  16.433   3.113  0.00  0.00     0.095 C 
HETATM   18  C   UNK N   1      19.802  17.913   3.191  0.00  0.00     0.052 C 
HETATM   19  C   UNK N   1      19.426  15.797   4.325  0.00  0.00     0.052 C 
BRANCH  17  20
HETATM   20  O   UNK N   1      19.462  15.945   1.965  0.00  0.00    -0.384 OA
HETATM   21  H   UNK N   1      18.671  15.638   1.498  0.00  0.00     0.211 HD
ENDBRANCH  17  20
ENDBRANCH  11  17
BRANCH  13  22
HETATM   22  C   UNK N   1      22.706  16.953   5.273  0.00  0.00     0.196 C 
HETATM   23  O   UNK N   1      23.191  18.064   5.341  0.00  0.00    -0.645 OA
BRANCH  22  24
HETATM   24  O   UNK N   1      22.239  16.393   6.406  0.00  0.00    -0.772 OA
HETATM   25  H   UNK N   1      22.810  16.021   7.050  0.00  0.00     0.167 HD
ENDBRANCH  22  24
ENDBRANCH  13  22
ENDBRANCH   7   8
ENDBRANCH   3   7
BRANCH   2  26
HETATM   26  C   UNK N   1      23.919  13.019   9.199  0.00  0.00    -0.012 A 
HETATM   27  C   UNK N   1      24.799  12.275  10.006  0.00  0.00     0.013 A 
HETATM   28  C   UNK N   1      24.409  11.795  11.253  0.00  0.00     0.001 A 
HETATM   29  C   UNK N   1      23.128  12.057  11.728  0.00  0.00     0.001 A 
HETATM   30  C   UNK N   1      22.226  12.772  10.942  0.00  0.00     0.016 A 
HETATM   31  C   UNK N   1      22.582  13.245   9.669  0.00  0.00     0.021 A 
BRANCH  31  32
HETATM   32  C   UNK N   1      21.484  13.856   8.866  0.00  0.00     0.142 A 
HETATM   33  N   UNK N   1      20.939  13.290   7.776  0.00  0.00    -0.270 N 
HETATM   34  N   UNK N   1      20.054  14.166   7.324  0.00  0.00    -0.007 NA
ATOM     35  HN  UNK N   1      21.161  12.377   7.379  1.00  0.00     0.185 HD
HETATM   36  N   UNK N   1      20.071  15.244   8.088  0.00  0.00    -0.007 NA
HETATM   37  N   UNK N   1      20.965  15.084   9.049  0.00  0.00    -0.270 N 
HETATM   38  H   UNK N   1      21.200  15.730   9.753  0.00  0.00     0.185 HD
ENDBRANCH  31  32
ENDBRANCH   2  26
TORSDOF 10
ENDMDL
MODEL 8
REMARK VINA RESULT:      -7.2      5.531     11.332
REMARK  10 active torsions:
REMARK  status: ('A' for Active; 'I' for Inactive)
REMARK    1  A    between atoms: C_2  and  C_3 
REMARK    2  A    between atoms: C_4  and  C_5 
REMARK    3  A    between atoms: C_19  and  C_7 
REMARK    4  A    between atoms: N_23  and  C_19 
REMARK    5  A    between atoms: C_20  and  C_24 
REMARK    6  A    between atoms: C_24  and  C_25 
REMARK    7  A    between atoms: C_27  and  C_28 
REMARK    8  A    between atoms: C_28  and  O_30 
REMARK    9  A    between atoms: C_31  and  C_32 
REMARK   10  A    between atoms: C_32  and  O_35 
ROOT
HETATM    1  C   UNK N   1      30.083  17.115   5.940  0.00  0.00     0.013 A 
HETATM    2  C   UNK N   1      29.688  17.400   4.625  0.00  0.00    -0.025 A 
HETATM    3  C   UNK N   1      32.386  16.976   5.250  0.00  0.00    -0.040 A 
HETATM    4  C   UNK N   1      31.426  16.927   6.257  0.00  0.00     0.010 A 
HETATM    5  C   UNK N   1      30.647  17.341   3.608  0.00  0.00     0.013 A 
HETATM    6  C   UNK N   1      31.989  17.157   3.925  0.00  0.00     0.010 A 
ENDROOT
BRANCH   3   7
HETATM    7  C   UNK N   1      33.817  17.144   5.623  0.00  0.00     0.169 C 
BRANCH   7   8
HETATM    8  N   UNK N   1      34.290  16.358   6.757  0.00  0.00    -0.325 N 
HETATM    9  C   UNK N   1      34.637  15.055   6.769  0.00  0.00     0.084 A 
HETATM   10  N   UNK N   1      35.132  14.675   7.957  0.00  0.00    -0.345 N 
HETATM   11  C   UNK N   1      35.112  15.776   8.742  0.00  0.00     0.078 A 
ATOM     12  HN  UNK N   1      35.458  13.744   8.215  1.00  0.00     0.167 HD
HETATM   13  C   UNK N   1      34.567  16.842   7.990  0.00  0.00     0.136 A 
BRANCH   9  14
HETATM   14  C   UNK N   1      34.542  14.129   5.601  0.00  0.00     0.076 C 
BRANCH  14  15
HETATM   15  C   UNK N   1      33.195  13.428   5.601  0.00  0.00     0.003 C 
HETATM   16  C   UNK N   1      33.356  12.017   6.127  0.00  0.00     0.005 C 
ENDBRANCH  14  15
ENDBRANCH   9  14
BRANCH  11  17
HETATM   17  C   UNK N   1      35.662  15.674  10.154  0.00  0.00     0.095 C 
HETATM   18  C   UNK N   1      36.813  14.725  10.383  0.00  0.00     0.052 C 
HETATM   19  C   UNK N   1      34.535  15.224  11.066  0.00  0.00     0.052 C 
BRANCH  17  20
HETATM   20  O   UNK N   1      36.076  16.942  10.557  0.00  0.00    -0.384 OA
HETATM   21  H   UNK N   1      36.746  17.535  10.932  0.00  0.00     0.211 HD
ENDBRANCH  17  20
ENDBRANCH  11  17
BRANCH  13  22
HETATM   22  C   UNK N   1      34.332  18.281   8.355  0.00  0.00     0.196 C 
HETATM   23  O   UNK N   1      33.214  18.720   8.531  0.00  0.00    -0.645 OA
BRANCH  22  24
HETATM   24  O   UNK N   1      35.375  19.124   8.489  0.00  0.00    -0.772 OA
HETATM   25  H   UNK N   1      35.436  19.731   9.200  0.00  0.00     0.167 HD
ENDBRANCH  22  24
ENDBRANCH  13  22
ENDBRANCH   7   8
ENDBRANCH   3   7
BRANCH   2  26
HETATM   26  C   UNK N   1      28.307  17.854   4.290  0.00  0.00    -0.012 A 
HETATM   27  C   UNK N   1      27.960  19.174   4.631  0.00  0.00     0.013 A 
HETATM   28  C   UNK N   1      26.695  19.685   4.355  0.00  0.00     0.001 A 
HETATM   29  C   UNK N   1      25.748  18.889   3.720  0.00  0.00     0.001 A 
HETATM   30  C   UNK N   1      26.054  17.570   3.390  0.00  0.00     0.016 A 
HETATM   31  C   UNK N   1      27.312  17.018   3.681  0.00  0.00     0.021 A 
BRANCH  31  32
HETATM   32  C   UNK N   1      27.463  15.558   3.421  0.00  0.00     0.142 A 
HETATM   33  N   UNK N   1      27.329  14.605   4.360  0.00  0.00    -0.270 N 
HETATM   34  N   UNK N   1      27.597  13.461   3.749  0.00  0.00    -0.007 NA
ATOM     35  HN  UNK N   1      27.075  14.736   5.340  1.00  0.00     0.185 HD
HETATM   36  N   UNK N   1      27.913  13.699   2.487  0.00  0.00    -0.007 NA
HETATM   37  N   UNK N   1      27.852  15.000   2.260  0.00  0.00    -0.270 N 
HETATM   38  H   UNK N   1      28.049  15.464   1.415  0.00  0.00     0.185 HD
ENDBRANCH  31  32
ENDBRANCH   2  26
TORSDOF 10
ENDMDL
MODEL 9
REMARK VINA RESULT:      -7.2      4.030      9.109
REMARK  10 active torsions:
REMARK  status: ('A' for Active; 'I' for Inactive)
REMARK    1  A    between atoms: C_2  and  C_3 
REMARK    2  A    between atoms: C_4  and  C_5 
REMARK    3  A    between atoms: C_19  and  C_7 
REMARK    4  A    between atoms: N_23  and  C_19 
REMARK    5  A    between atoms: C_20  and  C_24 
REMARK    6  A    between atoms: C_24  and  C_25 
REMARK    7  A    between atoms: C_27  and  C_28 
REMARK    8  A    between atoms: C_28  and  O_30 
REMARK    9  A    between atoms: C_31  and  C_32 
REMARK   10  A    between atoms: C_32  and  O_35 
ROOT
HETATM    1  C   UNK N   1      32.326  15.535   9.057  0.00  0.00     0.013 A 
HETATM    2  C   UNK N   1      32.154  16.829   8.543  0.00  0.00    -0.025 A 
HETATM    3  C   UNK N   1      34.667  15.958   9.423  0.00  0.00    -0.040 A 
HETATM    4  C   UNK N   1      33.569  15.108   9.516  0.00  0.00     0.010 A 
HETATM    5  C   UNK N   1      33.285  17.632   8.357  0.00  0.00     0.013 A 
HETATM    6  C   UNK N   1      34.526  17.207   8.819  0.00  0.00     0.010 A 
ENDROOT
BRANCH   3   7
HETATM    7  C   UNK N   1      35.883  15.659  10.228  0.00  0.00     0.169 C 
BRANCH   7   8
HETATM    8  N   UNK N   1      36.270  14.256  10.325  0.00  0.00    -0.325 N 
HETATM    9  C   UNK N   1      36.805  13.481   9.360  0.00  0.00     0.084 A 
HETATM   10  N   UNK N   1      37.144  12.266   9.818  0.00  0.00    -0.345 N 
HETATM   11  C   UNK N   1      36.822  12.256  11.131  0.00  0.00     0.078 A 
ATOM     12  HN  UNK N   1      37.559  11.503   9.283  1.00  0.00     0.167 HD
HETATM   13  C   UNK N   1      36.257  13.511  11.455  0.00  0.00     0.136 A 
BRANCH   9  14
HETATM   14  C   UNK N   1      37.052  13.910   7.952  0.00  0.00     0.076 C 
BRANCH  14  15
HETATM   15  C   UNK N   1      35.882  13.506   7.072  0.00  0.00     0.003 C 
HETATM   16  C   UNK N   1      35.542  14.640   6.126  0.00  0.00     0.005 C 
ENDBRANCH  14  15
ENDBRANCH   9  14
BRANCH  11  17
HETATM   17  C   UNK N   1      37.134  11.014  11.948  0.00  0.00     0.095 C 
HETATM   18  C   UNK N   1      37.849  11.210  13.262  0.00  0.00     0.052 C 
HETATM   19  C   UNK N   1      38.009  10.104  11.104  0.00  0.00     0.052 C 
BRANCH  17  20
HETATM   20  O   UNK N   1      35.937  10.351  12.215  0.00  0.00    -0.384 OA
HETATM   21  H   UNK N   1      35.438   9.535  12.371  0.00  0.00     0.211 HD
ENDBRANCH  17  20
ENDBRANCH  11  17
BRANCH  13  22
HETATM   22  C   UNK N   1      35.746  14.050  12.762  0.00  0.00     0.196 C 
HETATM   23  O   UNK N   1      34.681  13.699  13.224  0.00  0.00    -0.645 OA
BRANCH  22  24
HETATM   24  O   UNK N   1      36.472  14.952  13.451  0.00  0.00    -0.772 OA
HETATM   25  H   UNK N   1      36.078  15.693  13.869  0.00  0.00     0.167 HD
ENDBRANCH  22  24
ENDBRANCH  13  22
ENDBRANCH   7   8
ENDBRANCH   3   7
BRANCH   2  26
HETATM   26  C   UNK N   1      30.806  17.408   8.280  0.00  0.00    -0.012 A 
HETATM   27  C   UNK N   1      30.149  18.035   9.355  0.00  0.00     0.013 A 
HETATM   28  C   UNK N   1      28.889  18.606   9.201  0.00  0.00     0.001 A 
HETATM   29  C   UNK N   1      28.257  18.572   7.963  0.00  0.00     0.001 A 
HETATM   30  C   UNK N   1      28.871  17.938   6.884  0.00  0.00     0.016 A 
HETATM   31  C   UNK N   1      30.130  17.329   7.015  0.00  0.00     0.021 A 
BRANCH  31  32
HETATM   32  C   UNK N   1      30.608  16.552   5.837  0.00  0.00     0.142 A 
HETATM   33  N   UNK N   1      30.444  15.226   5.688  0.00  0.00    -0.270 N 
HETATM   34  N   UNK N   1      31.055  14.915   4.555  0.00  0.00    -0.007 NA
ATOM     35  HN  UNK N   1      29.951  14.591   6.317  1.00  0.00     0.185 HD
HETATM   36  N   UNK N   1      31.602  16.002   4.037  0.00  0.00    -0.007 NA
HETATM   37  N   UNK N   1      31.351  17.034   4.824  0.00  0.00    -0.270 N 
HETATM   38  H   UNK N   1      31.647  17.964   4.694  0.00  0.00     0.185 HD
ENDBRANCH  31  32
ENDBRANCH   2  26
TORSDOF 10
ENDMDL
