MODEL 1
REMARK VINA RESULT:      -6.4      0.000      0.000
REMARK  9 active torsions:
REMARK  status: ('A' for Active; 'I' for Inactive)
REMARK    1  A    between atoms: C_5  and  C_9 
REMARK    2  A    between atoms: C_8  and  C_9 
REMARK    3  A    between atoms: C_11  and  O_15 
REMARK    4  A    between atoms: C_14  and  C_24 
REMARK    5  A    between atoms: O_15  and  C_16 
REMARK    6  A    between atoms: C_16  and  C_17 
REMARK    7  A    between atoms: C_17  and  N_18 
REMARK    8  A    between atoms: N_18  and  C_19 
REMARK    9  A    between atoms: N_18  and  C_21 
ROOT
HETATM    1  C   UNK N   1      27.262  26.008  -5.514  0.00  0.00     0.007 C 
HETATM    2  C   UNK N   1      26.630  25.491  -6.642  0.00  0.00     0.056 C 
HETATM    3 Cl   UNK N   1      25.725  26.541  -7.759  0.00  0.00    -0.082 Cl
ENDROOT
BRANCH   1   4
HETATM    4  C   UNK N   1      28.209  25.169  -4.682  0.00  0.00    -0.023 A 
HETATM    5  C   UNK N   1      27.726  24.351  -3.645  0.00  0.00     0.015 A 
HETATM    6  C   UNK N   1      28.600  23.587  -2.866  0.00  0.00     0.037 A 
HETATM    7  C   UNK N   1      29.979  23.645  -3.086  0.00  0.00     0.068 A 
HETATM    8  C   UNK N   1      30.474  24.497  -4.083  0.00  0.00     0.037 A 
HETATM    9  C   UNK N   1      29.600  25.252  -4.867  0.00  0.00     0.015 A 
BRANCH   7  10
HETATM   10  O   UNK N   1      30.799  22.859  -2.341  0.00  0.00    -0.349 OA
BRANCH  10  11
HETATM   11  C   UNK N   1      31.626  21.861  -2.832  0.00  0.00     0.206 C 
BRANCH  11  12
HETATM   12  C   UNK N   1      30.872  20.767  -3.591  0.00  0.00     0.299 C 
BRANCH  12  13
HETATM   13  N   UNK N   1      31.724  20.106  -4.578  0.00  0.00     0.089 N 
BRANCH  13  14
HETATM   14  C   UNK N   1      33.130  20.515  -4.477  0.00  0.00     0.268 C 
HETATM   15  C   UNK N   1      34.071  19.375  -4.100  0.00  0.00     0.037 C 
ENDBRANCH  13  14
BRANCH  13  16
HETATM   16  C   UNK N   1      31.193  20.235  -5.942  0.00  0.00     0.268 C 
HETATM   17  C   UNK N   1      30.042  21.231  -6.064  0.00  0.00     0.037 C 
ENDBRANCH  13  16
ENDBRANCH  12  13
ENDBRANCH  11  12
ENDBRANCH  10  11
ENDBRANCH   7  10
ENDBRANCH   1   4
BRANCH   1  18
HETATM   18  C   UNK N   1      27.089  27.462  -5.093  0.00  0.00    -0.023 A 
HETATM   19  C   UNK N   1      26.136  27.807  -4.114  0.00  0.00     0.012 A 
HETATM   20  C   UNK N   1      25.956  29.135  -3.713  0.00  0.00     0.001 A 
HETATM   21  C   UNK N   1      26.720  30.148  -4.290  0.00  0.00     0.000 A 
HETATM   22  C   UNK N   1      27.662  29.834  -5.268  0.00  0.00     0.001 A 
HETATM   23  C   UNK N   1      27.841  28.506  -5.663  0.00  0.00     0.012 A 
ENDBRANCH   1  18
BRANCH   2  24
HETATM   24  C   UNK N   1      26.609  24.039  -7.039  0.00  0.00    -0.014 A 
HETATM   25  C   UNK N   1      25.609  23.153  -6.597  0.00  0.00     0.013 A 
HETATM   26  C   UNK N   1      25.572  21.830  -7.045  0.00  0.00     0.001 A 
HETATM   27  C   UNK N   1      26.523  21.376  -7.962  0.00  0.00     0.000 A 
HETATM   28  C   UNK N   1      27.501  22.250  -8.438  0.00  0.00     0.001 A 
HETATM   29  C   UNK N   1      27.533  23.573  -7.991  0.00  0.00     0.013 A 
ENDBRANCH   2  24
TORSDOF 9
ENDMDL
MODEL 2
REMARK VINA RESULT:      -6.3     11.363     14.337
REMARK  9 active torsions:
REMARK  status: ('A' for Active; 'I' for Inactive)
REMARK    1  A    between atoms: C_5  and  C_9 
REMARK    2  A    between atoms: C_8  and  C_9 
REMARK    3  A    between atoms: C_11  and  O_15 
REMARK    4  A    between atoms: C_14  and  C_24 
REMARK    5  A    between atoms: O_15  and  C_16 
REMARK    6  A    between atoms: C_16  and  C_17 
REMARK    7  A    between atoms: C_17  and  N_18 
REMARK    8  A    between atoms: N_18  and  C_19 
REMARK    9  A    between atoms: N_18  and  C_21 
ROOT
HETATM    1  C   UNK N   1      29.879  17.501   5.830  0.00  0.00     0.007 C 
HETATM    2  C   UNK N   1      30.082  17.535   7.208  0.00  0.00     0.056 C 
HETATM    3 Cl   UNK N   1      28.810  18.098   8.318  0.00  0.00    -0.082 Cl
ENDROOT
BRANCH   1   4
HETATM    4  C   UNK N   1      30.864  16.825   4.900  0.00  0.00    -0.023 A 
HETATM    5  C   UNK N   1      31.829  17.575   4.203  0.00  0.00     0.015 A 
HETATM    6  C   UNK N   1      32.730  16.955   3.333  0.00  0.00     0.037 A 
HETATM    7  C   UNK N   1      32.670  15.576   3.116  0.00  0.00     0.068 A 
HETATM    8  C   UNK N   1      31.678  14.827   3.766  0.00  0.00     0.037 A 
HETATM    9  C   UNK N   1      30.786  15.445   4.642  0.00  0.00     0.015 A 
BRANCH   7  10
HETATM   10  O   UNK N   1      33.586  14.996   2.297  0.00  0.00    -0.349 OA
BRANCH  10  11
HETATM   11  C   UNK N   1      34.211  13.779   2.519  0.00  0.00     0.206 C 
BRANCH  11  12
HETATM   12  C   UNK N   1      35.290  13.839   3.601  0.00  0.00     0.299 C 
BRANCH  12  13
HETATM   13  N   UNK N   1      34.980  12.959   4.726  0.00  0.00     0.089 N 
BRANCH  13  14
HETATM   14  C   UNK N   1      33.902  12.010   4.422  0.00  0.00     0.268 C 
HETATM   15  C   UNK N   1      32.897  11.846   5.557  0.00  0.00     0.037 C 
ENDBRANCH  13  14
BRANCH  13  16
HETATM   16  C   UNK N   1      34.743  13.709   5.966  0.00  0.00     0.268 C 
HETATM   17  C   UNK N   1      34.987  15.211   5.835  0.00  0.00     0.037 C 
ENDBRANCH  13  16
ENDBRANCH  12  13
ENDBRANCH  11  12
ENDBRANCH  10  11
ENDBRANCH   7  10
ENDBRANCH   1   4
BRANCH   1  18
HETATM   18  C   UNK N   1      28.624  18.081   5.190  0.00  0.00    -0.023 A 
HETATM   19  C   UNK N   1      27.552  17.237   4.840  0.00  0.00     0.012 A 
HETATM   20  C   UNK N   1      26.391  17.745   4.249  0.00  0.00     0.001 A 
HETATM   21  C   UNK N   1      26.281  19.111   3.986  0.00  0.00     0.000 A 
HETATM   22  C   UNK N   1      27.333  19.965   4.313  0.00  0.00     0.001 A 
HETATM   23  C   UNK N   1      28.489  19.454   4.907  0.00  0.00     0.012 A 
ENDBRANCH   1  18
BRANCH   2  24
HETATM   24  C   UNK N   1      31.354  17.139   7.909  0.00  0.00    -0.014 A 
HETATM   25  C   UNK N   1      31.572  15.835   8.392  0.00  0.00     0.013 A 
HETATM   26  C   UNK N   1      32.793  15.477   8.968  0.00  0.00     0.001 A 
HETATM   27  C   UNK N   1      33.828  16.412   9.051  0.00  0.00     0.000 A 
HETATM   28  C   UNK N   1      33.642  17.699   8.546  0.00  0.00     0.001 A 
HETATM   29  C   UNK N   1      32.421  18.053   7.967  0.00  0.00     0.013 A 
ENDBRANCH   2  24
TORSDOF 9
ENDMDL
MODEL 3
REMARK VINA RESULT:      -6.2     11.864     15.786
REMARK  9 active torsions:
REMARK  status: ('A' for Active; 'I' for Inactive)
REMARK    1  A    between atoms: C_5  and  C_9 
REMARK    2  A    between atoms: C_8  and  C_9 
REMARK    3  A    between atoms: C_11  and  O_15 
REMARK    4  A    between atoms: C_14  and  C_24 
REMARK    5  A    between atoms: O_15  and  C_16 
REMARK    6  A    between atoms: C_16  and  C_17 
REMARK    7  A    between atoms: C_17  and  N_18 
REMARK    8  A    between atoms: N_18  and  C_19 
REMARK    9  A    between atoms: N_18  and  C_21 
ROOT
HETATM    1  C   UNK N   1      33.373  16.198   7.810  0.00  0.00     0.007 C 
HETATM    2  C   UNK N   1      33.982  15.838   6.610  0.00  0.00     0.056 C 
HETATM    3 Cl   UNK N   1      35.504  14.915   6.584  0.00  0.00    -0.082 Cl
ENDROOT
BRANCH   1   4
HETATM    4  C   UNK N   1      31.979  16.786   7.847  0.00  0.00    -0.023 A 
HETATM    5  C   UNK N   1      31.711  17.961   8.572  0.00  0.00     0.015 A 
HETATM    6  C   UNK N   1      30.421  18.499   8.619  0.00  0.00     0.037 A 
HETATM    7  C   UNK N   1      29.364  17.859   7.967  0.00  0.00     0.068 A 
HETATM    8  C   UNK N   1      29.610  16.658   7.285  0.00  0.00     0.037 A 
HETATM    9  C   UNK N   1      30.900  16.128   7.231  0.00  0.00     0.015 A 
BRANCH   7  10
HETATM   10  O   UNK N   1      28.130  18.427   7.995  0.00  0.00    -0.349 OA
BRANCH  10  11
HETATM   11  C   UNK N   1      27.731  19.527   7.252  0.00  0.00     0.206 C 
BRANCH  11  12
HETATM   12  C   UNK N   1      28.177  19.465   5.790  0.00  0.00     0.299 C 
BRANCH  12  13
HETATM   13  N   UNK N   1      27.071  19.120   4.899  0.00  0.00     0.089 N 
BRANCH  13  14
HETATM   14  C   UNK N   1      27.103  17.716   4.473  0.00  0.00     0.268 C 
HETATM   15  C   UNK N   1      28.437  17.295   3.863  0.00  0.00     0.037 C 
ENDBRANCH  13  14
BRANCH  13  16
HETATM   16  C   UNK N   1      26.959  20.053   3.769  0.00  0.00     0.268 C 
HETATM   17  C   UNK N   1      25.558  20.125   3.166  0.00  0.00     0.037 C 
ENDBRANCH  13  16
ENDBRANCH  12  13
ENDBRANCH  11  12
ENDBRANCH  10  11
ENDBRANCH   7  10
ENDBRANCH   1   4
BRANCH   1  18
HETATM   18  C   UNK N   1      34.048  15.958   9.155  0.00  0.00    -0.023 A 
HETATM   19  C   UNK N   1      33.738  14.809   9.909  0.00  0.00     0.012 A 
HETATM   20  C   UNK N   1      34.341  14.568  11.147  0.00  0.00     0.001 A 
HETATM   21  C   UNK N   1      35.263  15.478  11.663  0.00  0.00     0.000 A 
HETATM   22  C   UNK N   1      35.579  16.629  10.942  0.00  0.00     0.001 A 
HETATM   23  C   UNK N   1      34.976  16.863   9.704  0.00  0.00     0.012 A 
ENDBRANCH   1  18
BRANCH   2  24
HETATM   24  C   UNK N   1      33.469  16.182   5.238  0.00  0.00    -0.014 A 
HETATM   25  C   UNK N   1      33.153  15.197   4.284  0.00  0.00     0.013 A 
HETATM   26  C   UNK N   1      32.604  15.545   3.046  0.00  0.00     0.001 A 
HETATM   27  C   UNK N   1      32.342  16.884   2.750  0.00  0.00     0.000 A 
HETATM   28  C   UNK N   1      32.616  17.871   3.697  0.00  0.00     0.001 A 
HETATM   29  C   UNK N   1      33.161  17.520   4.935  0.00  0.00     0.013 A 
ENDBRANCH   2  24
TORSDOF 9
ENDMDL
MODEL 4
REMARK VINA RESULT:      -6.2     11.213     13.369
REMARK  9 active torsions:
REMARK  status: ('A' for Active; 'I' for Inactive)
REMARK    1  A    between atoms: C_5  and  C_9 
REMARK    2  A    between atoms: C_8  and  C_9 
REMARK    3  A    between atoms: C_11  and  O_15 
REMARK    4  A    between atoms: C_14  and  C_24 
REMARK    5  A    between atoms: O_15  and  C_16 
REMARK    6  A    between atoms: C_16  and  C_17 
REMARK    7  A    between atoms: C_17  and  N_18 
REMARK    8  A    between atoms: N_18  and  C_19 
REMARK    9  A    between atoms: N_18  and  C_21 
ROOT
HETATM    1  C   UNK N   1      28.826  17.543   4.808  0.00  0.00     0.007 C 
HETATM    2  C   UNK N   1      28.178  16.520   4.120  0.00  0.00     0.056 C 
HETATM    3 Cl   UNK N   1      26.528  16.728   3.488  0.00  0.00    -0.082 Cl
ENDROOT
BRANCH   1   4
HETATM    4  C   UNK N   1      30.296  17.457   5.157  0.00  0.00    -0.023 A 
HETATM    5  C   UNK N   1      31.283  17.676   4.179  0.00  0.00     0.015 A 
HETATM    6  C   UNK N   1      32.642  17.582   4.495  0.00  0.00     0.037 A 
HETATM    7  C   UNK N   1      33.045  17.239   5.788  0.00  0.00     0.068 A 
HETATM    8  C   UNK N   1      32.068  16.967   6.757  0.00  0.00     0.037 A 
HETATM    9  C   UNK N   1      30.713  17.071   6.442  0.00  0.00     0.015 A 
BRANCH   7  10
HETATM   10  O   UNK N   1      34.372  17.197   6.076  0.00  0.00    -0.349 OA
BRANCH  10  11
HETATM   11  C   UNK N   1      35.040  16.127   6.651  0.00  0.00     0.206 C 
BRANCH  11  12
HETATM   12  C   UNK N   1      34.975  14.850   5.811  0.00  0.00     0.299 C 
BRANCH  12  13
HETATM   13  N   UNK N   1      34.288  13.771   6.519  0.00  0.00     0.089 N 
BRANCH  13  14
HETATM   14  C   UNK N   1      32.973  13.463   5.943  0.00  0.00     0.268 C 
HETATM   15  C   UNK N   1      32.844  13.855   4.474  0.00  0.00     0.037 C 
ENDBRANCH  13  14
BRANCH  13  16
HETATM   16  C   UNK N   1      34.230  14.009   7.968  0.00  0.00     0.268 C 
HETATM   17  C   UNK N   1      32.840  13.817   8.570  0.00  0.00     0.037 C 
ENDBRANCH  13  16
ENDBRANCH  12  13
ENDBRANCH  11  12
ENDBRANCH  10  11
ENDBRANCH   7  10
ENDBRANCH   1   4
BRANCH   1  18
HETATM   18  C   UNK N   1      28.109  18.833   5.187  0.00  0.00    -0.023 A 
HETATM   19  C   UNK N   1      27.893  19.151   6.543  0.00  0.00     0.012 A 
HETATM   20  C   UNK N   1      27.235  20.327   6.916  0.00  0.00     0.001 A 
HETATM   21  C   UNK N   1      26.769  21.207   5.940  0.00  0.00     0.000 A 
HETATM   22  C   UNK N   1      26.961  20.910   4.591  0.00  0.00     0.001 A 
HETATM   23  C   UNK N   1      27.622  19.736   4.223  0.00  0.00     0.012 A 
ENDBRANCH   1  18
BRANCH   2  24
HETATM   24  C   UNK N   1      28.752  15.154   3.851  0.00  0.00    -0.014 A 
HETATM   25  C   UNK N   1      28.756  14.135   4.822  0.00  0.00     0.013 A 
HETATM   26  C   UNK N   1      29.224  12.855   4.516  0.00  0.00     0.001 A 
HETATM   27  C   UNK N   1      29.677  12.564   3.228  0.00  0.00     0.000 A 
HETATM   28  C   UNK N   1      29.648  13.552   2.243  0.00  0.00     0.001 A 
HETATM   29  C   UNK N   1      29.175  14.831   2.549  0.00  0.00     0.013 A 
ENDBRANCH   2  24
TORSDOF 9
ENDMDL
MODEL 5
REMARK VINA RESULT:      -6.1     11.753     14.615
REMARK  9 active torsions:
REMARK  status: ('A' for Active; 'I' for Inactive)
REMARK    1  A    between atoms: C_5  and  C_9 
REMARK    2  A    between atoms: C_8  and  C_9 
REMARK    3  A    between atoms: C_11  and  O_15 
REMARK    4  A    between atoms: C_14  and  C_24 
REMARK    5  A    between atoms: O_15  and  C_16 
REMARK    6  A    between atoms: C_16  and  C_17 
REMARK    7  A    between atoms: C_17  and  N_18 
REMARK    8  A    between atoms: N_18  and  C_19 
REMARK    9  A    between atoms: N_18  and  C_21 
ROOT
HETATM    1  C   UNK N   1      30.195  17.224   6.018  0.00  0.00     0.007 C 
HETATM    2  C   UNK N   1      30.549  17.317   7.362  0.00  0.00     0.056 C 
HETATM    3 Cl   UNK N   1      29.350  17.740   8.608  0.00  0.00    -0.082 Cl
ENDROOT
BRANCH   1   4
HETATM    4  C   UNK N   1      31.147  16.658   4.986  0.00  0.00    -0.023 A 
HETATM    5  C   UNK N   1      31.229  15.270   4.767  0.00  0.00     0.015 A 
HETATM    6  C   UNK N   1      32.117  14.743   3.824  0.00  0.00     0.037 A 
HETATM    7  C   UNK N   1      32.964  15.587   3.101  0.00  0.00     0.068 A 
HETATM    8  C   UNK N   1      32.927  16.967   3.350  0.00  0.00     0.037 A 
HETATM    9  C   UNK N   1      32.033  17.492   4.284  0.00  0.00     0.015 A 
BRANCH   7  10
HETATM   10  O   UNK N   1      33.786  15.050   2.163  0.00  0.00    -0.349 OA
BRANCH  10  11
HETATM   11  C   UNK N   1      34.173  13.720   2.094  0.00  0.00     0.206 C 
BRANCH  11  12
HETATM   12  C   UNK N   1      35.489  13.434   2.820  0.00  0.00     0.299 C 
BRANCH  12  13
HETATM   13  N   UNK N   1      35.282  13.215   4.250  0.00  0.00     0.089 N 
BRANCH  13  14
HETATM   14  C   UNK N   1      36.076  14.127   5.083  0.00  0.00     0.268 C 
HETATM   15  C   UNK N   1      35.230  15.072   5.930  0.00  0.00     0.037 C 
ENDBRANCH  13  14
BRANCH  13  16
HETATM   16  C   UNK N   1      35.459  11.805   4.626  0.00  0.00     0.268 C 
HETATM   17  C   UNK N   1      34.147  11.051   4.824  0.00  0.00     0.037 C 
ENDBRANCH  13  16
ENDBRANCH  12  13
ENDBRANCH  11  12
ENDBRANCH  10  11
ENDBRANCH   7  10
ENDBRANCH   1   4
BRANCH   1  18
HETATM   18  C   UNK N   1      28.811  17.625   5.524  0.00  0.00    -0.023 A 
HETATM   19  C   UNK N   1      28.598  18.903   4.972  0.00  0.00     0.012 A 
HETATM   20  C   UNK N   1      27.336  19.295   4.514  0.00  0.00     0.001 A 
HETATM   21  C   UNK N   1      26.256  18.418   4.607  0.00  0.00     0.000 A 
HETATM   22  C   UNK N   1      26.438  17.151   5.159  0.00  0.00     0.001 A 
HETATM   23  C   UNK N   1      27.701  16.763   5.612  0.00  0.00     0.012 A 
ENDBRANCH   1  18
BRANCH   2  24
HETATM   24  C   UNK N   1      31.933  17.104   7.914  0.00  0.00    -0.014 A 
HETATM   25  C   UNK N   1      32.922  18.104   7.871  0.00  0.00     0.013 A 
HETATM   26  C   UNK N   1      34.172  17.904   8.462  0.00  0.00     0.001 A 
HETATM   27  C   UNK N   1      34.448  16.707   9.126  0.00  0.00     0.000 A 
HETATM   28  C   UNK N   1      33.467  15.718   9.209  0.00  0.00     0.001 A 
HETATM   29  C   UNK N   1      32.217  15.922   8.621  0.00  0.00     0.013 A 
ENDBRANCH   2  24
TORSDOF 9
ENDMDL
MODEL 6
REMARK VINA RESULT:      -6.1     16.526     20.922
REMARK  9 active torsions:
REMARK  status: ('A' for Active; 'I' for Inactive)
REMARK    1  A    between atoms: C_5  and  C_9 
REMARK    2  A    between atoms: C_8  and  C_9 
REMARK    3  A    between atoms: C_11  and  O_15 
REMARK    4  A    between atoms: C_14  and  C_24 
REMARK    5  A    between atoms: O_15  and  C_16 
REMARK    6  A    between atoms: C_16  and  C_17 
REMARK    7  A    between atoms: C_17  and  N_18 
REMARK    8  A    between atoms: N_18  and  C_19 
REMARK    9  A    between atoms: N_18  and  C_21 
ROOT
HETATM    1  C   UNK N   1      36.325  13.368  12.522  0.00  0.00     0.007 C 
HETATM    2  C   UNK N   1      37.157  12.394  11.974  0.00  0.00     0.056 C 
HETATM    3 Cl   UNK N   1      37.770  11.040  12.954  0.00  0.00    -0.082 Cl
ENDROOT
BRANCH   1   4
HETATM    4  C   UNK N   1      35.626  14.393  11.655  0.00  0.00    -0.023 A 
HETATM    5  C   UNK N   1      34.473  14.053  10.924  0.00  0.00     0.015 A 
HETATM    6  C   UNK N   1      33.834  14.994  10.111  0.00  0.00     0.037 A 
HETATM    7  C   UNK N   1      34.349  16.287   9.987  0.00  0.00     0.068 A 
HETATM    8  C   UNK N   1      35.528  16.620  10.670  0.00  0.00     0.037 A 
HETATM    9  C   UNK N   1      36.159  15.683  11.489  0.00  0.00     0.015 A 
BRANCH   7  10
HETATM   10  O   UNK N   1      33.683  17.192   9.223  0.00  0.00    -0.349 OA
BRANCH  10  11
HETATM   11  C   UNK N   1      34.203  17.862   8.127  0.00  0.00     0.206 C 
BRANCH  11  12
HETATM   12  C   UNK N   1      34.362  16.972   6.892  0.00  0.00     0.299 C 
BRANCH  12  13
HETATM   13  N   UNK N   1      33.185  16.133   6.674  0.00  0.00     0.089 N 
BRANCH  13  14
HETATM   14  C   UNK N   1      33.532  14.733   6.401  0.00  0.00     0.268 C 
HETATM   15  C   UNK N   1      35.002  14.410   6.645  0.00  0.00     0.037 C 
ENDBRANCH  13  14
BRANCH  13  16
HETATM   16  C   UNK N   1      32.281  16.701   5.665  0.00  0.00     0.268 C 
HETATM   17  C   UNK N   1      32.993  17.515   4.587  0.00  0.00     0.037 C 
ENDBRANCH  13  16
ENDBRANCH  12  13
ENDBRANCH  11  12
ENDBRANCH  10  11
ENDBRANCH   7  10
ENDBRANCH   1   4
BRANCH   1  18
HETATM   18  C   UNK N   1      36.021  13.414  14.015  0.00  0.00    -0.023 A 
HETATM   19  C   UNK N   1      34.917  12.709  14.534  0.00  0.00     0.012 A 
HETATM   20  C   UNK N   1      34.614  12.738  15.899  0.00  0.00     0.001 A 
HETATM   21  C   UNK N   1      35.406  13.482  16.774  0.00  0.00     0.000 A 
HETATM   22  C   UNK N   1      36.498  14.197  16.283  0.00  0.00     0.001 A 
HETATM   23  C   UNK N   1      36.798  14.162  14.919  0.00  0.00     0.012 A 
ENDBRANCH   1  18
BRANCH   2  24
HETATM   24  C   UNK N   1      37.643  12.368  10.549  0.00  0.00    -0.014 A 
HETATM   25  C   UNK N   1      38.777  13.089  10.129  0.00  0.00     0.013 A 
HETATM   26  C   UNK N   1      39.250  12.982   8.819  0.00  0.00     0.001 A 
HETATM   27  C   UNK N   1      38.611  12.135   7.911  0.00  0.00     0.000 A 
HETATM   28  C   UNK N   1      37.507  11.387   8.320  0.00  0.00     0.001 A 
HETATM   29  C   UNK N   1      37.038  11.492   9.632  0.00  0.00     0.013 A 
ENDBRANCH   2  24
TORSDOF 9
ENDMDL
MODEL 7
REMARK VINA RESULT:      -5.8     11.419     14.613
REMARK  9 active torsions:
REMARK  status: ('A' for Active; 'I' for Inactive)
REMARK    1  A    between atoms: C_5  and  C_9 
REMARK    2  A    between atoms: C_8  and  C_9 
REMARK    3  A    between atoms: C_11  and  O_15 
REMARK    4  A    between atoms: C_14  and  C_24 
REMARK    5  A    between atoms: O_15  and  C_16 
REMARK    6  A    between atoms: C_16  and  C_17 
REMARK    7  A    between atoms: C_17  and  N_18 
REMARK    8  A    between atoms: N_18  and  C_19 
REMARK    9  A    between atoms: N_18  and  C_21 
ROOT
HETATM    1  C   UNK N   1      28.738  16.026   4.366  0.00  0.00     0.007 C 
HETATM    2  C   UNK N   1      27.579  16.775   4.554  0.00  0.00     0.056 C 
HETATM    3 Cl   UNK N   1      25.974  16.111   4.168  0.00  0.00    -0.082 Cl
ENDROOT
BRANCH   1   4
HETATM    4  C   UNK N   1      30.079  16.495   4.890  0.00  0.00    -0.023 A 
HETATM    5  C   UNK N   1      30.392  16.398   6.258  0.00  0.00     0.015 A 
HETATM    6  C   UNK N   1      31.623  16.843   6.748  0.00  0.00     0.037 A 
HETATM    7  C   UNK N   1      32.559  17.423   5.887  0.00  0.00     0.068 A 
HETATM    8  C   UNK N   1      32.235  17.573   4.530  0.00  0.00     0.037 A 
HETATM    9  C   UNK N   1      31.010  17.118   4.042  0.00  0.00     0.015 A 
BRANCH   7  10
HETATM   10  O   UNK N   1      33.763  17.808   6.384  0.00  0.00    -0.349 OA
BRANCH  10  11
HETATM   11  C   UNK N   1      34.100  17.865   7.727  0.00  0.00     0.206 C 
BRANCH  11  12
HETATM   12  C   UNK N   1      34.715  16.567   8.253  0.00  0.00     0.299 C 
BRANCH  12  13
HETATM   13  N   UNK N   1      34.311  16.295   9.632  0.00  0.00     0.089 N 
BRANCH  13  14
HETATM   14  C   UNK N   1      35.332  16.692  10.609  0.00  0.00     0.268 C 
HETATM   15  C   UNK N   1      35.670  15.597  11.616  0.00  0.00     0.037 C 
ENDBRANCH  13  14
BRANCH  13  16
HETATM   16  C   UNK N   1      33.861  14.908   9.814  0.00  0.00     0.268 C 
HETATM   17  C   UNK N   1      33.325  14.262   8.539  0.00  0.00     0.037 C 
ENDBRANCH  13  16
ENDBRANCH  12  13
ENDBRANCH  11  12
ENDBRANCH  10  11
ENDBRANCH   7  10
ENDBRANCH   1   4
BRANCH   1  18
HETATM   18  C   UNK N   1      28.711  14.665   3.681  0.00  0.00    -0.023 A 
HETATM   19  C   UNK N   1      28.615  13.488   4.450  0.00  0.00     0.012 A 
HETATM   20  C   UNK N   1      28.592  12.227   3.846  0.00  0.00     0.001 A 
HETATM   21  C   UNK N   1      28.673  12.116   2.458  0.00  0.00     0.000 A 
HETATM   22  C   UNK N   1      28.780  13.265   1.676  0.00  0.00     0.001 A 
HETATM   23  C   UNK N   1      28.799  14.523   2.284  0.00  0.00     0.012 A 
ENDBRANCH   1  18
BRANCH   2  24
HETATM   24  C   UNK N   1      27.532  18.190   5.066  0.00  0.00    -0.014 A 
HETATM   25  C   UNK N   1      27.678  18.501   6.430  0.00  0.00     0.013 A 
HETATM   26  C   UNK N   1      27.708  19.829   6.865  0.00  0.00     0.001 A 
HETATM   27  C   UNK N   1      27.616  20.870   5.939  0.00  0.00     0.000 A 
HETATM   28  C   UNK N   1      27.506  20.581   4.578  0.00  0.00     0.001 A 
HETATM   29  C   UNK N   1      27.480  19.253   4.146  0.00  0.00     0.013 A 
ENDBRANCH   2  24
TORSDOF 9
ENDMDL
MODEL 8
REMARK VINA RESULT:      -5.8     12.776     14.909
REMARK  9 active torsions:
REMARK  status: ('A' for Active; 'I' for Inactive)
REMARK    1  A    between atoms: C_5  and  C_9 
REMARK    2  A    between atoms: C_8  and  C_9 
REMARK    3  A    between atoms: C_11  and  O_15 
REMARK    4  A    between atoms: C_14  and  C_24 
REMARK    5  A    between atoms: O_15  and  C_16 
REMARK    6  A    between atoms: C_16  and  C_17 
REMARK    7  A    between atoms: C_17  and  N_18 
REMARK    8  A    between atoms: N_18  and  C_19 
REMARK    9  A    between atoms: N_18  and  C_21 
ROOT
HETATM    1  C   UNK N   1      21.439  15.619   5.477  0.00  0.00     0.007 C 
HETATM    2  C   UNK N   1      20.316  15.861   4.689  0.00  0.00     0.056 C 
HETATM    3 Cl   UNK N   1      18.673  15.550   5.297  0.00  0.00    -0.082 Cl
ENDROOT
BRANCH   1   4
HETATM    4  C   UNK N   1      22.818  16.081   5.056  0.00  0.00    -0.023 A 
HETATM    5  C   UNK N   1      23.221  17.415   5.248  0.00  0.00     0.015 A 
HETATM    6  C   UNK N   1      24.489  17.847   4.847  0.00  0.00     0.037 A 
HETATM    7  C   UNK N   1      25.371  16.965   4.217  0.00  0.00     0.068 A 
HETATM    8  C   UNK N   1      24.958  15.647   3.973  0.00  0.00     0.037 A 
HETATM    9  C   UNK N   1      23.697  15.214   4.384  0.00  0.00     0.015 A 
BRANCH   7  10
HETATM   10  O   UNK N   1      26.611  17.403   3.877  0.00  0.00    -0.349 OA
BRANCH  10  11
HETATM   11  C   UNK N   1      27.766  17.217   4.621  0.00  0.00     0.206 C 
BRANCH  11  12
HETATM   12  C   UNK N   1      28.322  18.514   5.209  0.00  0.00     0.299 C 
BRANCH  12  13
HETATM   13  N   UNK N   1      27.836  18.745   6.569  0.00  0.00     0.089 N 
BRANCH  13  14
HETATM   14  C   UNK N   1      27.410  20.133   6.790  0.00  0.00     0.268 C 
HETATM   15  C   UNK N   1      27.316  20.953   5.507  0.00  0.00     0.037 C 
ENDBRANCH  13  14
BRANCH  13  16
HETATM   16  C   UNK N   1      28.789  18.276   7.584  0.00  0.00     0.268 C 
HETATM   17  C   UNK N   1      28.177  18.104   8.972  0.00  0.00     0.037 C 
ENDBRANCH  13  16
ENDBRANCH  12  13
ENDBRANCH  11  12
ENDBRANCH  10  11
ENDBRANCH   7  10
ENDBRANCH   1   4
BRANCH   1  18
HETATM   18  C   UNK N   1      21.333  14.937   6.835  0.00  0.00    -0.023 A 
HETATM   19  C   UNK N   1      21.047  15.694   7.988  0.00  0.00     0.012 A 
HETATM   20  C   UNK N   1      20.948  15.092   9.246  0.00  0.00     0.001 A 
HETATM   21  C   UNK N   1      21.142  13.717   9.380  0.00  0.00     0.000 A 
HETATM   22  C   UNK N   1      21.437  12.947   8.255  0.00  0.00     0.001 A 
HETATM   23  C   UNK N   1      21.531  13.553   7.000  0.00  0.00     0.012 A 
ENDBRANCH   1  18
BRANCH   2  24
HETATM   24  C   UNK N   1      20.342  16.375   3.274  0.00  0.00    -0.014 A 
HETATM   25  C   UNK N   1      20.368  15.513   2.162  0.00  0.00     0.013 A 
HETATM   26  C   UNK N   1      20.312  16.018   0.860  0.00  0.00     0.001 A 
HETATM   27  C   UNK N   1      20.205  17.394   0.649  0.00  0.00     0.000 A 
HETATM   28  C   UNK N   1      20.142  18.262   1.740  0.00  0.00     0.001 A 
HETATM   29  C   UNK N   1      20.195  17.754   3.040  0.00  0.00     0.013 A 
ENDBRANCH   2  24
TORSDOF 9
ENDMDL
MODEL 9
REMARK VINA RESULT:      -5.7     15.068     17.122
REMARK  9 active torsions:
REMARK  status: ('A' for Active; 'I' for Inactive)
REMARK    1  A    between atoms: C_5  and  C_9 
REMARK    2  A    between atoms: C_8  and  C_9 
REMARK    3  A    between atoms: C_11  and  O_15 
REMARK    4  A    between atoms: C_14  and  C_24 
REMARK    5  A    between atoms: O_15  and  C_16 
REMARK    6  A    between atoms: C_16  and  C_17 
REMARK    7  A    between atoms: C_17  and  N_18 
REMARK    8  A    between atoms: N_18  and  C_19 
REMARK    9  A    between atoms: N_18  and  C_21 
ROOT
HETATM    1  C   UNK N   1      20.074  15.989   7.784  0.00  0.00     0.007 C 
HETATM    2  C   UNK N   1      20.592  14.789   8.263  0.00  0.00     0.056 C 
HETATM    3 Cl   UNK N   1      20.259  14.232   9.921  0.00  0.00    -0.082 Cl
ENDROOT
BRANCH   1   4
HETATM    4  C   UNK N   1      20.167  16.365   6.320  0.00  0.00    -0.023 A 
HETATM    5  C   UNK N   1      21.223  17.165   5.847  0.00  0.00     0.015 A 
HETATM    6  C   UNK N   1      21.305  17.525   4.499  0.00  0.00     0.037 A 
HETATM    7  C   UNK N   1      20.317  17.119   3.597  0.00  0.00     0.068 A 
HETATM    8  C   UNK N   1      19.232  16.365   4.069  0.00  0.00     0.037 A 
HETATM    9  C   UNK N   1      19.158  15.998   5.413  0.00  0.00     0.015 A 
BRANCH   7  10
HETATM   10  O   UNK N   1      20.445  17.449   2.286  0.00  0.00    -0.349 OA
BRANCH  10  11
HETATM   11  C   UNK N   1      20.245  16.592   1.215  0.00  0.00     0.206 C 
BRANCH  11  12
HETATM   12  C   UNK N   1      21.266  15.455   1.149  0.00  0.00     0.299 C 
BRANCH  12  13
HETATM   13  N   UNK N   1      20.624  14.162   0.919  0.00  0.00     0.089 N 
BRANCH  13  14
HETATM   14  C   UNK N   1      19.161  14.231   1.016  0.00  0.00     0.268 C 
HETATM   15  C   UNK N   1      18.450  13.044   0.373  0.00  0.00     0.037 C 
ENDBRANCH  13  14
BRANCH  13  16
HETATM   16  C   UNK N   1      21.199  13.102   1.759  0.00  0.00     0.268 C 
HETATM   17  C   UNK N   1      21.257  13.455   3.243  0.00  0.00     0.037 C 
ENDBRANCH  13  16
ENDBRANCH  12  13
ENDBRANCH  11  12
ENDBRANCH  10  11
ENDBRANCH   7  10
ENDBRANCH   1   4
BRANCH   1  18
HETATM   18  C   UNK N   1      19.326  16.959   8.691  0.00  0.00    -0.023 A 
HETATM   19  C   UNK N   1      19.960  18.130   9.151  0.00  0.00     0.012 A 
HETATM   20  C   UNK N   1      19.296  19.034   9.986  0.00  0.00     0.001 A 
HETATM   21  C   UNK N   1      17.985  18.781  10.388  0.00  0.00     0.000 A 
HETATM   22  C   UNK N   1      17.340  17.623   9.955  0.00  0.00     0.001 A 
HETATM   23  C   UNK N   1      18.005  16.725   9.117  0.00  0.00     0.012 A 
ENDBRANCH   1  18
BRANCH   2  24
HETATM   24  C   UNK N   1      21.480  13.853   7.487  0.00  0.00    -0.014 A 
HETATM   25  C   UNK N   1      22.846  14.118   7.274  0.00  0.00     0.013 A 
HETATM   26  C   UNK N   1      23.663  13.193   6.617  0.00  0.00     0.001 A 
HETATM   27  C   UNK N   1      23.132  11.977   6.182  0.00  0.00     0.000 A 
HETATM   28  C   UNK N   1      21.788  11.683   6.416  0.00  0.00     0.001 A 
HETATM   29  C   UNK N   1      20.975  12.608   7.076  0.00  0.00     0.013 A 
ENDBRANCH   2  24
TORSDOF 9
ENDMDL
