MODEL 1
REMARK VINA RESULT:      -8.1      0.000      0.000
REMARK  10 active torsions:
REMARK  status: ('A' for Active; 'I' for Inactive)
REMARK    1  A    between atoms: C_12  and  C_1 
REMARK    2  A    between atoms: S_16  and  C_2 
REMARK    3  A    between atoms: C_8  and  C_6 
REMARK    4  A    between atoms: C_8  and  O_9 
REMARK    5  A    between atoms: O_14  and  C_12 
REMARK    6  A    between atoms: C_17  and  S_16 
REMARK    7  A    between atoms: C_20  and  C_22 
REMARK       I    between atoms: N_24  and  C_22 
REMARK    8  A    between atoms: C_25  and  N_24 
REMARK    9  A    between atoms: C_31  and  C_29 
REMARK   10  A    between atoms: O_32  and  C_31 
ROOT
HETATM    1  C   UNK N   1      34.304  14.304   8.050  0.00  0.00     0.072 C 
HETATM    2  C   UNK N   1      35.598  14.475   7.297  0.00  0.00     0.130 C 
HETATM    3  N   UNK N   1      35.292  15.275   6.109  0.00  0.00    -0.408 N 
HETATM    4  C   UNK N   1      33.849  15.536   6.138  0.00  0.00     0.171 C 
HETATM    5  C   UNK N   1      33.259  14.431   6.994  0.00  0.00     0.051 C 
HETATM    6  H   UNK N   1      35.954  15.589   5.399  0.00  0.00     0.154 HD
ENDROOT
BRANCH   1   7
HETATM    7  S   UNK N   1      34.254  12.851   9.148  0.00  0.00    -0.125 SA
BRANCH   7   8
HETATM    8  C   UNK N   1      35.177  13.100  10.706  0.00  0.00     0.018 C 
HETATM    9  C   UNK N   1      35.465  14.235  11.368  0.00  0.00     0.125 C 
HETATM   10  N   UNK N   1      35.682  13.861  12.685  0.00  0.00    -0.304 N 
HETATM   11  C   UNK N   1      35.156  12.586  13.017  0.00  0.00     0.117 A 
HETATM   12  C   UNK N   1      36.172  14.131  13.853  0.00  0.00     0.233 A 
HETATM   13  C   UNK N   1      35.494  11.930  11.670  0.00  0.00     0.048 C 
HETATM   14  C   UNK N   1      35.837  12.821  14.482  0.00  0.00     0.130 A 
HETATM   15  C   UNK N   1      34.745  10.635  11.414  0.00  0.00     0.018 C 
HETATM   16  O   UNK N   1      36.764  15.134  14.212  0.00  0.00    -0.272 OA
BRANCH   9  17
HETATM   17  C   UNK N   1      35.426  15.655  10.964  0.00  0.00     0.195 C 
HETATM   18  O   UNK N   1      36.441  16.296  10.810  0.00  0.00    -0.645 OA
BRANCH  17  19
HETATM   19  O   UNK N   1      34.235  16.267  10.815  0.00  0.00    -0.772 OA
HETATM   20  H   UNK N   1      34.083  16.864  10.108  0.00  0.00     0.167 HD
ENDBRANCH  17  19
ENDBRANCH   9  17
BRANCH  14  21
HETATM   21  C   UNK N   1      34.767  12.949  15.572  0.00  0.00     0.129 C 
HETATM   22  C   UNK N   1      35.357  13.294  16.924  0.00  0.00     0.040 C 
BRANCH  21  23
HETATM   23  O   UNK N   1      34.040  11.761  15.666  0.00  0.00    -0.395 OA
HETATM   24  H   UNK N   1      33.557  11.515  16.470  0.00  0.00     0.210 HD
ENDBRANCH  21  23
ENDBRANCH  14  21
ENDBRANCH   7   8
ENDBRANCH   1   7
BRANCH   4  25
HETATM   25  C   UNK N   1      33.650  17.010   6.525  0.00  0.00     0.244 C 
HETATM   26  O   UNK N   1      34.672  17.662   6.671  0.00  0.00    -0.271 OA
HETATM   27  N   UNK N   1      32.467  17.648   6.799  0.00  0.00    -0.325 N 
HETATM   28  H   UNK N   1      32.594  18.567   7.127  0.00  0.00     0.169 HD
BRANCH  27  29
HETATM   29  C   UNK N   1      31.096  17.273   6.715  0.00  0.00     0.035 A 
HETATM   30  C   UNK N   1      30.544  16.626   5.602  0.00  0.00     0.029 A 
HETATM   31  C   UNK N   1      29.190  16.274   5.587  0.00  0.00     0.003 A 
HETATM   32  C   UNK N   1      28.371  16.597   6.672  0.00  0.00     0.018 A 
HETATM   33  C   UNK N   1      28.900  17.283   7.772  0.00  0.00     0.039 A 
HETATM   34  C   UNK N   1      30.258  17.620   7.781  0.00  0.00     0.047 A 
BRANCH  33  35
HETATM   35  C   UNK N   1      28.042  17.653   8.916  0.00  0.00     0.176 C 
HETATM   36  O   UNK N   1      27.819  16.847   9.807  0.00  0.00    -0.646 OA
BRANCH  35  37
HETATM   37  O   UNK N   1      27.493  18.883   8.983  0.00  0.00    -0.773 OA
HETATM   38  H   UNK N   1      26.760  19.178   9.485  0.00  0.00     0.167 HD
ENDBRANCH  35  37
ENDBRANCH  33  35
ENDBRANCH  27  29
ENDBRANCH   4  25
TORSDOF 10
ENDMDL
MODEL 2
REMARK VINA RESULT:      -8.0      2.702      4.117
REMARK  10 active torsions:
REMARK  status: ('A' for Active; 'I' for Inactive)
REMARK    1  A    between atoms: C_12  and  C_1 
REMARK    2  A    between atoms: S_16  and  C_2 
REMARK    3  A    between atoms: C_8  and  C_6 
REMARK    4  A    between atoms: C_8  and  O_9 
REMARK    5  A    between atoms: O_14  and  C_12 
REMARK    6  A    between atoms: C_17  and  S_16 
REMARK    7  A    between atoms: C_20  and  C_22 
REMARK       I    between atoms: N_24  and  C_22 
REMARK    8  A    between atoms: C_25  and  N_24 
REMARK    9  A    between atoms: C_31  and  C_29 
REMARK   10  A    between atoms: O_32  and  C_31 
ROOT
HETATM    1  C   UNK N   1      34.740  13.660   4.881  0.00  0.00     0.072 C 
HETATM    2  C   UNK N   1      34.934  13.096   3.497  0.00  0.00     0.130 C 
HETATM    3  N   UNK N   1      33.841  13.618   2.672  0.00  0.00    -0.408 N 
HETATM    4  C   UNK N   1      33.002  14.436   3.554  0.00  0.00     0.171 C 
HETATM    5  C   UNK N   1      33.274  13.922   4.956  0.00  0.00     0.051 C 
HETATM    6  H   UNK N   1      33.693  13.446   1.678  0.00  0.00     0.154 HD
ENDROOT
BRANCH   1   7
HETATM    7  S   UNK N   1      35.515  12.685   6.210  0.00  0.00    -0.125 SA
BRANCH   7   8
HETATM    8  C   UNK N   1      35.515  13.546   7.823  0.00  0.00     0.018 C 
HETATM    9  C   UNK N   1      34.525  13.699   8.721  0.00  0.00     0.125 C 
HETATM   10  N   UNK N   1      35.150  13.930   9.936  0.00  0.00    -0.304 N 
HETATM   11  C   UNK N   1      36.512  13.537   9.969  0.00  0.00     0.117 A 
HETATM   12  C   UNK N   1      35.089  14.366  11.155  0.00  0.00     0.233 A 
HETATM   13  C   UNK N   1      36.826  13.969   8.529  0.00  0.00     0.048 C 
HETATM   14  C   UNK N   1      36.530  14.162  11.478  0.00  0.00     0.130 A 
HETATM   15  C   UNK N   1      38.105  13.368   7.975  0.00  0.00     0.018 C 
HETATM   16  O   UNK N   1      34.132  14.840  11.742  0.00  0.00    -0.272 OA
BRANCH   9  17
HETATM   17  C   UNK N   1      33.063  13.515   8.624  0.00  0.00     0.195 C 
HETATM   18  O   UNK N   1      32.577  12.692   7.882  0.00  0.00    -0.645 OA
BRANCH  17  19
HETATM   19  O   UNK N   1      32.247  14.318   9.336  0.00  0.00    -0.772 OA
HETATM   20  H   UNK N   1      31.316  14.233   9.282  0.00  0.00     0.167 HD
ENDBRANCH  17  19
ENDBRANCH   9  17
BRANCH  14  21
HETATM   21  C   UNK N   1      36.747  13.064  12.525  0.00  0.00     0.129 C 
HETATM   22  C   UNK N   1      36.536  13.563  13.940  0.00  0.00     0.040 C 
BRANCH  21  23
HETATM   23  O   UNK N   1      38.033  12.536  12.400  0.00  0.00    -0.395 OA
HETATM   24  H   UNK N   1      38.473  12.073  13.130  0.00  0.00     0.210 HD
ENDBRANCH  21  23
ENDBRANCH  14  21
ENDBRANCH   7   8
ENDBRANCH   1   7
BRANCH   4  25
HETATM   25  C   UNK N   1      33.257  15.911   3.204  0.00  0.00     0.244 C 
HETATM   26  O   UNK N   1      33.640  16.126   2.064  0.00  0.00    -0.271 OA
HETATM   27  N   UNK N   1      33.180  16.992   4.044  0.00  0.00    -0.325 N 
HETATM   28  H   UNK N   1      33.488  17.827   3.622  0.00  0.00     0.169 HD
BRANCH  27  29
HETATM   29  C   UNK N   1      32.753  17.174   5.390  0.00  0.00     0.035 A 
HETATM   30  C   UNK N   1      31.414  17.081   5.789  0.00  0.00     0.029 A 
HETATM   31  C   UNK N   1      31.061  17.260   7.132  0.00  0.00     0.003 A 
HETATM   32  C   UNK N   1      32.043  17.565   8.078  0.00  0.00     0.018 A 
HETATM   33  C   UNK N   1      33.379  17.706   7.685  0.00  0.00     0.039 A 
HETATM   34  C   UNK N   1      33.722  17.514   6.341  0.00  0.00     0.047 A 
BRANCH  33  35
HETATM   35  C   UNK N   1      34.424  18.052   8.669  0.00  0.00     0.176 C 
HETATM   36  O   UNK N   1      35.191  18.979   8.455  0.00  0.00    -0.646 OA
BRANCH  35  37
HETATM   37  O   UNK N   1      34.543  17.344   9.810  0.00  0.00    -0.773 OA
HETATM   38  H   UNK N   1      35.316  17.019  10.228  0.00  0.00     0.167 HD
ENDBRANCH  35  37
ENDBRANCH  33  35
ENDBRANCH  27  29
ENDBRANCH   4  25
TORSDOF 10
ENDMDL
MODEL 3
REMARK VINA RESULT:      -8.0     15.141     17.954
REMARK  10 active torsions:
REMARK  status: ('A' for Active; 'I' for Inactive)
REMARK    1  A    between atoms: C_12  and  C_1 
REMARK    2  A    between atoms: S_16  and  C_2 
REMARK    3  A    between atoms: C_8  and  C_6 
REMARK    4  A    between atoms: C_8  and  O_9 
REMARK    5  A    between atoms: O_14  and  C_12 
REMARK    6  A    between atoms: C_17  and  S_16 
REMARK    7  A    between atoms: C_20  and  C_22 
REMARK       I    between atoms: N_24  and  C_22 
REMARK    8  A    between atoms: C_25  and  N_24 
REMARK    9  A    between atoms: C_31  and  C_29 
REMARK   10  A    between atoms: O_32  and  C_31 
ROOT
HETATM    1  C   UNK N   1      29.898  27.061  -4.048  0.00  0.00     0.072 C 
HETATM    2  C   UNK N   1      30.994  27.540  -3.131  0.00  0.00     0.130 C 
HETATM    3  N   UNK N   1      30.641  28.905  -2.730  0.00  0.00    -0.408 N 
HETATM    4  C   UNK N   1      29.391  29.237  -3.422  0.00  0.00     0.171 C 
HETATM    5  C   UNK N   1      29.345  28.318  -4.629  0.00  0.00     0.051 C 
HETATM    6  H   UNK N   1      31.163  29.506  -2.093  0.00  0.00     0.154 HD
ENDROOT
BRANCH   1   7
HETATM    7  S   UNK N   1      30.393  25.725  -5.184  0.00  0.00    -0.125 SA
BRANCH   7   8
HETATM    8  C   UNK N   1      31.504  24.500  -4.407  0.00  0.00     0.018 C 
HETATM    9  C   UNK N   1      31.250  23.585  -3.453  0.00  0.00     0.125 C 
HETATM   10  N   UNK N   1      32.215  22.602  -3.606  0.00  0.00    -0.304 N 
HETATM   11  C   UNK N   1      32.855  22.612  -4.871  0.00  0.00     0.117 A 
HETATM   12  C   UNK N   1      32.869  21.598  -3.114  0.00  0.00     0.233 A 
HETATM   13  C   UNK N   1      32.884  24.142  -5.011  0.00  0.00     0.048 C 
HETATM   14  C   UNK N   1      33.784  21.408  -4.276  0.00  0.00     0.130 A 
HETATM   15  C   UNK N   1      33.136  24.623  -6.428  0.00  0.00     0.018 C 
HETATM   16  O   UNK N   1      32.753  21.084  -2.015  0.00  0.00    -0.272 OA
BRANCH   9  17
HETATM   17  C   UNK N   1      30.133  23.432  -2.500  0.00  0.00     0.195 C 
HETATM   18  O   UNK N   1      28.998  23.722  -2.805  0.00  0.00    -0.645 OA
BRANCH  17  19
HETATM   19  O   UNK N   1      30.387  23.012  -1.245  0.00  0.00    -0.772 OA
HETATM   20  H   UNK N   1      31.053  23.416  -0.725  0.00  0.00     0.167 HD
ENDBRANCH  17  19
ENDBRANCH   9  17
BRANCH  14  21
HETATM   21  C   UNK N   1      33.523  20.094  -5.021  0.00  0.00     0.129 C 
HETATM   22  C   UNK N   1      34.198  18.910  -4.358  0.00  0.00     0.040 C 
BRANCH  21  23
HETATM   23  O   UNK N   1      33.957  20.203  -6.343  0.00  0.00    -0.395 OA
HETATM   24  H   UNK N   1      33.506  20.769  -6.989  0.00  0.00     0.210 HD
ENDBRANCH  21  23
ENDBRANCH  14  21
ENDBRANCH   7   8
ENDBRANCH   1   7
BRANCH   4  25
HETATM   25  C   UNK N   1      28.261  29.210  -2.381  0.00  0.00     0.244 C 
HETATM   26  O   UNK N   1      28.491  29.792  -1.333  0.00  0.00    -0.271 OA
HETATM   27  N   UNK N   1      27.065  28.544  -2.467  0.00  0.00    -0.325 N 
HETATM   28  H   UNK N   1      26.541  28.587  -1.634  0.00  0.00     0.169 HD
BRANCH  27  29
HETATM   29  C   UNK N   1      26.413  27.804  -3.494  0.00  0.00     0.035 A 
HETATM   30  C   UNK N   1      25.638  28.402  -4.497  0.00  0.00     0.029 A 
HETATM   31  C   UNK N   1      25.032  27.618  -5.485  0.00  0.00     0.003 A 
HETATM   32  C   UNK N   1      25.171  26.228  -5.458  0.00  0.00     0.018 A 
HETATM   33  C   UNK N   1      25.905  25.614  -4.436  0.00  0.00     0.039 A 
HETATM   34  C   UNK N   1      26.515  26.409  -3.459  0.00  0.00     0.047 A 
BRANCH  33  35
HETATM   35  C   UNK N   1      26.040  24.144  -4.380  0.00  0.00     0.176 C 
HETATM   36  O   UNK N   1      25.920  23.474  -5.394  0.00  0.00    -0.646 OA
BRANCH  35  37
HETATM   37  O   UNK N   1      26.290  23.531  -3.206  0.00  0.00    -0.773 OA
HETATM   38  H   UNK N   1      26.165  22.634  -2.968  0.00  0.00     0.167 HD
ENDBRANCH  35  37
ENDBRANCH  33  35
ENDBRANCH  27  29
ENDBRANCH   4  25
TORSDOF 10
ENDMDL
MODEL 4
REMARK VINA RESULT:      -7.9     10.134     12.710
REMARK  10 active torsions:
REMARK  status: ('A' for Active; 'I' for Inactive)
REMARK    1  A    between atoms: C_12  and  C_1 
REMARK    2  A    between atoms: S_16  and  C_2 
REMARK    3  A    between atoms: C_8  and  C_6 
REMARK    4  A    between atoms: C_8  and  O_9 
REMARK    5  A    between atoms: O_14  and  C_12 
REMARK    6  A    between atoms: C_17  and  S_16 
REMARK    7  A    between atoms: C_20  and  C_22 
REMARK       I    between atoms: N_24  and  C_22 
REMARK    8  A    between atoms: C_25  and  N_24 
REMARK    9  A    between atoms: C_31  and  C_29 
REMARK   10  A    between atoms: O_32  and  C_31 
ROOT
HETATM    1  C   UNK N   1      22.088  17.254   3.603  0.00  0.00     0.072 C 
HETATM    2  C   UNK N   1      20.784  17.549   2.906  0.00  0.00     0.130 C 
HETATM    3  N   UNK N   1      20.583  18.998   2.984  0.00  0.00    -0.408 N 
HETATM    4  C   UNK N   1      21.717  19.540   3.741  0.00  0.00     0.171 C 
HETATM    5  C   UNK N   1      22.236  18.379   4.569  0.00  0.00     0.051 C 
HETATM    6  H   UNK N   1      19.806  19.527   2.589  0.00  0.00     0.154 HD
ENDROOT
BRANCH   1   7
HETATM    7  S   UNK N   1      22.242  15.549   4.227  0.00  0.00    -0.125 SA
BRANCH   7   8
HETATM    8  C   UNK N   1      21.794  15.390   5.992  0.00  0.00     0.018 C 
HETATM    9  C   UNK N   1      20.610  15.095   6.560  0.00  0.00     0.125 C 
HETATM   10  N   UNK N   1      20.910  14.584   7.813  0.00  0.00    -0.304 N 
HETATM   11  C   UNK N   1      22.251  14.147   7.953  0.00  0.00     0.117 A 
HETATM   12  C   UNK N   1      20.529  14.289   9.016  0.00  0.00     0.233 A 
HETATM   13  C   UNK N   1      22.864  15.271   7.105  0.00  0.00     0.048 C 
HETATM   14  C   UNK N   1      21.864  13.845   9.510  0.00  0.00     0.130 A 
HETATM   15  C   UNK N   1      24.280  14.985   6.638  0.00  0.00     0.018 C 
HETATM   16  O   UNK N   1      19.426  14.429   9.516  0.00  0.00    -0.272 OA
BRANCH   9  17
HETATM   17  C   UNK N   1      19.231  15.093   6.032  0.00  0.00     0.195 C 
HETATM   18  O   UNK N   1      18.881  14.303   5.185  0.00  0.00    -0.645 OA
BRANCH  17  19
HETATM   19  O   UNK N   1      18.357  16.023   6.462  0.00  0.00    -0.772 OA
HETATM   20  H   UNK N   1      17.963  15.963   7.310  0.00  0.00     0.167 HD
ENDBRANCH  17  19
ENDBRANCH   9  17
BRANCH  14  21
HETATM   21  C   UNK N   1      21.910  12.343   9.807  0.00  0.00     0.129 C 
HETATM   22  C   UNK N   1      22.007  12.049  11.291  0.00  0.00     0.040 C 
BRANCH  21  23
HETATM   23  O   UNK N   1      22.990  11.760   9.142  0.00  0.00    -0.395 OA
HETATM   24  H   UNK N   1      22.990  10.826   8.879  0.00  0.00     0.210 HD
ENDBRANCH  21  23
ENDBRANCH  14  21
ENDBRANCH   7   8
ENDBRANCH   1   7
BRANCH   4  25
HETATM   25  C   UNK N   1      22.640  20.260   2.746  0.00  0.00     0.244 C 
HETATM   26  O   UNK N   1      22.080  20.858   1.840  0.00  0.00    -0.271 OA
HETATM   27  N   UNK N   1      24.011  20.240   2.716  0.00  0.00    -0.325 N 
HETATM   28  H   UNK N   1      24.384  20.691   1.924  0.00  0.00     0.169 HD
BRANCH  27  29
HETATM   29  C   UNK N   1      25.014  19.711   3.577  0.00  0.00     0.035 A 
HETATM   30  C   UNK N   1      25.562  18.431   3.421  0.00  0.00     0.029 A 
HETATM   31  C   UNK N   1      26.554  17.975   4.296  0.00  0.00     0.003 A 
HETATM   32  C   UNK N   1      26.981  18.783   5.353  0.00  0.00     0.018 A 
HETATM   33  C   UNK N   1      26.410  20.046   5.547  0.00  0.00     0.039 A 
HETATM   34  C   UNK N   1      25.425  20.496   4.659  0.00  0.00     0.047 A 
BRANCH  33  35
HETATM   35  C   UNK N   1      26.832  20.902   6.674  0.00  0.00     0.176 C 
HETATM   36  O   UNK N   1      27.783  21.659   6.552  0.00  0.00    -0.646 OA
BRANCH  35  37
HETATM   37  O   UNK N   1      26.175  20.849   7.850  0.00  0.00    -0.773 OA
HETATM   38  H   UNK N   1      26.195  21.450   8.568  0.00  0.00     0.167 HD
ENDBRANCH  35  37
ENDBRANCH  33  35
ENDBRANCH  27  29
ENDBRANCH   4  25
TORSDOF 10
ENDMDL
MODEL 5
REMARK VINA RESULT:      -7.7      3.660      5.212
REMARK  10 active torsions:
REMARK  status: ('A' for Active; 'I' for Inactive)
REMARK    1  A    between atoms: C_12  and  C_1 
REMARK    2  A    between atoms: S_16  and  C_2 
REMARK    3  A    between atoms: C_8  and  C_6 
REMARK    4  A    between atoms: C_8  and  O_9 
REMARK    5  A    between atoms: O_14  and  C_12 
REMARK    6  A    between atoms: C_17  and  S_16 
REMARK    7  A    between atoms: C_20  and  C_22 
REMARK       I    between atoms: N_24  and  C_22 
REMARK    8  A    between atoms: C_25  and  N_24 
REMARK    9  A    between atoms: C_31  and  C_29 
REMARK   10  A    between atoms: O_32  and  C_31 
ROOT
HETATM    1  C   UNK N   1      30.841  16.078   5.994  0.00  0.00     0.072 C 
HETATM    2  C   UNK N   1      31.187  17.161   5.004  0.00  0.00     0.130 C 
HETATM    3  N   UNK N   1      29.918  17.736   4.550  0.00  0.00    -0.408 N 
HETATM    4  C   UNK N   1      28.851  16.987   5.222  0.00  0.00     0.171 C 
HETATM    5  C   UNK N   1      29.471  15.652   5.591  0.00  0.00     0.051 C 
HETATM    6  H   UNK N   1      29.800  18.507   3.893  0.00  0.00     0.154 HD
ENDROOT
BRANCH   1   7
HETATM    7  S   UNK N   1      32.123  14.799   6.193  0.00  0.00    -0.125 SA
BRANCH   7   8
HETATM    8  C   UNK N   1      33.380  15.234   7.447  0.00  0.00     0.018 C 
HETATM    9  C   UNK N   1      33.402  16.246   8.335  0.00  0.00     0.125 C 
HETATM   10  N   UNK N   1      34.243  15.834   9.356  0.00  0.00    -0.304 N 
HETATM   11  C   UNK N   1      34.466  14.434   9.392  0.00  0.00     0.117 A 
HETATM   12  C   UNK N   1      34.984  16.131  10.376  0.00  0.00     0.233 A 
HETATM   13  C   UNK N   1      34.498  14.249   7.867  0.00  0.00     0.048 C 
HETATM   14  C   UNK N   1      35.494  14.750  10.620  0.00  0.00     0.130 A 
HETATM   15  C   UNK N   1      34.319  12.810   7.421  0.00  0.00     0.018 C 
HETATM   16  O   UNK N   1      35.194  17.227  10.866  0.00  0.00    -0.272 OA
BRANCH   9  17
HETATM   17  C   UNK N   1      32.625  17.498   8.429  0.00  0.00     0.195 C 
HETATM   18  O   UNK N   1      33.069  18.549   8.025  0.00  0.00    -0.645 OA
BRANCH  17  19
HETATM   19  O   UNK N   1      31.416  17.483   9.025  0.00  0.00    -0.772 OA
HETATM   20  H   UNK N   1      31.337  17.436   9.957  0.00  0.00     0.167 HD
ENDBRANCH  17  19
ENDBRANCH   9  17
BRANCH  14  21
HETATM   21  C   UNK N   1      34.977  14.158  11.936  0.00  0.00     0.129 C 
HETATM   22  C   UNK N   1      35.999  14.247  13.051  0.00  0.00     0.040 C 
BRANCH  21  23
HETATM   23  O   UNK N   1      34.606  12.826  11.744  0.00  0.00    -0.395 OA
HETATM   24  H   UNK N   1      35.059  12.252  11.106  0.00  0.00     0.210 HD
ENDBRANCH  21  23
ENDBRANCH  14  21
ENDBRANCH   7   8
ENDBRANCH   1   7
BRANCH   4  25
HETATM   25  C   UNK N   1      28.259  17.897   6.310  0.00  0.00     0.244 C 
HETATM   26  O   UNK N   1      28.689  17.721   7.440  0.00  0.00    -0.271 OA
HETATM   27  N   UNK N   1      27.255  18.820   6.169  0.00  0.00    -0.325 N 
HETATM   28  H   UNK N   1      26.970  19.211   7.027  0.00  0.00     0.169 HD
BRANCH  27  29
HETATM   29  C   UNK N   1      26.533  19.338   5.057  0.00  0.00     0.035 A 
HETATM   30  C   UNK N   1      27.100  20.199   4.108  0.00  0.00     0.029 A 
HETATM   31  C   UNK N   1      26.338  20.664   3.030  0.00  0.00     0.003 A 
HETATM   32  C   UNK N   1      24.995  20.297   2.911  0.00  0.00     0.018 A 
HETATM   33  C   UNK N   1      24.404  19.473   3.877  0.00  0.00     0.039 A 
HETATM   34  C   UNK N   1      25.178  19.005   4.945  0.00  0.00     0.047 A 
BRANCH  33  35
HETATM   35  C   UNK N   1      22.979  19.096   3.779  0.00  0.00     0.176 C 
HETATM   36  O   UNK N   1      22.639  17.929   3.903  0.00  0.00    -0.646 OA
BRANCH  35  37
HETATM   37  O   UNK N   1      22.043  20.038   3.547  0.00  0.00    -0.773 OA
HETATM   38  H   UNK N   1      21.429  20.422   4.141  0.00  0.00     0.167 HD
ENDBRANCH  35  37
ENDBRANCH  33  35
ENDBRANCH  27  29
ENDBRANCH   4  25
TORSDOF 10
ENDMDL
MODEL 6
REMARK VINA RESULT:      -7.6      2.384      9.558
REMARK  10 active torsions:
REMARK  status: ('A' for Active; 'I' for Inactive)
REMARK    1  A    between atoms: C_12  and  C_1 
REMARK    2  A    between atoms: S_16  and  C_2 
REMARK    3  A    between atoms: C_8  and  C_6 
REMARK    4  A    between atoms: C_8  and  O_9 
REMARK    5  A    between atoms: O_14  and  C_12 
REMARK    6  A    between atoms: C_17  and  S_16 
REMARK    7  A    between atoms: C_20  and  C_22 
REMARK       I    between atoms: N_24  and  C_22 
REMARK    8  A    between atoms: C_25  and  N_24 
REMARK    9  A    between atoms: C_31  and  C_29 
REMARK   10  A    between atoms: O_32  and  C_31 
ROOT
HETATM    1  C   UNK N   1      35.948  13.119  10.898  0.00  0.00     0.072 C 
HETATM    2  C   UNK N   1      37.298  13.419  11.495  0.00  0.00     0.130 C 
HETATM    3  N   UNK N   1      37.130  13.395  12.951  0.00  0.00    -0.408 N 
HETATM    4  C   UNK N   1      35.711  13.126  13.206  0.00  0.00     0.171 C 
HETATM    5  C   UNK N   1      34.987  13.567  11.947  0.00  0.00     0.051 C 
HETATM    6  H   UNK N   1      37.859  13.537  13.650  0.00  0.00     0.154 HD
ENDROOT
BRANCH   1   7
HETATM    7  S   UNK N   1      35.720  13.730   9.197  0.00  0.00    -0.125 SA
BRANCH   7   8
HETATM    8  C   UNK N   1      34.172  14.677   8.978  0.00  0.00     0.018 C 
HETATM    9  C   UNK N   1      33.938  15.995   9.118  0.00  0.00     0.125 C 
HETATM   10  N   UNK N   1      32.816  16.263   8.349  0.00  0.00    -0.304 N 
HETATM   11  C   UNK N   1      32.528  15.268   7.381  0.00  0.00     0.117 A 
HETATM   12  C   UNK N   1      31.822  17.044   8.064  0.00  0.00     0.233 A 
HETATM   13  C   UNK N   1      32.936  14.079   8.263  0.00  0.00     0.048 C 
HETATM   14  C   UNK N   1      31.201  16.156   7.040  0.00  0.00     0.130 A 
HETATM   15  C   UNK N   1      33.171  12.795   7.490  0.00  0.00     0.018 C 
HETATM   16  O   UNK N   1      31.530  18.112   8.571  0.00  0.00    -0.272 OA
BRANCH   9  17
HETATM   17  C   UNK N   1      34.710  17.075   9.764  0.00  0.00     0.195 C 
HETATM   18  O   UNK N   1      35.181  17.987   9.121  0.00  0.00    -0.645 OA
BRANCH  17  19
HETATM   19  O   UNK N   1      34.944  17.019  11.090  0.00  0.00    -0.772 OA
HETATM   20  H   UNK N   1      35.169  16.212  11.508  0.00  0.00     0.167 HD
ENDBRANCH  17  19
ENDBRANCH   9  17
BRANCH  14  21
HETATM   21  C   UNK N   1      31.280  16.743   5.627  0.00  0.00     0.129 C 
HETATM   22  C   UNK N   1      30.027  17.504   5.245  0.00  0.00     0.040 C 
BRANCH  21  23
HETATM   23  O   UNK N   1      31.511  15.724   4.701  0.00  0.00    -0.395 OA
HETATM   24  H   UNK N   1      32.354  15.245   4.662  0.00  0.00     0.210 HD
ENDBRANCH  21  23
ENDBRANCH  14  21
ENDBRANCH   7   8
ENDBRANCH   1   7
BRANCH   4  25
HETATM   25  C   UNK N   1      35.594  11.677  13.704  0.00  0.00     0.244 C 
HETATM   26  O   UNK N   1      35.620  10.816  12.838  0.00  0.00    -0.271 OA
HETATM   27  N   UNK N   1      35.385  11.252  14.991  0.00  0.00    -0.325 N 
HETATM   28  H   UNK N   1      35.240  10.281  15.055  0.00  0.00     0.169 HD
BRANCH  27  29
HETATM   29  C   UNK N   1      35.332  11.906  16.255  0.00  0.00     0.035 A 
HETATM   30  C   UNK N   1      35.320  13.300  16.398  0.00  0.00     0.029 A 
HETATM   31  C   UNK N   1      35.255  13.880  17.670  0.00  0.00     0.003 A 
HETATM   32  C   UNK N   1      35.235  13.070  18.808  0.00  0.00     0.018 A 
HETATM   33  C   UNK N   1      35.292  11.677  18.681  0.00  0.00     0.039 A 
HETATM   34  C   UNK N   1      35.346  11.107  17.403  0.00  0.00     0.047 A 
BRANCH  33  35
HETATM   35  C   UNK N   1      35.297  10.809  19.876  0.00  0.00     0.176 C 
HETATM   36  O   UNK N   1      34.534   9.858  19.951  0.00  0.00    -0.646 OA
BRANCH  35  37
HETATM   37  O   UNK N   1      36.141  11.063  20.895  0.00  0.00    -0.773 OA
HETATM   38  H   UNK N   1      36.593  11.856  21.107  0.00  0.00     0.167 HD
ENDBRANCH  35  37
ENDBRANCH  33  35
ENDBRANCH  27  29
ENDBRANCH   4  25
TORSDOF 10
ENDMDL
MODEL 7
REMARK VINA RESULT:      -7.5     10.827     14.501
REMARK  10 active torsions:
REMARK  status: ('A' for Active; 'I' for Inactive)
REMARK    1  A    between atoms: C_12  and  C_1 
REMARK    2  A    between atoms: S_16  and  C_2 
REMARK    3  A    between atoms: C_8  and  C_6 
REMARK    4  A    between atoms: C_8  and  O_9 
REMARK    5  A    between atoms: O_14  and  C_12 
REMARK    6  A    between atoms: C_17  and  S_16 
REMARK    7  A    between atoms: C_20  and  C_22 
REMARK       I    between atoms: N_24  and  C_22 
REMARK    8  A    between atoms: C_25  and  N_24 
REMARK    9  A    between atoms: C_31  and  C_29 
REMARK   10  A    between atoms: O_32  and  C_31 
ROOT
HETATM    1  C   UNK N   1      23.465  14.252   5.099  0.00  0.00     0.072 C 
HETATM    2  C   UNK N   1      24.314  13.083   5.526  0.00  0.00     0.130 C 
HETATM    3  N   UNK N   1      23.899  11.940   4.707  0.00  0.00    -0.408 N 
HETATM    4  C   UNK N   1      22.807  12.412   3.848  0.00  0.00     0.171 C 
HETATM    5  C   UNK N   1      22.226  13.617   4.565  0.00  0.00     0.051 C 
HETATM    6  H   UNK N   1      24.293  11.000   4.730  0.00  0.00     0.154 HD
ENDROOT
BRANCH   1   7
HETATM    7  S   UNK N   1      23.295  15.561   6.355  0.00  0.00    -0.125 SA
BRANCH   7   8
HETATM    8  C   UNK N   1      22.974  17.209   5.632  0.00  0.00     0.018 C 
HETATM    9  C   UNK N   1      23.734  17.955   4.810  0.00  0.00     0.125 C 
HETATM   10  N   UNK N   1      22.859  18.808   4.156  0.00  0.00    -0.304 N 
HETATM   11  C   UNK N   1      21.504  18.392   4.203  0.00  0.00     0.117 A 
HETATM   12  C   UNK N   1      22.661  19.888   3.468  0.00  0.00     0.233 A 
HETATM   13  C   UNK N   1      21.565  17.850   5.639  0.00  0.00     0.048 C 
HETATM   14  C   UNK N   1      21.174  19.788   3.423  0.00  0.00     0.130 A 
HETATM   15  C   UNK N   1      20.415  16.925   5.994  0.00  0.00     0.018 C 
HETATM   16  O   UNK N   1      23.484  20.701   3.084  0.00  0.00    -0.272 OA
BRANCH   9  17
HETATM   17  C   UNK N   1      25.163  17.883   4.444  0.00  0.00     0.195 C 
HETATM   18  O   UNK N   1      26.002  17.528   5.241  0.00  0.00    -0.645 OA
BRANCH  17  19
HETATM   19  O   UNK N   1      25.551  18.271   3.213  0.00  0.00    -0.772 OA
HETATM   20  H   UNK N   1      24.984  18.174   2.474  0.00  0.00     0.167 HD
ENDBRANCH  17  19
ENDBRANCH   9  17
BRANCH  14  21
HETATM   21  C   UNK N   1      20.647  19.516   2.010  0.00  0.00     0.129 C 
HETATM   22  C   UNK N   1      20.658  20.756   1.139  0.00  0.00     0.040 C 
BRANCH  21  23
HETATM   23  O   UNK N   1      19.351  19.002   2.078  0.00  0.00    -0.395 OA
HETATM   24  H   UNK N   1      19.149  18.170   2.535  0.00  0.00     0.210 HD
ENDBRANCH  21  23
ENDBRANCH  14  21
ENDBRANCH   7   8
ENDBRANCH   1   7
BRANCH   4  25
HETATM   25  C   UNK N   1      23.363  12.549   2.422  0.00  0.00     0.244 C 
HETATM   26  O   UNK N   1      24.557  12.325   2.295  0.00  0.00    -0.271 OA
HETATM   27  N   UNK N   1      22.692  12.969   1.303  0.00  0.00    -0.325 N 
HETATM   28  H   UNK N   1      23.280  13.077   0.520  0.00  0.00     0.169 HD
BRANCH  27  29
HETATM   29  C   UNK N   1      21.331  13.282   1.021  0.00  0.00     0.035 A 
HETATM   30  C   UNK N   1      20.308  12.325   1.016  0.00  0.00     0.029 A 
HETATM   31  C   UNK N   1      18.989  12.702   0.743  0.00  0.00     0.003 A 
HETATM   32  C   UNK N   1      18.688  14.032   0.441  0.00  0.00     0.018 A 
HETATM   33  C   UNK N   1      19.708  14.991   0.399  0.00  0.00     0.039 A 
HETATM   34  C   UNK N   1      21.023  14.605   0.685  0.00  0.00     0.047 A 
BRANCH  33  35
HETATM   35  C   UNK N   1      19.410  16.397   0.058  0.00  0.00     0.176 C 
HETATM   36  O   UNK N   1      20.315  17.169  -0.224  0.00  0.00    -0.646 OA
BRANCH  35  37
HETATM   37  O   UNK N   1      18.138  16.840   0.060  0.00  0.00    -0.773 OA
HETATM   38  H   UNK N   1      17.816  17.718   0.121  0.00  0.00     0.167 HD
ENDBRANCH  35  37
ENDBRANCH  33  35
ENDBRANCH  27  29
ENDBRANCH   4  25
TORSDOF 10
ENDMDL
MODEL 8
REMARK VINA RESULT:      -7.5      2.276      9.349
REMARK  10 active torsions:
REMARK  status: ('A' for Active; 'I' for Inactive)
REMARK    1  A    between atoms: C_12  and  C_1 
REMARK    2  A    between atoms: S_16  and  C_2 
REMARK    3  A    between atoms: C_8  and  C_6 
REMARK    4  A    between atoms: C_8  and  O_9 
REMARK    5  A    between atoms: O_14  and  C_12 
REMARK    6  A    between atoms: C_17  and  S_16 
REMARK    7  A    between atoms: C_20  and  C_22 
REMARK       I    between atoms: N_24  and  C_22 
REMARK    8  A    between atoms: C_25  and  N_24 
REMARK    9  A    between atoms: C_31  and  C_29 
REMARK   10  A    between atoms: O_32  and  C_31 
ROOT
HETATM    1  C   UNK N   1      33.509  15.404   7.998  0.00  0.00     0.072 C 
HETATM    2  C   UNK N   1      32.736  14.587   9.001  0.00  0.00     0.130 C 
HETATM    3  N   UNK N   1      33.724  13.962   9.886  0.00  0.00    -0.408 N 
HETATM    4  C   UNK N   1      35.045  14.366   9.393  0.00  0.00     0.171 C 
HETATM    5  C   UNK N   1      34.836  14.726   7.934  0.00  0.00     0.051 C 
HETATM    6  H   UNK N   1      33.529  13.363  10.687  0.00  0.00     0.154 HD
ENDROOT
BRANCH   1   7
HETATM    7  S   UNK N   1      32.622  15.721   6.438  0.00  0.00    -0.125 SA
BRANCH   7   8
HETATM    8  C   UNK N   1      30.955  16.425   6.693  0.00  0.00     0.018 C 
HETATM    9  C   UNK N   1      30.545  17.396   7.530  0.00  0.00     0.125 C 
HETATM   10  N   UNK N   1      29.381  17.906   6.977  0.00  0.00    -0.304 N 
HETATM   11  C   UNK N   1      29.211  17.597   5.603  0.00  0.00     0.117 A 
HETATM   12  C   UNK N   1      28.284  18.580   7.117  0.00  0.00     0.233 A 
HETATM   13  C   UNK N   1      29.797  16.180   5.695  0.00  0.00     0.048 C 
HETATM   14  C   UNK N   1      27.768  18.348   5.737  0.00  0.00     0.130 A 
HETATM   15  C   UNK N   1      30.189  15.591   4.352  0.00  0.00     0.018 C 
HETATM   16  O   UNK N   1      27.859  19.134   8.115  0.00  0.00    -0.272 OA
BRANCH   9  17
HETATM   17  C   UNK N   1      31.176  18.016   8.713  0.00  0.00     0.195 C 
HETATM   18  O   UNK N   1      32.346  18.325   8.716  0.00  0.00    -0.645 OA
BRANCH  17  19
HETATM   19  O   UNK N   1      30.449  18.193   9.833  0.00  0.00    -0.772 OA
HETATM   20  H   UNK N   1      29.513  18.147   9.816  0.00  0.00     0.167 HD
ENDBRANCH  17  19
ENDBRANCH   9  17
BRANCH  14  21
HETATM   21  C   UNK N   1      27.736  19.631   4.899  0.00  0.00     0.129 C 
HETATM   22  C   UNK N   1      26.448  20.408   5.080  0.00  0.00     0.040 C 
BRANCH  21  23
HETATM   23  O   UNK N   1      27.912  19.321   3.549  0.00  0.00    -0.395 OA
HETATM   24  H   UNK N   1      28.304  18.482   3.260  0.00  0.00     0.210 HD
ENDBRANCH  21  23
ENDBRANCH  14  21
ENDBRANCH   7   8
ENDBRANCH   1   7
BRANCH   4  25
HETATM   25  C   UNK N   1      35.611  15.403  10.376  0.00  0.00     0.244 C 
HETATM   26  O   UNK N   1      35.564  16.566  10.005  0.00  0.00    -0.271 OA
HETATM   27  N   UNK N   1      36.228  15.163  11.577  0.00  0.00    -0.325 N 
HETATM   28  H   UNK N   1      36.602  15.977  11.985  0.00  0.00     0.169 HD
BRANCH  27  29
HETATM   29  C   UNK N   1      36.448  13.997  12.363  0.00  0.00     0.035 A 
HETATM   30  C   UNK N   1      37.267  12.937  11.952  0.00  0.00     0.029 A 
HETATM   31  C   UNK N   1      37.450  11.823  12.779  0.00  0.00     0.003 A 
HETATM   32  C   UNK N   1      36.790  11.746  14.007  0.00  0.00     0.018 A 
HETATM   33  C   UNK N   1      35.933  12.777  14.410  0.00  0.00     0.039 A 
HETATM   34  C   UNK N   1      35.765  13.893  13.580  0.00  0.00     0.047 A 
BRANCH  33  35
HETATM   35  C   UNK N   1      35.208  12.700  15.695  0.00  0.00     0.176 C 
HETATM   36  O   UNK N   1      34.108  13.217  15.815  0.00  0.00    -0.646 OA
BRANCH  35  37
HETATM   37  O   UNK N   1      35.759  12.062  16.747  0.00  0.00    -0.773 OA
HETATM   38  H   UNK N   1      35.612  11.189  17.053  0.00  0.00     0.167 HD
ENDBRANCH  35  37
ENDBRANCH  33  35
ENDBRANCH  27  29
ENDBRANCH   4  25
TORSDOF 10
ENDMDL
MODEL 9
REMARK VINA RESULT:      -7.5      2.311      9.135
REMARK  10 active torsions:
REMARK  status: ('A' for Active; 'I' for Inactive)
REMARK    1  A    between atoms: C_12  and  C_1 
REMARK    2  A    between atoms: S_16  and  C_2 
REMARK    3  A    between atoms: C_8  and  C_6 
REMARK    4  A    between atoms: C_8  and  O_9 
REMARK    5  A    between atoms: O_14  and  C_12 
REMARK    6  A    between atoms: C_17  and  S_16 
REMARK    7  A    between atoms: C_20  and  C_22 
REMARK       I    between atoms: N_24  and  C_22 
REMARK    8  A    between atoms: C_25  and  N_24 
REMARK    9  A    between atoms: C_31  and  C_29 
REMARK   10  A    between atoms: O_32  and  C_31 
ROOT
HETATM    1  C   UNK N   1      35.258  14.777   9.509  0.00  0.00     0.072 C 
HETATM    2  C   UNK N   1      33.936  14.466  10.160  0.00  0.00     0.130 C 
HETATM    3  N   UNK N   1      34.233  13.687  11.366  0.00  0.00    -0.408 N 
HETATM    4  C   UNK N   1      35.688  13.510  11.404  0.00  0.00     0.171 C 
HETATM    5  C   UNK N   1      36.149  13.673   9.967  0.00  0.00     0.051 C 
HETATM    6  H   UNK N   1      33.558  13.337  12.045  0.00  0.00     0.154 HD
ENDROOT
BRANCH   1   7
HETATM    7  S   UNK N   1      35.159  15.124   7.723  0.00  0.00    -0.125 SA
BRANCH   7   8
HETATM    8  C   UNK N   1      33.553  15.840   7.222  0.00  0.00     0.018 C 
HETATM    9  C   UNK N   1      32.397  15.231   6.903  0.00  0.00     0.125 C 
HETATM   10  N   UNK N   1      31.401  16.169   7.125  0.00  0.00    -0.304 N 
HETATM   11  C   UNK N   1      31.797  17.243   7.962  0.00  0.00     0.117 A 
HETATM   12  C   UNK N   1      30.187  16.574   6.923  0.00  0.00     0.233 A 
HETATM   13  C   UNK N   1      33.227  17.342   7.411  0.00  0.00     0.048 C 
HETATM   14  C   UNK N   1      30.314  17.861   7.666  0.00  0.00     0.130 A 
HETATM   15  C   UNK N   1      34.175  18.121   8.305  0.00  0.00     0.018 C 
HETATM   16  O   UNK N   1      29.312  16.041   6.264  0.00  0.00    -0.272 OA
BRANCH   9  17
HETATM   17  C   UNK N   1      32.078  13.832   6.551  0.00  0.00     0.195 C 
HETATM   18  O   UNK N   1      32.662  12.903   7.062  0.00  0.00    -0.645 OA
BRANCH  17  19
HETATM   19  O   UNK N   1      31.155  13.583   5.601  0.00  0.00    -0.772 OA
HETATM   20  H   UNK N   1      31.408  13.388   4.720  0.00  0.00     0.167 HD
ENDBRANCH  17  19
ENDBRANCH   9  17
BRANCH  14  21
HETATM   21  C   UNK N   1      29.466  17.888   8.942  0.00  0.00     0.129 C 
HETATM   22  C   UNK N   1      28.063  18.404   8.694  0.00  0.00     0.040 C 
BRANCH  21  23
HETATM   23  O   UNK N   1      30.091  18.674   9.911  0.00  0.00    -0.395 OA
HETATM   24  H   UNK N   1      31.036  18.590  10.112  0.00  0.00     0.210 HD
ENDBRANCH  21  23
ENDBRANCH  14  21
ENDBRANCH   7   8
ENDBRANCH   1   7
BRANCH   4  25
HETATM   25  C   UNK N   1      36.240  14.427  12.507  0.00  0.00     0.244 C 
HETATM   26  O   UNK N   1      36.313  15.612  12.223  0.00  0.00    -0.271 OA
HETATM   27  N   UNK N   1      36.728  14.055  13.733  0.00  0.00    -0.325 N 
HETATM   28  H   UNK N   1      37.124  14.806  14.232  0.00  0.00     0.169 HD
BRANCH  27  29
HETATM   29  C   UNK N   1      36.790  12.822  14.444  0.00  0.00     0.035 A 
HETATM   30  C   UNK N   1      37.489  11.701  13.978  0.00  0.00     0.029 A 
HETATM   31  C   UNK N   1      37.519  10.522  14.731  0.00  0.00     0.003 A 
HETATM   32  C   UNK N   1      36.824  10.446  15.940  0.00  0.00     0.018 A 
HETATM   33  C   UNK N   1      36.084  11.544  16.396  0.00  0.00     0.039 A 
HETATM   34  C   UNK N   1      36.070  12.722  15.640  0.00  0.00     0.047 A 
BRANCH  33  35
HETATM   35  C   UNK N   1      35.323  11.472  17.660  0.00  0.00     0.176 C 
HETATM   36  O   UNK N   1      34.866  10.406  18.045  0.00  0.00    -0.646 OA
BRANCH  35  37
HETATM   37  O   UNK N   1      35.124  12.583  18.396  0.00  0.00    -0.773 OA
HETATM   38  H   UNK N   1      35.117  12.683  19.328  0.00  0.00     0.167 HD
ENDBRANCH  35  37
ENDBRANCH  33  35
ENDBRANCH  27  29
ENDBRANCH   4  25
TORSDOF 10
ENDMDL
