MODEL 1
REMARK VINA RESULT:      -7.8      0.000      0.000
REMARK  13 active torsions:
REMARK  status: ('A' for Active; 'I' for Inactive)
REMARK    1  A    between atoms: O_1  and  C_24 
REMARK    2  A    between atoms: O_3  and  C_28 
REMARK    3  A    between atoms: O_5  and  C_51 
REMARK    4  A    between atoms: O_7  and  C_54 
REMARK    5  A    between atoms: C_16  and  C_24 
REMARK    6  A    between atoms: C_20  and  C_28 
REMARK    7  A    between atoms: C_31  and  C_34 
REMARK    8  A    between atoms: C_34  and  C_42 
REMARK    9  A    between atoms: C_37  and  C_49 
REMARK   10  A    between atoms: C_41  and  C_47 
REMARK   11  A    between atoms: C_42  and  C_51 
REMARK   12  A    between atoms: C_47  and  C_52 
REMARK   13  A    between atoms: C_52  and  C_54 
ROOT
HETATM    1  N   UNK N   1      25.216  13.559   2.336  0.00  0.00    -0.358 N 
ATOM      2  HN  UNK N   1      26.198  13.777   2.505  1.00  0.00     0.166 HD
HETATM    3  N   UNK N   1      26.671  15.951   3.282  0.00  0.00    -0.355 N 
HETATM    4  N   UNK N   1      27.748  12.251   1.968  0.00  0.00    -0.355 N 
HETATM    5  N   UNK N   1      29.168  14.601   2.922  0.00  0.00    -0.355 N 
ATOM      6  HN  UNK N   1      28.185  14.336   2.854  1.00  0.00     0.166 HD
HETATM    7  C   UNK N   1      22.813  13.834   2.193  0.00  0.00     0.045 A 
HETATM    8  C   UNK N   1      21.698  13.549   3.209  0.00  0.00     0.143 C 
HETATM    9  C   UNK N   1      23.311  12.506   1.727  0.00  0.00    -0.016 A 
HETATM   10  C   UNK N   1      24.119  14.405   2.649  0.00  0.00     0.026 A 
HETATM   11  C   UNK N   1      22.298  14.659   1.006  0.00  0.00     0.028 C 
HETATM   12  C   UNK N   1      20.586  12.799   2.435  0.00  0.00     0.032 C 
HETATM   13  C   UNK N   1      24.773  12.479   1.809  0.00  0.00     0.042 A 
HETATM   14  C   UNK N   1      22.455  11.523   1.400  0.00  0.00     0.011 C 
HETATM   15  C   UNK N   1      20.995  11.800   1.598  0.00  0.00     0.015 C 
HETATM   16  C   UNK N   1      24.199  15.655   3.114  0.00  0.00     0.056 C 
HETATM   17  C   UNK N   1      25.624  11.377   1.302  0.00  0.00     0.060 C 
HETATM   18  C   UNK N   1      25.411  16.414   3.398  0.00  0.00     0.041 A 
HETATM   19  C   UNK N   1      25.408  17.756   3.713  0.00  0.00    -0.027 A 
HETATM   20  C   UNK N   1      26.964  11.321   1.380  0.00  0.00     0.041 A 
HETATM   21  C   UNK N   1      26.724  18.141   3.793  0.00  0.00    -0.023 A 
HETATM   22  C   UNK N   1      27.474  17.009   3.528  0.00  0.00     0.041 A 
HETATM   23  C   UNK N   1      27.734  10.305   0.836  0.00  0.00    -0.023 A 
HETATM   24  C   UNK N   1      24.201  18.616   3.875  0.00  0.00     0.051 C 
HETATM   25  C   UNK N   1      29.022  11.813   1.815  0.00  0.00     0.045 A 
HETATM   26  C   UNK N   1      29.049  10.621   1.119  0.00  0.00    -0.002 A 
HETATM   27  C   UNK N   1      28.940  16.976   3.477  0.00  0.00     0.060 C 
HETATM   28  C   UNK N   1      29.672  15.887   3.217  0.00  0.00     0.041 A 
HETATM   29  C   UNK N   1      31.134  15.833   3.172  0.00  0.00    -0.023 A 
HETATM   30  C   UNK N   1      30.120  12.466   2.197  0.00  0.00     0.060 C 
HETATM   31  C   UNK N   1      30.181  13.826   2.757  0.00  0.00     0.041 A 
HETATM   32  C   UNK N   1      27.236   9.132   0.059  0.00  0.00     0.051 C 
HETATM   33  C   UNK N   1      31.442  14.565   2.923  0.00  0.00    -0.027 A 
HETATM   34  C   UNK N   1      32.819  14.008   2.762  0.00  0.00     0.051 C 
HETATM   35  H   UNK N   1      26.949  15.032   3.064  0.00  0.00     0.166 HD
HETATM   36  H   UNK N   1      27.455  13.077   2.416  0.00  0.00     0.166 HD
ENDROOT
BRANCH  21  37
HETATM   37  C   UNK N   1      27.276  19.519   4.034  0.00  0.00     0.051 C 
BRANCH  37  38
HETATM   38  C   UNK N   1      28.113  19.698   5.302  0.00  0.00     0.116 C 
BRANCH  38  39
HETATM   39  C   UNK N   1      27.306  20.028   6.529  0.00  0.00     0.258 C 
HETATM   40  O   UNK N   1      26.302  20.712   6.420  0.00  0.00    -0.265 OA
BRANCH  39  41
HETATM   41  O   UNK N   1      27.649  19.542   7.748  0.00  0.00    -0.326 OA
HETATM   42  C   UNK N   1      28.447  18.434   7.911  0.00  0.00     0.213 C 
ENDBRANCH  39  41
ENDBRANCH  38  39
ENDBRANCH  37  38
ENDBRANCH  21  37
BRANCH  29  43
HETATM   43  C   UNK N   1      32.125  16.959   3.295  0.00  0.00     0.052 C 
BRANCH  43  44
HETATM   44  C   UNK N   1      32.228  17.507   4.709  0.00  0.00     0.115 C 
BRANCH  44  45
HETATM   45  C   UNK N   1      33.492  17.097   5.395  0.00  0.00     0.139 C 
HETATM   46  O   UNK N   1      34.180  17.945   5.939  0.00  0.00    -0.650 OA
BRANCH  45  47
HETATM   47  O   UNK N   1      33.880  15.806   5.423  0.00  0.00    -0.776 OA
HETATM   48  H   UNK N   1      34.661  15.319   5.249  0.00  0.00     0.167 HD
ENDBRANCH  45  47
ENDBRANCH  44  45
ENDBRANCH  43  44
ENDBRANCH  29  43
BRANCH   8  49
HETATM   49  C   UNK N   1      21.326  14.768   4.012  0.00  0.00     0.268 C 
HETATM   50  O   UNK N   1      21.494  14.757   5.224  0.00  0.00    -0.264 OA
BRANCH  49  51
HETATM   51  O   UNK N   1      20.874  15.884   3.388  0.00  0.00    -0.326 OA
HETATM   52  C   UNK N   1      19.768  16.575   3.826  0.00  0.00     0.213 C 
ENDBRANCH  49  51
ENDBRANCH   8  49
BRANCH  12  53
HETATM   53  C   UNK N   1      19.128  13.186   2.529  0.00  0.00     0.289 C 
HETATM   54  O   UNK N   1      18.568  13.117   3.610  0.00  0.00    -0.260 OA
BRANCH  53  55
HETATM   55  O   UNK N   1      18.393  13.631   1.470  0.00  0.00    -0.323 OA
HETATM   56  C   UNK N   1      18.787  14.574   0.550  0.00  0.00     0.213 C 
ENDBRANCH  53  55
ENDBRANCH  12  53
BRANCH  26  57
HETATM   57  C   UNK N   1      30.285   9.911   0.711  0.00  0.00     0.004 C 
HETATM   58  C   UNK N   1      30.800  10.007  -0.513  0.00  0.00     0.012 C 
ENDBRANCH  26  57
TORSDOF 13
ENDMDL
MODEL 2
REMARK VINA RESULT:      -7.7      4.977     10.897
REMARK  13 active torsions:
REMARK  status: ('A' for Active; 'I' for Inactive)
REMARK    1  A    between atoms: O_1  and  C_24 
REMARK    2  A    between atoms: O_3  and  C_28 
REMARK    3  A    between atoms: O_5  and  C_51 
REMARK    4  A    between atoms: O_7  and  C_54 
REMARK    5  A    between atoms: C_16  and  C_24 
REMARK    6  A    between atoms: C_20  and  C_28 
REMARK    7  A    between atoms: C_31  and  C_34 
REMARK    8  A    between atoms: C_34  and  C_42 
REMARK    9  A    between atoms: C_37  and  C_49 
REMARK   10  A    between atoms: C_41  and  C_47 
REMARK   11  A    between atoms: C_42  and  C_51 
REMARK   12  A    between atoms: C_47  and  C_52 
REMARK   13  A    between atoms: C_52  and  C_54 
ROOT
HETATM    1  N   UNK N   1      31.028  14.798   4.981  0.00  0.00    -0.358 N 
ATOM      2  HN  UNK N   1      30.625  14.106   4.350  1.00  0.00     0.166 HD
HETATM    3  N   UNK N   1      32.121  13.027   2.884  0.00  0.00    -0.355 N 
HETATM    4  N   UNK N   1      28.401  13.833   4.329  0.00  0.00    -0.355 N 
HETATM    5  N   UNK N   1      29.489  12.077   2.284  0.00  0.00    -0.355 N 
ATOM      6  HN  UNK N   1      29.894  12.689   2.992  1.00  0.00     0.166 HD
HETATM    7  C   UNK N   1      32.674  16.203   6.071  0.00  0.00     0.045 A 
HETATM    8  C   UNK N   1      33.516  15.982   7.336  0.00  0.00     0.143 C 
HETATM    9  C   UNK N   1      31.271  16.426   6.530  0.00  0.00    -0.016 A 
HETATM   10  C   UNK N   1      32.414  15.066   5.132  0.00  0.00     0.026 A 
HETATM   11  C   UNK N   1      33.172  17.409   5.264  0.00  0.00     0.028 C 
HETATM   12  C   UNK N   1      33.421  17.294   8.155  0.00  0.00     0.032 C 
HETATM   13  C   UNK N   1      30.366  15.565   5.765  0.00  0.00     0.042 A 
HETATM   14  C   UNK N   1      31.004  17.243   7.563  0.00  0.00     0.011 C 
HETATM   15  C   UNK N   1      32.178  17.850   8.271  0.00  0.00     0.015 C 
HETATM   16  C   UNK N   1      33.401  14.535   4.405  0.00  0.00     0.056 C 
HETATM   17  C   UNK N   1      28.888  15.613   5.849  0.00  0.00     0.060 C 
HETATM   18  C   UNK N   1      33.273  13.578   3.312  0.00  0.00     0.041 A 
HETATM   19  C   UNK N   1      34.325  13.211   2.501  0.00  0.00    -0.027 A 
HETATM   20  C   UNK N   1      28.038  14.823   5.172  0.00  0.00     0.041 A 
HETATM   21  C   UNK N   1      33.800  12.397   1.526  0.00  0.00    -0.023 A 
HETATM   22  C   UNK N   1      32.446  12.301   1.792  0.00  0.00     0.041 A 
HETATM   23  C   UNK N   1      26.657  14.939   5.224  0.00  0.00    -0.023 A 
HETATM   24  C   UNK N   1      35.739  13.664   2.638  0.00  0.00     0.051 C 
HETATM   25  C   UNK N   1      27.245  13.302   3.860  0.00  0.00     0.045 A 
HETATM   26  C   UNK N   1      26.153  13.963   4.386  0.00  0.00    -0.002 A 
HETATM   27  C   UNK N   1      31.489  11.549   0.972  0.00  0.00     0.060 C 
HETATM   28  C   UNK N   1      30.178  11.454   1.219  0.00  0.00     0.041 A 
HETATM   29  C   UNK N   1      29.211  10.701   0.420  0.00  0.00    -0.023 A 
HETATM   30  C   UNK N   1      27.148  12.334   2.947  0.00  0.00     0.060 C 
HETATM   31  C   UNK N   1      28.255  11.726   2.193  0.00  0.00     0.041 A 
HETATM   32  C   UNK N   1      25.880  15.952   5.997  0.00  0.00     0.051 C 
HETATM   33  C   UNK N   1      28.043  10.842   1.037  0.00  0.00    -0.027 A 
HETATM   34  C   UNK N   1      26.737  10.272   0.589  0.00  0.00     0.051 C 
HETATM   35  H   UNK N   1      31.227  13.131   3.284  0.00  0.00     0.166 HD
HETATM   36  H   UNK N   1      29.317  13.552   4.102  0.00  0.00     0.166 HD
ENDROOT
BRANCH  21  37
HETATM   37  C   UNK N   1      34.505  11.787   0.346  0.00  0.00     0.051 C 
BRANCH  37  38
HETATM   38  C   UNK N   1      34.889  12.747  -0.781  0.00  0.00     0.116 C 
BRANCH  38  39
HETATM   39  C   UNK N   1      34.057  12.597  -2.027  0.00  0.00     0.258 C 
HETATM   40  O   UNK N   1      33.047  13.268  -2.158  0.00  0.00    -0.265 OA
BRANCH  39  41
HETATM   41  O   UNK N   1      34.434  11.762  -3.027  0.00  0.00    -0.326 OA
HETATM   42  C   UNK N   1      35.042  12.205  -4.179  0.00  0.00     0.213 C 
ENDBRANCH  39  41
ENDBRANCH  38  39
ENDBRANCH  37  38
ENDBRANCH  21  37
BRANCH  29  43
HETATM   43  C   UNK N   1      29.425   9.970  -0.878  0.00  0.00     0.052 C 
BRANCH  43  44
HETATM   44  C   UNK N   1      29.858  10.887  -2.012  0.00  0.00     0.115 C 
BRANCH  44  45
HETATM   45  C   UNK N   1      31.138  10.448  -2.649  0.00  0.00     0.139 C 
HETATM   46  O   UNK N   1      31.817   9.597  -2.101  0.00  0.00    -0.650 OA
BRANCH  45  47
HETATM   47  O   UNK N   1      31.548  10.978  -3.819  0.00  0.00    -0.776 OA
HETATM   48  H   UNK N   1      32.305  10.926  -4.370  0.00  0.00     0.167 HD
ENDBRANCH  45  47
ENDBRANCH  44  45
ENDBRANCH  43  44
ENDBRANCH  29  43
BRANCH   8  49
HETATM   49  C   UNK N   1      34.879  15.418   7.029  0.00  0.00     0.268 C 
HETATM   50  O   UNK N   1      35.565  15.954   6.169  0.00  0.00    -0.264 OA
BRANCH  49  51
HETATM   51  O   UNK N   1      35.360  14.372   7.745  0.00  0.00    -0.326 OA
HETATM   52  C   UNK N   1      34.536  13.443   8.336  0.00  0.00     0.213 C 
ENDBRANCH  49  51
ENDBRANCH   8  49
BRANCH  12  53
HETATM   53  C   UNK N   1      34.636  17.978   8.738  0.00  0.00     0.289 C 
HETATM   54  O   UNK N   1      35.011  19.030   8.250  0.00  0.00    -0.260 OA
BRANCH  53  55
HETATM   55  O   UNK N   1      35.338  17.496   9.804  0.00  0.00    -0.323 OA
HETATM   56  C   UNK N   1      34.966  16.447  10.611  0.00  0.00     0.213 C 
ENDBRANCH  53  55
ENDBRANCH  12  53
BRANCH  26  57
HETATM   57  C   UNK N   1      24.744  13.689   4.020  0.00  0.00     0.004 C 
HETATM   58  C   UNK N   1      24.074  14.421   3.133  0.00  0.00     0.012 C 
ENDBRANCH  26  57
TORSDOF 13
ENDMDL
MODEL 3
REMARK VINA RESULT:      -7.7      3.251      9.757
REMARK  13 active torsions:
REMARK  status: ('A' for Active; 'I' for Inactive)
REMARK    1  A    between atoms: O_1  and  C_24 
REMARK    2  A    between atoms: O_3  and  C_28 
REMARK    3  A    between atoms: O_5  and  C_51 
REMARK    4  A    between atoms: O_7  and  C_54 
REMARK    5  A    between atoms: C_16  and  C_24 
REMARK    6  A    between atoms: C_20  and  C_28 
REMARK    7  A    between atoms: C_31  and  C_34 
REMARK    8  A    between atoms: C_34  and  C_42 
REMARK    9  A    between atoms: C_37  and  C_49 
REMARK   10  A    between atoms: C_41  and  C_47 
REMARK   11  A    between atoms: C_42  and  C_51 
REMARK   12  A    between atoms: C_47  and  C_52 
REMARK   13  A    between atoms: C_52  and  C_54 
ROOT
HETATM    1  N   UNK N   1      31.657  14.156   5.819  0.00  0.00    -0.358 N 
ATOM      2  HN  UNK N   1      30.860  14.469   5.266  1.00  0.00     0.166 HD
HETATM    3  N   UNK N   1      29.744  16.397   6.035  0.00  0.00    -0.355 N 
HETATM    4  N   UNK N   1      30.191  13.218   3.532  0.00  0.00    -0.355 N 
HETATM    5  N   UNK N   1      28.328  15.440   3.740  0.00  0.00    -0.355 N 
ATOM      6  HN  UNK N   1      29.190  15.180   4.220  1.00  0.00     0.166 HD
HETATM    7  C   UNK N   1      33.322  14.080   7.577  0.00  0.00     0.045 A 
HETATM    8  C   UNK N   1      34.734  14.678   7.662  0.00  0.00     0.143 C 
HETATM    9  C   UNK N   1      33.399  12.949   6.605  0.00  0.00    -0.016 A 
HETATM   10  C   UNK N   1      32.217  14.849   6.923  0.00  0.00     0.026 A 
HETATM   11  C   UNK N   1      32.838  13.579   8.944  0.00  0.00     0.028 C 
HETATM   12  C   UNK N   1      35.648  13.555   8.214  0.00  0.00     0.032 C 
HETATM   13  C   UNK N   1      32.315  13.073   5.628  0.00  0.00     0.042 A 
HETATM   14  C   UNK N   1      34.409  12.064   6.653  0.00  0.00     0.011 C 
HETATM   15  C   UNK N   1      35.483  12.313   7.669  0.00  0.00     0.015 C 
HETATM   16  C   UNK N   1      31.732  15.963   7.480  0.00  0.00     0.056 C 
HETATM   17  C   UNK N   1      31.991  12.060   4.597  0.00  0.00     0.060 C 
HETATM   18  C   UNK N   1      30.538  16.699   7.081  0.00  0.00     0.041 A 
HETATM   19  C   UNK N   1      30.011  17.741   7.813  0.00  0.00    -0.027 A 
HETATM   20  C   UNK N   1      31.015  12.158   3.680  0.00  0.00     0.041 A 
HETATM   21  C   UNK N   1      28.838  18.098   7.195  0.00  0.00    -0.023 A 
HETATM   22  C   UNK N   1      28.705  17.257   6.104  0.00  0.00     0.041 A 
HETATM   23  C   UNK N   1      30.697  11.161   2.770  0.00  0.00    -0.023 A 
HETATM   24  C   UNK N   1      30.588  18.316   9.062  0.00  0.00     0.051 C 
HETATM   25  C   UNK N   1      29.359  12.901   2.509  0.00  0.00     0.045 A 
HETATM   26  C   UNK N   1      29.640  11.641   2.021  0.00  0.00    -0.002 A 
HETATM   27  C   UNK N   1      27.567  17.271   5.178  0.00  0.00     0.060 C 
HETATM   28  C   UNK N   1      27.429  16.459   4.124  0.00  0.00     0.041 A 
HETATM   29  C   UNK N   1      26.307  16.464   3.184  0.00  0.00    -0.023 A 
HETATM   30  C   UNK N   1      28.345  13.649   2.072  0.00  0.00     0.060 C 
HETATM   31  C   UNK N   1      27.858  14.903   2.671  0.00  0.00     0.041 A 
HETATM   32  C   UNK N   1      31.342   9.820   2.662  0.00  0.00     0.051 C 
HETATM   33  C   UNK N   1      26.589  15.535   2.278  0.00  0.00    -0.027 A 
HETATM   34  C   UNK N   1      25.732  15.147   1.117  0.00  0.00     0.051 C 
HETATM   35  H   UNK N   1      29.891  15.695   5.361  0.00  0.00     0.166 HD
HETATM   36  H   UNK N   1      30.194  14.050   4.058  0.00  0.00     0.166 HD
ENDROOT
BRANCH  21  37
HETATM   37  C   UNK N   1      27.834  19.129   7.632  0.00  0.00     0.051 C 
BRANCH  37  38
HETATM   38  C   UNK N   1      27.858  20.458   6.873  0.00  0.00     0.116 C 
BRANCH  38  39
HETATM   39  C   UNK N   1      26.507  20.921   6.400  0.00  0.00     0.258 C 
HETATM   40  O   UNK N   1      25.937  21.818   7.000  0.00  0.00    -0.265 OA
BRANCH  39  41
HETATM   41  O   UNK N   1      25.929  20.392   5.294  0.00  0.00    -0.326 OA
HETATM   42  C   UNK N   1      26.444  20.562   4.029  0.00  0.00     0.213 C 
ENDBRANCH  39  41
ENDBRANCH  38  39
ENDBRANCH  37  38
ENDBRANCH  21  37
BRANCH  29  43
HETATM   43  C   UNK N   1      25.040  17.274   3.231  0.00  0.00     0.052 C 
BRANCH  43  44
HETATM   44  C   UNK N   1      24.087  16.826   4.329  0.00  0.00     0.115 C 
BRANCH  44  45
HETATM   45  C   UNK N   1      23.228  17.939   4.836  0.00  0.00     0.139 C 
HETATM   46  O   UNK N   1      22.518  17.750   5.809  0.00  0.00    -0.650 OA
BRANCH  45  47
HETATM   47  O   UNK N   1      23.229  19.146   4.235  0.00  0.00    -0.776 OA
HETATM   48  H   UNK N   1      23.690  19.958   4.323  0.00  0.00     0.167 HD
ENDBRANCH  45  47
ENDBRANCH  44  45
ENDBRANCH  43  44
ENDBRANCH  29  43
BRANCH   8  49
HETATM   49  C   UNK N   1      34.749  16.023   8.340  0.00  0.00     0.268 C 
HETATM   50  O   UNK N   1      34.937  17.026   7.665  0.00  0.00    -0.264 OA
BRANCH  49  51
HETATM   51  O   UNK N   1      34.491  16.121   9.667  0.00  0.00    -0.326 OA
HETATM   52  C   UNK N   1      35.312  16.813  10.527  0.00  0.00     0.213 C 
ENDBRANCH  49  51
ENDBRANCH   8  49
BRANCH  12  53
HETATM   53  C   UNK N   1      36.624  13.785   9.345  0.00  0.00     0.289 C 
HETATM   54  O   UNK N   1      37.746  14.184   9.084  0.00  0.00    -0.260 OA
BRANCH  53  55
HETATM   55  O   UNK N   1      36.319  13.588  10.659  0.00  0.00    -0.323 OA
HETATM   56  C   UNK N   1      35.720  12.472  11.194  0.00  0.00     0.213 C 
ENDBRANCH  53  55
ENDBRANCH  12  53
BRANCH  26  57
HETATM   57  C   UNK N   1      28.867  10.957   0.957  0.00  0.00     0.004 C 
HETATM   58  C   UNK N   1      29.306  10.847  -0.294  0.00  0.00     0.012 C 
ENDBRANCH  26  57
TORSDOF 13
ENDMDL
MODEL 4
REMARK VINA RESULT:      -7.6      3.405      8.377
REMARK  13 active torsions:
REMARK  status: ('A' for Active; 'I' for Inactive)
REMARK    1  A    between atoms: O_1  and  C_24 
REMARK    2  A    between atoms: O_3  and  C_28 
REMARK    3  A    between atoms: O_5  and  C_51 
REMARK    4  A    between atoms: O_7  and  C_54 
REMARK    5  A    between atoms: C_16  and  C_24 
REMARK    6  A    between atoms: C_20  and  C_28 
REMARK    7  A    between atoms: C_31  and  C_34 
REMARK    8  A    between atoms: C_34  and  C_42 
REMARK    9  A    between atoms: C_37  and  C_49 
REMARK   10  A    between atoms: C_41  and  C_47 
REMARK   11  A    between atoms: C_42  and  C_51 
REMARK   12  A    between atoms: C_47  and  C_52 
REMARK   13  A    between atoms: C_52  and  C_54 
ROOT
HETATM    1  N   UNK N   1      29.242  13.207   2.088  0.00  0.00    -0.358 N 
ATOM      2  HN  UNK N   1      28.902  14.101   2.443  1.00  0.00     0.166 HD
HETATM    3  N   UNK N   1      30.524  15.557   3.340  0.00  0.00    -0.355 N 
HETATM    4  N   UNK N   1      26.694  14.478   2.474  0.00  0.00    -0.355 N 
HETATM    5  N   UNK N   1      27.967  16.796   3.684  0.00  0.00    -0.355 N 
ATOM      6  HN  UNK N   1      28.306  15.948   3.228  1.00  0.00     0.166 HD
HETATM    7  C   UNK N   1      30.769  11.420   1.503  0.00  0.00     0.045 A 
HETATM    8  C   UNK N   1      31.533  11.123   0.205  0.00  0.00     0.143 C 
HETATM    9  C   UNK N   1      29.333  11.119   1.228  0.00  0.00    -0.016 A 
HETATM   10  C   UNK N   1      30.606  12.830   1.976  0.00  0.00     0.026 A 
HETATM   11  C   UNK N   1      31.282  10.562   2.668  0.00  0.00     0.028 C 
HETATM   12  C   UNK N   1      31.344   9.612  -0.075  0.00  0.00     0.032 C 
HETATM   13  C   UNK N   1      28.507  12.244   1.671  0.00  0.00     0.042 A 
HETATM   14  C   UNK N   1      28.974   9.999   0.578  0.00  0.00     0.011 C 
HETATM   15  C   UNK N   1      30.080   9.117   0.081  0.00  0.00     0.015 C 
HETATM   16  C   UNK N   1      31.654  13.536   2.410  0.00  0.00     0.056 C 
HETATM   17  C   UNK N   1      27.025  12.246   1.685  0.00  0.00     0.060 C 
HETATM   18  C   UNK N   1      31.627  14.828   3.085  0.00  0.00     0.041 A 
HETATM   19  C   UNK N   1      32.741  15.408   3.653  0.00  0.00    -0.027 A 
HETATM   20  C   UNK N   1      26.246  13.271   2.069  0.00  0.00     0.041 A 
HETATM   21  C   UNK N   1      32.307  16.545   4.290  0.00  0.00    -0.023 A 
HETATM   22  C   UNK N   1      30.941  16.610   4.076  0.00  0.00     0.041 A 
HETATM   23  C   UNK N   1      24.862  13.216   2.132  0.00  0.00    -0.023 A 
HETATM   24  C   UNK N   1      34.129  14.863   3.620  0.00  0.00     0.051 C 
HETATM   25  C   UNK N   1      25.588  15.203   2.776  0.00  0.00     0.045 A 
HETATM   26  C   UNK N   1      24.444  14.454   2.581  0.00  0.00    -0.002 A 
HETATM   27  C   UNK N   1      30.064  17.656   4.613  0.00  0.00     0.060 C 
HETATM   28  C   UNK N   1      28.743  17.724   4.413  0.00  0.00     0.041 A 
HETATM   29  C   UNK N   1      27.854  18.764   4.931  0.00  0.00    -0.023 A 
HETATM   30  C   UNK N   1      25.580  16.439   3.277  0.00  0.00     0.060 C 
HETATM   31  C   UNK N   1      26.753  17.219   3.702  0.00  0.00     0.041 A 
HETATM   32  C   UNK N   1      24.006  12.034   1.820  0.00  0.00     0.051 C 
HETATM   33  C   UNK N   1      26.644  18.471   4.467  0.00  0.00    -0.027 A 
HETATM   34  C   UNK N   1      25.388  19.232   4.741  0.00  0.00     0.051 C 
HETATM   35  H   UNK N   1      29.603  15.362   3.051  0.00  0.00     0.166 HD
HETATM   36  H   UNK N   1      27.631  14.774   2.538  0.00  0.00     0.166 HD
ENDROOT
BRANCH  21  37
HETATM   37  C   UNK N   1      33.106  17.503   5.130  0.00  0.00     0.051 C 
BRANCH  37  38
HETATM   38  C   UNK N   1      33.865  16.894   6.311  0.00  0.00     0.116 C 
BRANCH  38  39
HETATM   39  C   UNK N   1      33.877  17.755   7.544  0.00  0.00     0.258 C 
HETATM   40  O   UNK N   1      34.777  18.564   7.702  0.00  0.00    -0.265 OA
BRANCH  39  41
HETATM   41  O   UNK N   1      32.883  17.681   8.464  0.00  0.00    -0.326 OA
HETATM   42  C   UNK N   1      32.092  16.566   8.618  0.00  0.00     0.213 C 
ENDBRANCH  39  41
ENDBRANCH  38  39
ENDBRANCH  37  38
ENDBRANCH  21  37
BRANCH  29  43
HETATM   43  C   UNK N   1      28.174  19.903   5.862  0.00  0.00     0.052 C 
BRANCH  43  44
HETATM   44  C   UNK N   1      27.455  19.798   7.198  0.00  0.00     0.115 C 
BRANCH  44  45
HETATM   45  C   UNK N   1      28.138  18.866   8.148  0.00  0.00     0.139 C 
HETATM   46  O   UNK N   1      29.310  18.581   7.967  0.00  0.00    -0.650 OA
BRANCH  45  47
HETATM   47  O   UNK N   1      27.478  18.339   9.199  0.00  0.00    -0.776 OA
HETATM   48  H   UNK N   1      26.587  18.259   9.481  0.00  0.00     0.167 HD
ENDBRANCH  45  47
ENDBRANCH  44  45
ENDBRANCH  43  44
ENDBRANCH  29  43
BRANCH   8  49
HETATM   49  C   UNK N   1      32.930  11.689   0.217  0.00  0.00     0.268 C 
HETATM   50  O   UNK N   1      33.758  11.211   0.979  0.00  0.00    -0.264 OA
BRANCH  49  51
HETATM   51  O   UNK N   1      33.276  12.668  -0.655  0.00  0.00    -0.326 OA
HETATM   52  C   UNK N   1      33.127  12.528  -2.015  0.00  0.00     0.213 C 
ENDBRANCH  49  51
ENDBRANCH   8  49
BRANCH  12  53
HETATM   53  C   UNK N   1      32.497   8.701  -0.430  0.00  0.00     0.289 C 
HETATM   54  O   UNK N   1      32.928   7.938   0.419  0.00  0.00    -0.260 OA
BRANCH  53  55
HETATM   55  O   UNK N   1      33.082   8.663  -1.661  0.00  0.00    -0.323 OA
HETATM   56  C   UNK N   1      34.385   8.992  -1.950  0.00  0.00     0.213 C 
ENDBRANCH  53  55
ENDBRANCH  12  53
BRANCH  26  57
HETATM   57  C   UNK N   1      23.071  14.916   2.893  0.00  0.00     0.004 C 
HETATM   58  C   UNK N   1      22.441  14.594   4.020  0.00  0.00     0.012 C 
ENDBRANCH  26  57
TORSDOF 13
ENDMDL
MODEL 5
REMARK VINA RESULT:      -7.6      1.898      2.734
REMARK  13 active torsions:
REMARK  status: ('A' for Active; 'I' for Inactive)
REMARK    1  A    between atoms: O_1  and  C_24 
REMARK    2  A    between atoms: O_3  and  C_28 
REMARK    3  A    between atoms: O_5  and  C_51 
REMARK    4  A    between atoms: O_7  and  C_54 
REMARK    5  A    between atoms: C_16  and  C_24 
REMARK    6  A    between atoms: C_20  and  C_28 
REMARK    7  A    between atoms: C_31  and  C_34 
REMARK    8  A    between atoms: C_34  and  C_42 
REMARK    9  A    between atoms: C_37  and  C_49 
REMARK   10  A    between atoms: C_41  and  C_47 
REMARK   11  A    between atoms: C_42  and  C_51 
REMARK   12  A    between atoms: C_47  and  C_52 
REMARK   13  A    between atoms: C_52  and  C_54 
ROOT
HETATM    1  N   UNK N   1      27.504  13.643   2.879  0.00  0.00    -0.358 N 
ATOM      2  HN  UNK N   1      28.369  13.952   3.322  1.00  0.00     0.166 HD
HETATM    3  N   UNK N   1      28.261  15.963   4.546  0.00  0.00    -0.355 N 
HETATM    4  N   UNK N   1      30.248  12.792   2.940  0.00  0.00    -0.355 N 
HETATM    5  N   UNK N   1      30.978  15.066   4.599  0.00  0.00    -0.355 N 
ATOM      6  HN  UNK N   1      30.098  14.691   4.244  1.00  0.00     0.166 HD
HETATM    7  C   UNK N   1      25.181  13.614   2.190  0.00  0.00     0.045 A 
HETATM    8  C   UNK N   1      23.941  12.979   2.833  0.00  0.00     0.143 C 
HETATM    9  C   UNK N   1      26.001  12.490   1.647  0.00  0.00    -0.016 A 
HETATM   10  C   UNK N   1      26.232  14.250   3.046  0.00  0.00     0.026 A 
HETATM   11  C   UNK N   1      24.799  14.589   1.068  0.00  0.00     0.028 C 
HETATM   12  C   UNK N   1      23.179  12.261   1.692  0.00  0.00     0.032 C 
HETATM   13  C   UNK N   1      27.389  12.645   2.085  0.00  0.00     0.042 A 
HETATM   14  C   UNK N   1      25.428  11.490   0.956  0.00  0.00     0.011 C 
HETATM   15  C   UNK N   1      23.935  11.520   0.827  0.00  0.00     0.015 C 
HETATM   16  C   UNK N   1      25.981  15.377   3.720  0.00  0.00     0.056 C 
HETATM   17  C   UNK N   1      28.515  11.796   1.629  0.00  0.00     0.060 C 
HETATM   18  C   UNK N   1      26.945  16.217   4.420  0.00  0.00     0.041 A 
HETATM   19  C   UNK N   1      26.631  17.453   4.944  0.00  0.00    -0.027 A 
HETATM   20  C   UNK N   1      29.793  11.907   2.028  0.00  0.00     0.041 A 
HETATM   21  C   UNK N   1      27.806  17.987   5.414  0.00  0.00    -0.023 A 
HETATM   22  C   UNK N   1      28.787  17.046   5.158  0.00  0.00     0.041 A 
HETATM   23  C   UNK N   1      30.834  11.138   1.531  0.00  0.00    -0.023 A 
HETATM   24  C   UNK N   1      25.283  18.091   4.942  0.00  0.00     0.051 C 
HETATM   25  C   UNK N   1      31.582  12.571   3.039  0.00  0.00     0.045 A 
HETATM   26  C   UNK N   1      31.976  11.563   2.182  0.00  0.00    -0.002 A 
HETATM   27  C   UNK N   1      30.210  17.223   5.469  0.00  0.00     0.060 C 
HETATM   28  C   UNK N   1      31.165  16.320   5.222  0.00  0.00     0.041 A 
HETATM   29  C   UNK N   1      32.587  16.474   5.534  0.00  0.00    -0.023 A 
HETATM   30  C   UNK N   1      32.434  13.274   3.786  0.00  0.00     0.060 C 
HETATM   31  C   UNK N   1      32.125  14.485   4.563  0.00  0.00     0.041 A 
HETATM   32  C   UNK N   1      30.737  10.094   0.469  0.00  0.00     0.051 C 
HETATM   33  C   UNK N   1      33.165  15.337   5.161  0.00  0.00    -0.027 A 
HETATM   34  C   UNK N   1      34.621  15.017   5.258  0.00  0.00     0.051 C 
HETATM   35  H   UNK N   1      28.741  15.155   4.253  0.00  0.00     0.166 HD
HETATM   36  H   UNK N   1      29.720  13.462   3.433  0.00  0.00     0.166 HD
ENDROOT
BRANCH  21  37
HETATM   37  C   UNK N   1      28.035  19.348   6.012  0.00  0.00     0.051 C 
BRANCH  37  38
HETATM   38  C   UNK N   1      27.617  19.521   7.474  0.00  0.00     0.116 C 
BRANCH  38  39
HETATM   39  C   UNK N   1      28.465  18.752   8.451  0.00  0.00     0.258 C 
HETATM   40  O   UNK N   1      29.673  18.926   8.463  0.00  0.00    -0.265 OA
BRANCH  39  41
HETATM   41  O   UNK N   1      27.908  17.903   9.349  0.00  0.00    -0.326 OA
HETATM   42  C   UNK N   1      28.649  17.018  10.099  0.00  0.00     0.213 C 
ENDBRANCH  39  41
ENDBRANCH  38  39
ENDBRANCH  37  38
ENDBRANCH  21  37
BRANCH  29  43
HETATM   43  C   UNK N   1      33.307  17.673   6.088  0.00  0.00     0.052 C 
BRANCH  43  44
HETATM   44  C   UNK N   1      33.112  17.844   7.586  0.00  0.00     0.115 C 
BRANCH  44  45
HETATM   45  C   UNK N   1      34.406  17.989   8.323  0.00  0.00     0.139 C 
HETATM   46  O   UNK N   1      34.977  19.066   8.320  0.00  0.00    -0.650 OA
BRANCH  45  47
HETATM   47  O   UNK N   1      34.945  16.948   8.989  0.00  0.00    -0.776 OA
HETATM   48  H   UNK N   1      35.346  16.128   8.775  0.00  0.00     0.167 HD
ENDBRANCH  45  47
ENDBRANCH  44  45
ENDBRANCH  43  44
ENDBRANCH  29  43
BRANCH   8  49
HETATM   49  C   UNK N   1      23.188  13.945   3.710  0.00  0.00     0.268 C 
HETATM   50  O   UNK N   1      23.204  13.783   4.923  0.00  0.00    -0.264 OA
BRANCH  49  51
HETATM   51  O   UNK N   1      22.561  15.015   3.165  0.00  0.00    -0.326 OA
HETATM   52  C   UNK N   1      22.292  16.156   3.884  0.00  0.00     0.213 C 
ENDBRANCH  49  51
ENDBRANCH   8  49
BRANCH  12  53
HETATM   53  C   UNK N   1      21.691  12.420   1.482  0.00  0.00     0.289 C 
HETATM   54  O   UNK N   1      20.928  11.708   2.113  0.00  0.00    -0.260 OA
BRANCH  53  55
HETATM   55  O   UNK N   1      21.139  13.334   0.635  0.00  0.00    -0.323 OA
HETATM   56  C   UNK N   1      19.952  14.002   0.825  0.00  0.00     0.213 C 
ENDBRANCH  53  55
ENDBRANCH  12  53
BRANCH  26  57
HETATM   57  C   UNK N   1      33.378  11.126   1.981  0.00  0.00     0.004 C 
HETATM   58  C   UNK N   1      34.125  11.547   0.964  0.00  0.00     0.012 C 
ENDBRANCH  26  57
TORSDOF 13
ENDMDL
MODEL 6
REMARK VINA RESULT:      -7.5      3.140      7.979
REMARK  13 active torsions:
REMARK  status: ('A' for Active; 'I' for Inactive)
REMARK    1  A    between atoms: O_1  and  C_24 
REMARK    2  A    between atoms: O_3  and  C_28 
REMARK    3  A    between atoms: O_5  and  C_51 
REMARK    4  A    between atoms: O_7  and  C_54 
REMARK    5  A    between atoms: C_16  and  C_24 
REMARK    6  A    between atoms: C_20  and  C_28 
REMARK    7  A    between atoms: C_31  and  C_34 
REMARK    8  A    between atoms: C_34  and  C_42 
REMARK    9  A    between atoms: C_37  and  C_49 
REMARK   10  A    between atoms: C_41  and  C_47 
REMARK   11  A    between atoms: C_42  and  C_51 
REMARK   12  A    between atoms: C_47  and  C_52 
REMARK   13  A    between atoms: C_52  and  C_54 
ROOT
HETATM    1  N   UNK N   1      27.777  13.043   2.015  0.00  0.00    -0.358 N 
ATOM      2  HN  UNK N   1      27.562  13.993   2.317  1.00  0.00     0.166 HD
HETATM    3  N   UNK N   1      29.396  15.336   2.940  0.00  0.00    -0.355 N 
HETATM    4  N   UNK N   1      25.415  14.605   2.501  0.00  0.00    -0.355 N 
HETATM    5  N   UNK N   1      27.017  16.863   3.387  0.00  0.00    -0.355 N 
ATOM      6  HN  UNK N   1      27.227  15.951   2.981  1.00  0.00     0.166 HD
HETATM    7  C   UNK N   1      29.060  11.062   1.465  0.00  0.00     0.045 A 
HETATM    8  C   UNK N   1      29.666  10.584   0.139  0.00  0.00     0.143 C 
HETATM    9  C   UNK N   1      27.581  10.895   1.341  0.00  0.00    -0.016 A 
HETATM   10  C   UNK N   1      29.081  12.516   1.822  0.00  0.00     0.026 A 
HETATM   11  C   UNK N   1      29.592  10.252   2.654  0.00  0.00     0.028 C 
HETATM   12  C   UNK N   1      29.303   9.083   0.011  0.00  0.00     0.032 C 
HETATM   13  C   UNK N   1      26.915  12.133   1.750  0.00  0.00     0.042 A 
HETATM   14  C   UNK N   1      27.055   9.771   0.825  0.00  0.00     0.011 C 
HETATM   15  C   UNK N   1      28.017   8.740   0.318  0.00  0.00     0.015 C 
HETATM   16  C   UNK N   1      30.230  13.139   2.101  0.00  0.00     0.056 C 
HETATM   17  C   UNK N   1      25.449  12.294   1.888  0.00  0.00     0.060 C 
HETATM   18  C   UNK N   1      30.394  14.476   2.658  0.00  0.00     0.041 A 
HETATM   19  C   UNK N   1      31.607  14.978   3.076  0.00  0.00    -0.027 A 
HETATM   20  C   UNK N   1      24.814  13.423   2.245  0.00  0.00     0.041 A 
HETATM   21  C   UNK N   1      31.349  16.202   3.643  0.00  0.00    -0.023 A 
HETATM   22  C   UNK N   1      29.982  16.395   3.540  0.00  0.00     0.041 A 
HETATM   23  C   UNK N   1      23.443  13.521   2.428  0.00  0.00    -0.023 A 
HETATM   24  C   UNK N   1      32.925  14.288   2.974  0.00  0.00     0.051 C 
HETATM   25  C   UNK N   1      24.418  15.464   2.829  0.00  0.00     0.045 A 
HETATM   26  C   UNK N   1      23.193  14.828   2.799  0.00  0.00    -0.002 A 
HETATM   27  C   UNK N   1      29.267  17.568   4.054  0.00  0.00     0.060 C 
HETATM   28  C   UNK N   1      27.946  17.759   3.962  0.00  0.00     0.041 A 
HETATM   29  C   UNK N   1      27.216  18.926   4.458  0.00  0.00    -0.023 A 
HETATM   30  C   UNK N   1      24.580  16.730   3.217  0.00  0.00     0.060 C 
HETATM   31  C   UNK N   1      25.858  17.414   3.469  0.00  0.00     0.041 A 
HETATM   32  C   UNK N   1      22.449  12.416   2.297  0.00  0.00     0.051 C 
HETATM   33  C   UNK N   1      25.945  18.727   4.126  0.00  0.00    -0.027 A 
HETATM   34  C   UNK N   1      24.801  19.637   4.436  0.00  0.00     0.051 C 
HETATM   35  H   UNK N   1      28.437  15.218   2.748  0.00  0.00     0.166 HD
HETATM   36  H   UNK N   1      26.378  14.803   2.458  0.00  0.00     0.166 HD
ENDROOT
BRANCH  21  37
HETATM   37  C   UNK N   1      32.313  17.134   4.324  0.00  0.00     0.051 C 
BRANCH  37  38
HETATM   38  C   UNK N   1      32.626  16.828   5.790  0.00  0.00     0.116 C 
BRANCH  38  39
HETATM   39  C   UNK N   1      34.084  16.940   6.144  0.00  0.00     0.258 C 
HETATM   40  O   UNK N   1      34.873  16.122   5.701  0.00  0.00    -0.265 OA
BRANCH  39  41
HETATM   41  O   UNK N   1      34.545  17.958   6.911  0.00  0.00    -0.326 OA
HETATM   42  C   UNK N   1      33.898  18.391   8.045  0.00  0.00     0.213 C 
ENDBRANCH  39  41
ENDBRANCH  38  39
ENDBRANCH  37  38
ENDBRANCH  21  37
BRANCH  29  43
HETATM   43  C   UNK N   1      27.732  20.095   5.253  0.00  0.00     0.052 C 
BRANCH  43  44
HETATM   44  C   UNK N   1      27.419  19.989   6.738  0.00  0.00     0.115 C 
BRANCH  44  45
HETATM   45  C   UNK N   1      26.494  21.065   7.210  0.00  0.00     0.139 C 
HETATM   46  O   UNK N   1      26.347  22.066   6.529  0.00  0.00    -0.650 OA
BRANCH  45  47
HETATM   47  O   UNK N   1      25.822  20.943   8.372  0.00  0.00    -0.776 OA
HETATM   48  H   UNK N   1      25.376  21.510   8.971  0.00  0.00     0.167 HD
ENDBRANCH  45  47
ENDBRANCH  44  45
ENDBRANCH  43  44
ENDBRANCH  29  43
BRANCH   8  49
HETATM   49  C   UNK N   1      31.106  10.997  -0.018  0.00  0.00     0.268 C 
HETATM   50  O   UNK N   1      31.960  10.450   0.667  0.00  0.00    -0.264 OA
BRANCH  49  51
HETATM   51  O   UNK N   1      31.455  11.913  -0.955  0.00  0.00    -0.326 OA
HETATM   52  C   UNK N   1      32.013  11.557  -2.161  0.00  0.00     0.213 C 
ENDBRANCH  49  51
ENDBRANCH   8  49
BRANCH  12  53
HETATM   53  C   UNK N   1      30.322   8.029  -0.357  0.00  0.00     0.289 C 
HETATM   54  O   UNK N   1      30.955   7.485   0.533  0.00  0.00    -0.260 OA
BRANCH  53  55
HETATM   55  O   UNK N   1      30.569   7.629  -1.636  0.00  0.00    -0.323 OA
HETATM   56  C   UNK N   1      30.332   8.362  -2.775  0.00  0.00     0.213 C 
ENDBRANCH  53  55
ENDBRANCH  12  53
BRANCH  26  57
HETATM   57  C   UNK N   1      21.907  15.457   3.183  0.00  0.00     0.004 C 
HETATM   58  C   UNK N   1      21.356  15.295   4.384  0.00  0.00     0.012 C 
ENDBRANCH  26  57
TORSDOF 13
ENDMDL
MODEL 7
REMARK VINA RESULT:      -7.4      5.232      9.167
REMARK  13 active torsions:
REMARK  status: ('A' for Active; 'I' for Inactive)
REMARK    1  A    between atoms: O_1  and  C_24 
REMARK    2  A    between atoms: O_3  and  C_28 
REMARK    3  A    between atoms: O_5  and  C_51 
REMARK    4  A    between atoms: O_7  and  C_54 
REMARK    5  A    between atoms: C_16  and  C_24 
REMARK    6  A    between atoms: C_20  and  C_28 
REMARK    7  A    between atoms: C_31  and  C_34 
REMARK    8  A    between atoms: C_34  and  C_42 
REMARK    9  A    between atoms: C_37  and  C_49 
REMARK   10  A    between atoms: C_41  and  C_47 
REMARK   11  A    between atoms: C_42  and  C_51 
REMARK   12  A    between atoms: C_47  and  C_52 
REMARK   13  A    between atoms: C_52  and  C_54 
ROOT
HETATM    1  N   UNK N   1      30.629  13.112   2.097  0.00  0.00    -0.358 N 
ATOM      2  HN  UNK N   1      30.583  13.758   2.885  1.00  0.00     0.166 HD
HETATM    3  N   UNK N   1      32.634  14.312   3.905  0.00  0.00    -0.355 N 
HETATM    4  N   UNK N   1      28.573  14.414   3.625  0.00  0.00    -0.355 N 
HETATM    5  N   UNK N   1      30.555  15.608   5.385  0.00  0.00    -0.355 N 
ATOM      6  HN  UNK N   1      30.598  15.051   4.531  1.00  0.00     0.166 HD
HETATM    7  C   UNK N   1      31.548  11.626   0.419  0.00  0.00     0.045 A 
HETATM    8  C   UNK N   1      32.019  11.888  -1.019  0.00  0.00     0.143 C 
HETATM    9  C   UNK N   1      30.059  11.728   0.403  0.00  0.00    -0.016 A 
HETATM   10  C   UNK N   1      31.820  12.629   1.495  0.00  0.00     0.026 A 
HETATM   11  C   UNK N   1      31.984  10.239   0.912  0.00  0.00     0.028 C 
HETATM   12  C   UNK N   1      31.411  10.758  -1.888  0.00  0.00     0.032 C 
HETATM   13  C   UNK N   1      29.620  12.606   1.490  0.00  0.00     0.042 A 
HETATM   14  C   UNK N   1      29.337  11.143  -0.568  0.00  0.00     0.011 C 
HETATM   15  C   UNK N   1      30.098  10.456  -1.661  0.00  0.00     0.015 C 
HETATM   16  C   UNK N   1      33.065  12.857   1.924  0.00  0.00     0.056 C 
HETATM   17  C   UNK N   1      28.206  12.834   1.869  0.00  0.00     0.060 C 
HETATM   18  C   UNK N   1      33.466  13.639   3.088  0.00  0.00     0.041 A 
HETATM   19  C   UNK N   1      34.760  13.683   3.561  0.00  0.00    -0.027 A 
HETATM   20  C   UNK N   1      27.778  13.647   2.849  0.00  0.00     0.041 A 
HETATM   21  C   UNK N   1      34.727  14.414   4.723  0.00  0.00    -0.023 A 
HETATM   22  C   UNK N   1      33.407  14.789   4.905  0.00  0.00     0.041 A 
HETATM   23  C   UNK N   1      26.450  13.787   3.220  0.00  0.00    -0.023 A 
HETATM   24  C   UNK N   1      35.943  13.013   2.946  0.00  0.00     0.051 C 
HETATM   25  C   UNK N   1      27.744  15.061   4.481  0.00  0.00     0.045 A 
HETATM   26  C   UNK N   1      26.431  14.694   4.262  0.00  0.00    -0.002 A 
HETATM   27  C   UNK N   1      32.913  15.561   6.050  0.00  0.00     0.060 C 
HETATM   28  C   UNK N   1      31.638  15.925   6.235  0.00  0.00     0.041 A 
HETATM   29  C   UNK N   1      31.128  16.703   7.365  0.00  0.00    -0.023 A 
HETATM   30  C   UNK N   1      28.124  15.876   5.466  0.00  0.00     0.060 C 
HETATM   31  C   UNK N   1      29.506  16.153   5.890  0.00  0.00     0.041 A 
HETATM   32  C   UNK N   1      25.284  13.061   2.636  0.00  0.00     0.051 C 
HETATM   33  C   UNK N   1      29.831  16.869   7.133  0.00  0.00    -0.027 A 
HETATM   34  C   UNK N   1      28.863  17.585   8.019  0.00  0.00     0.051 C 
HETATM   35  H   UNK N   1      31.663  14.431   3.797  0.00  0.00     0.166 HD
HETATM   36  H   UNK N   1      29.554  14.488   3.580  0.00  0.00     0.166 HD
ENDROOT
BRANCH  21  37
HETATM   37  C   UNK N   1      35.855  14.698   5.676  0.00  0.00     0.051 C 
BRANCH  37  38
HETATM   38  C   UNK N   1      36.113  13.640   6.750  0.00  0.00     0.116 C 
BRANCH  38  39
HETATM   39  C   UNK N   1      36.167  14.186   8.151  0.00  0.00     0.258 C 
HETATM   40  O   UNK N   1      37.197  14.082   8.796  0.00  0.00    -0.265 OA
BRANCH  39  41
HETATM   41  O   UNK N   1      35.106  14.832   8.695  0.00  0.00    -0.326 OA
HETATM   42  C   UNK N   1      34.083  14.176   9.339  0.00  0.00     0.213 C 
ENDBRANCH  39  41
ENDBRANCH  38  39
ENDBRANCH  37  38
ENDBRANCH  21  37
BRANCH  29  43
HETATM   43  C   UNK N   1      31.858  17.173   8.594  0.00  0.00     0.052 C 
BRANCH  43  44
HETATM   44  C   UNK N   1      32.686  18.425   8.351  0.00  0.00     0.115 C 
BRANCH  44  45
HETATM   45  C   UNK N   1      34.150  18.136   8.247  0.00  0.00     0.139 C 
HETATM   46  O   UNK N   1      34.705  18.246   7.168  0.00  0.00    -0.650 OA
BRANCH  45  47
HETATM   47  O   UNK N   1      34.862  17.760   9.329  0.00  0.00    -0.776 OA
HETATM   48  H   UNK N   1      35.761  17.600   9.538  0.00  0.00     0.167 HD
ENDBRANCH  45  47
ENDBRANCH  44  45
ENDBRANCH  43  44
ENDBRANCH  29  43
BRANCH   8  49
HETATM   49  C   UNK N   1      33.501  12.147  -1.101  0.00  0.00     0.268 C 
HETATM   50  O   UNK N   1      33.893  13.224  -1.529  0.00  0.00    -0.264 OA
BRANCH  49  51
HETATM   51  O   UNK N   1      34.381  11.223  -0.643  0.00  0.00    -0.326 OA
HETATM   52  C   UNK N   1      35.742  11.412  -0.703  0.00  0.00     0.213 C 
ENDBRANCH  49  51
ENDBRANCH   8  49
BRANCH  12  53
HETATM   53  C   UNK N   1      32.230   9.969  -2.884  0.00  0.00     0.289 C 
HETATM   54  O   UNK N   1      32.231  10.318  -4.052  0.00  0.00    -0.260 OA
BRANCH  53  55
HETATM   55  O   UNK N   1      32.992   8.889  -2.551  0.00  0.00    -0.323 OA
HETATM   56  C   UNK N   1      34.256   8.616  -3.016  0.00  0.00     0.213 C 
ENDBRANCH  53  55
ENDBRANCH  12  53
BRANCH  26  57
HETATM   57  C   UNK N   1      25.280  15.154   5.075  0.00  0.00     0.004 C 
HETATM   58  C   UNK N   1      24.795  14.453   6.098  0.00  0.00     0.012 C 
ENDBRANCH  26  57
TORSDOF 13
ENDMDL
MODEL 8
REMARK VINA RESULT:      -7.0      3.215     10.930
REMARK  13 active torsions:
REMARK  status: ('A' for Active; 'I' for Inactive)
REMARK    1  A    between atoms: O_1  and  C_24 
REMARK    2  A    between atoms: O_3  and  C_28 
REMARK    3  A    between atoms: O_5  and  C_51 
REMARK    4  A    between atoms: O_7  and  C_54 
REMARK    5  A    between atoms: C_16  and  C_24 
REMARK    6  A    between atoms: C_20  and  C_28 
REMARK    7  A    between atoms: C_31  and  C_34 
REMARK    8  A    between atoms: C_34  and  C_42 
REMARK    9  A    between atoms: C_37  and  C_49 
REMARK   10  A    between atoms: C_41  and  C_47 
REMARK   11  A    between atoms: C_42  and  C_51 
REMARK   12  A    between atoms: C_47  and  C_52 
REMARK   13  A    between atoms: C_52  and  C_54 
ROOT
HETATM    1  N   UNK N   1      29.780  15.429   4.395  0.00  0.00    -0.358 N 
ATOM      2  HN  UNK N   1      28.860  15.197   4.021  1.00  0.00     0.166 HD
HETATM    3  N   UNK N   1      28.642  13.079   3.011  0.00  0.00    -0.355 N 
HETATM    4  N   UNK N   1      27.256  16.761   4.060  0.00  0.00    -0.355 N 
HETATM    5  N   UNK N   1      26.139  14.436   2.720  0.00  0.00    -0.355 N 
ATOM      6  HN  UNK N   1      27.020  14.635   3.193  1.00  0.00     0.166 HD
HETATM    7  C   UNK N   1      32.120  15.213   4.986  0.00  0.00     0.045 A 
HETATM    8  C   UNK N   1      32.799  14.702   6.264  0.00  0.00     0.143 C 
HETATM    9  C   UNK N   1      31.516  16.536   5.326  0.00  0.00    -0.016 A 
HETATM   10  C   UNK N   1      30.886  14.542   4.469  0.00  0.00     0.026 A 
HETATM   11  C   UNK N   1      33.123  15.363   3.834  0.00  0.00     0.028 C 
HETATM   12  C   UNK N   1      33.909  15.727   6.606  0.00  0.00     0.032 C 
HETATM   13  C   UNK N   1      30.124  16.566   4.874  0.00  0.00     0.042 A 
HETATM   14  C   UNK N   1      32.207  17.449   6.030  0.00  0.00     0.011 C 
HETATM   15  C   UNK N   1      33.567  17.047   6.516  0.00  0.00     0.015 C 
HETATM   16  C   UNK N   1      30.934  13.303   3.970  0.00  0.00     0.056 C 
HETATM   17  C   UNK N   1      29.251  17.762   4.917  0.00  0.00     0.060 C 
HETATM   18  C   UNK N   1      29.878  12.602   3.250  0.00  0.00     0.041 A 
HETATM   19  C   UNK N   1      30.068  11.391   2.619  0.00  0.00    -0.027 A 
HETATM   20  C   UNK N   1      27.967  17.811   4.525  0.00  0.00     0.041 A 
HETATM   21  C   UNK N   1      28.897  11.108   1.958  0.00  0.00    -0.023 A 
HETATM   22  C   UNK N   1      28.040  12.162   2.222  0.00  0.00     0.041 A 
HETATM   23  C   UNK N   1      27.198  18.964   4.518  0.00  0.00    -0.023 A 
HETATM   24  C   UNK N   1      31.324  10.588   2.619  0.00  0.00     0.051 C 
HETATM   25  C   UNK N   1      26.022  17.246   3.775  0.00  0.00     0.045 A 
HETATM   26  C   UNK N   1      25.954  18.599   4.040  0.00  0.00    -0.002 A 
HETATM   27  C   UNK N   1      26.682  12.284   1.681  0.00  0.00     0.060 C 
HETATM   28  C   UNK N   1      25.849  13.302   1.929  0.00  0.00     0.041 A 
HETATM   29  C   UNK N   1      24.489  13.437   1.407  0.00  0.00    -0.023 A 
HETATM   30  C   UNK N   1      25.021  16.552   3.230  0.00  0.00     0.060 C 
HETATM   31  C   UNK N   1      25.082  15.169   2.733  0.00  0.00     0.041 A 
HETATM   32  C   UNK N   1      27.648  20.333   4.904  0.00  0.00     0.051 C 
HETATM   33  C   UNK N   1      24.011  14.562   1.928  0.00  0.00    -0.027 A 
HETATM   34  C   UNK N   1      22.659  15.144   1.674  0.00  0.00     0.051 C 
HETATM   35  H   UNK N   1      28.256  13.922   3.342  0.00  0.00     0.166 HD
HETATM   36  H   UNK N   1      27.569  15.834   3.951  0.00  0.00     0.166 HD
ENDROOT
BRANCH  21  37
HETATM   37  C   UNK N   1      28.598   9.944   1.054  0.00  0.00     0.051 C 
BRANCH  37  38
HETATM   38  C   UNK N   1      28.938  10.134  -0.426  0.00  0.00     0.116 C 
BRANCH  38  39
HETATM   39  C   UNK N   1      30.325   9.688  -0.800  0.00  0.00     0.258 C 
HETATM   40  O   UNK N   1      30.535   8.507  -1.023  0.00  0.00    -0.265 OA
BRANCH  39  41
HETATM   41  O   UNK N   1      31.337  10.580  -0.940  0.00  0.00    -0.326 OA
HETATM   42  C   UNK N   1      31.128  11.937  -1.030  0.00  0.00     0.213 C 
ENDBRANCH  39  41
ENDBRANCH  38  39
ENDBRANCH  37  38
ENDBRANCH  21  37
BRANCH  29  43
HETATM   43  C   UNK N   1      23.763  12.558   0.424  0.00  0.00     0.052 C 
BRANCH  43  44
HETATM   44  C   UNK N   1      23.006  11.420   1.091  0.00  0.00     0.115 C 
BRANCH  44  45
HETATM   45  C   UNK N   1      23.619  10.083   0.819  0.00  0.00     0.139 C 
HETATM   46  O   UNK N   1      24.573  10.007   0.062  0.00  0.00    -0.650 OA
BRANCH  45  47
HETATM   47  O   UNK N   1      23.136   8.966   1.398  0.00  0.00    -0.776 OA
HETATM   48  H   UNK N   1      22.342   8.468   1.374  0.00  0.00     0.167 HD
ENDBRANCH  45  47
ENDBRANCH  44  45
ENDBRANCH  43  44
ENDBRANCH  29  43
BRANCH   8  49
HETATM   49  C   UNK N   1      33.163  13.243   6.178  0.00  0.00     0.268 C 
HETATM   50  O   UNK N   1      33.940  12.873   5.308  0.00  0.00    -0.264 OA
BRANCH  49  51
HETATM   51  O   UNK N   1      32.688  12.366   7.097  0.00  0.00    -0.326 OA
HETATM   52  C   UNK N   1      33.514  11.675   7.952  0.00  0.00     0.213 C 
ENDBRANCH  49  51
ENDBRANCH   8  49
BRANCH  12  53
HETATM   53  C   UNK N   1      35.321  15.312   6.949  0.00  0.00     0.289 C 
HETATM   54  O   UNK N   1      36.157  15.277   6.062  0.00  0.00    -0.260 OA
BRANCH  53  55
HETATM   55  O   UNK N   1      35.730  14.988   8.209  0.00  0.00    -0.323 OA
HETATM   56  C   UNK N   1      34.920  14.827   9.307  0.00  0.00     0.213 C 
ENDBRANCH  53  55
ENDBRANCH  12  53
BRANCH  26  57
HETATM   57  C   UNK N   1      24.775  19.453   3.765  0.00  0.00     0.004 C 
HETATM   58  C   UNK N   1      24.739  20.330   2.764  0.00  0.00     0.012 C 
ENDBRANCH  26  57
TORSDOF 13
ENDMDL
MODEL 9
REMARK VINA RESULT:      -6.8      7.282     13.331
REMARK  13 active torsions:
REMARK  status: ('A' for Active; 'I' for Inactive)
REMARK    1  A    between atoms: O_1  and  C_24 
REMARK    2  A    between atoms: O_3  and  C_28 
REMARK    3  A    between atoms: O_5  and  C_51 
REMARK    4  A    between atoms: O_7  and  C_54 
REMARK    5  A    between atoms: C_16  and  C_24 
REMARK    6  A    between atoms: C_20  and  C_28 
REMARK    7  A    between atoms: C_31  and  C_34 
REMARK    8  A    between atoms: C_34  and  C_42 
REMARK    9  A    between atoms: C_37  and  C_49 
REMARK   10  A    between atoms: C_41  and  C_47 
REMARK   11  A    between atoms: C_42  and  C_51 
REMARK   12  A    between atoms: C_47  and  C_52 
REMARK   13  A    between atoms: C_52  and  C_54 
ROOT
HETATM    1  N   UNK N   1      34.058  12.988   9.304  0.00  0.00    -0.358 N 
ATOM      2  HN  UNK N   1      33.539  12.810   8.445  1.00  0.00     0.166 HD
HETATM    3  N   UNK N   1      33.349  10.556   7.783  0.00  0.00    -0.355 N 
HETATM    4  N   UNK N   1      32.811  14.556   7.244  0.00  0.00    -0.355 N 
HETATM    5  N   UNK N   1      32.098  12.155   5.766  0.00  0.00    -0.355 N 
ATOM      6  HN  UNK N   1      32.519  12.337   6.678  1.00  0.00     0.166 HD
HETATM    7  C   UNK N   1      35.354  12.579  11.310  0.00  0.00     0.045 A 
HETATM    8  C   UNK N   1      34.923  12.346  12.765  0.00  0.00     0.143 C 
HETATM    9  C   UNK N   1      35.105  14.022  11.020  0.00  0.00    -0.016 A 
HETATM   10  C   UNK N   1      34.557  11.994  10.186  0.00  0.00     0.026 A 
HETATM   11  C   UNK N   1      36.835  12.238  11.099  0.00  0.00     0.028 C 
HETATM   12  C   UNK N   1      35.842  13.237  13.638  0.00  0.00     0.032 C 
HETATM   13  C   UNK N   1      34.365  14.145   9.762  0.00  0.00     0.042 A 
HETATM   14  C   UNK N   1      35.462  14.975  11.898  0.00  0.00     0.011 C 
HETATM   15  C   UNK N   1      36.045  14.515  13.200  0.00  0.00     0.015 C 
HETATM   16  C   UNK N   1      34.520  10.674   9.983  0.00  0.00     0.056 C 
HETATM   17  C   UNK N   1      34.060  15.428   9.086  0.00  0.00     0.060 C 
HETATM   18  C   UNK N   1      33.968   9.975   8.829  0.00  0.00     0.041 A 
HETATM   19  C   UNK N   1      34.123   8.622   8.618  0.00  0.00    -0.027 A 
HETATM   20  C   UNK N   1      33.369  15.567   7.943  0.00  0.00     0.041 A 
HETATM   21  C   UNK N   1      33.578   8.354   7.386  0.00  0.00    -0.023 A 
HETATM   22  C   UNK N   1      33.108   9.562   6.901  0.00  0.00     0.041 A 
HETATM   23  C   UNK N   1      33.158  16.779   7.303  0.00  0.00    -0.023 A 
HETATM   24  C   UNK N   1      34.803   7.663   9.535  0.00  0.00     0.051 C 
HETATM   25  C   UNK N   1      32.224  15.130   6.165  0.00  0.00     0.045 A 
HETATM   26  C   UNK N   1      32.423  16.496   6.168  0.00  0.00    -0.002 A 
HETATM   27  C   UNK N   1      32.475   9.741   5.590  0.00  0.00     0.060 C 
HETATM   28  C   UNK N   1      32.022  10.906   5.112  0.00  0.00     0.041 A 
HETATM   29  C   UNK N   1      31.379  11.103   3.812  0.00  0.00    -0.023 A 
HETATM   30  C   UNK N   1      31.609  14.479   5.176  0.00  0.00     0.060 C 
HETATM   31  C   UNK N   1      31.536  13.020   4.999  0.00  0.00     0.041 A 
HETATM   32  C   UNK N   1      33.669  18.112   7.737  0.00  0.00     0.051 C 
HETATM   33  C   UNK N   1      31.053  12.390   3.760  0.00  0.00    -0.027 A 
HETATM   34  C   UNK N   1      30.390  13.084   2.616  0.00  0.00     0.051 C 
HETATM   35  H   UNK N   1      33.121  11.508   7.682  0.00  0.00     0.166 HD
HETATM   36  H   UNK N   1      32.826  13.598   7.471  0.00  0.00     0.166 HD
ENDROOT
BRANCH  21  37
HETATM   37  C   UNK N   1      33.554   7.046   6.644  0.00  0.00     0.051 C 
BRANCH  37  38
HETATM   38  C   UNK N   1      32.541   6.010   7.136  0.00  0.00     0.116 C 
BRANCH  38  39
HETATM   39  C   UNK N   1      31.323   6.604   7.791  0.00  0.00     0.258 C 
HETATM   40  O   UNK N   1      30.428   7.055   7.096  0.00  0.00    -0.265 OA
BRANCH  39  41
HETATM   41  O   UNK N   1      31.182   6.608   9.140  0.00  0.00    -0.326 OA
HETATM   42  C   UNK N   1      30.735   7.705   9.840  0.00  0.00     0.213 C 
ENDBRANCH  39  41
ENDBRANCH  38  39
ENDBRANCH  37  38
ENDBRANCH  21  37
BRANCH  29  43
HETATM   43  C   UNK N   1      31.176  10.110   2.699  0.00  0.00     0.052 C 
BRANCH  43  44
HETATM   44  C   UNK N   1      32.414   9.924   1.836  0.00  0.00     0.115 C 
BRANCH  44  45
HETATM   45  C   UNK N   1      32.381  10.760   0.595  0.00  0.00     0.139 C 
HETATM   46  O   UNK N   1      31.733  10.378  -0.365  0.00  0.00    -0.650 OA
BRANCH  45  47
HETATM   47  O   UNK N   1      33.054  11.926   0.526  0.00  0.00    -0.776 OA
HETATM   48  H   UNK N   1      33.948  12.206   0.540  0.00  0.00     0.167 HD
ENDBRANCH  45  47
ENDBRANCH  44  45
ENDBRANCH  43  44
ENDBRANCH  29  43
BRANCH   8  49
HETATM   49  C   UNK N   1      34.800  10.883  13.102  0.00  0.00     0.268 C 
HETATM   50  O   UNK N   1      33.704  10.434  13.412  0.00  0.00    -0.264 OA
BRANCH  49  51
HETATM   51  O   UNK N   1      35.876  10.066  12.996  0.00  0.00    -0.326 OA
HETATM   52  C   UNK N   1      36.048   8.967  13.805  0.00  0.00     0.213 C 
ENDBRANCH  49  51
ENDBRANCH   8  49
BRANCH  12  53
HETATM   53  C   UNK N   1      36.545  12.716  14.870  0.00  0.00     0.289 C 
HETATM   54  O   UNK N   1      37.641  12.196  14.747  0.00  0.00    -0.260 OA
BRANCH  53  55
HETATM   55  O   UNK N   1      36.034  12.810  16.131  0.00  0.00    -0.323 OA
HETATM   56  C   UNK N   1      34.718  13.037  16.456  0.00  0.00     0.213 C 
ENDBRANCH  53  55
ENDBRANCH  12  53
BRANCH  26  57
HETATM   57  C   UNK N   1      31.983  17.415   5.092  0.00  0.00     0.004 C 
HETATM   58  C   UNK N   1      32.708  17.645   4.000  0.00  0.00     0.012 C 
ENDBRANCH  26  57
TORSDOF 13
ENDMDL
