REMARK  0 active torsions:
REMARK  status: ('A' for Active; 'I' for Inactive)
ROOT
HETATM    1  C   UNK N   1       3.097  -1.380  -0.060  0.00  0.00     0.037 C 
HETATM    2  C   UNK N   1       2.732   1.492   0.520  0.00  0.00     0.037 C 
HETATM    3  C   UNK N   1       4.108   0.908   0.208  0.00  0.00     0.002 C 
HETATM    4  C   UNK N   1       4.172  -0.555   0.645  0.00  0.00     0.002 C 
HETATM    5  C   UNK N   1       1.674   0.693  -0.237  0.00  0.00     0.250 C 
HETATM    6  C   UNK N   1       1.698  -0.788   0.169  0.00  0.00     0.250 C 
HETATM    7  H   UNK N   1       0.344  -2.348  -0.080  0.00  0.00     0.313 HD
HETATM    8  N   UNK N   1       0.698  -1.520  -0.612  0.00  0.00     0.085 N 
HETATM    9  H   UNK N   1       1.094  -1.812  -1.534  0.00  0.00     0.313 HD
HETATM   10  H   UNK N   1       0.074   1.291   0.952  0.00  0.00     0.313 HD
HETATM   11  N   UNK N   1       0.325   1.225  -0.062  0.00  0.00     0.085 N 
HETATM   12  H   UNK N   1       0.252   2.154  -0.536  0.00  0.00     0.313 HD
HETATM   13  C   UNK N   1      -3.232   0.917  -0.383  0.00  0.00     0.390 A 
HETATM   14  C   UNK N   1      -2.951  -0.061   0.685  0.00  0.00     0.390 A 
HETATM   15 Pt   UNK N   1      -0.799  -0.191  -1.018  0.00  0.00     0.000 Pt
HETATM   16  O   UNK N   1      -2.267   1.060  -1.313  0.00  0.00    -0.139 OA
HETATM   17  O   UNK N   1      -1.748  -0.669   0.620  0.00  0.00    -0.139 OA
HETATM   18  O   UNK N   1      -3.759  -0.332   1.558  0.00  0.00    -0.251 OA
HETATM   19  O   UNK N   1      -4.279   1.542  -0.448  0.00  0.00    -0.251 OA
ENDROOT
TORSDOF 0
