MODEL 1
REMARK VINA RESULT:      -4.4      0.000      0.000
REMARK  6 active torsions:
REMARK  status: ('A' for Active; 'I' for Inactive)
REMARK       I    between atoms: N_1  and  C_2 
REMARK    1  A    between atoms: C_7  and  C_2 
REMARK    2  A    between atoms: O_4  and  C_3 
REMARK    3  A    between atoms: C_5  and  C_3 
REMARK    4  A    between atoms: C_5  and  N_9 
REMARK    5  A    between atoms: C_6  and  C_5 
REMARK    6  A    between atoms: C_7  and  C_6 
ROOT
HETATM    1  C   UNK N   1      20.628  19.423   2.114  0.00  0.00     0.173 C 
ENDROOT
BRANCH   1   2
HETATM    2  C   UNK N   1      20.802  20.558   1.144  0.00  0.00     0.163 C 
HETATM    3  O   UNK N   1      20.869  20.330  -0.052  0.00  0.00    -0.648 OA
BRANCH   2   4
HETATM    4  O   UNK N   1      20.865  21.833   1.582  0.00  0.00    -0.775 OA
HETATM    5  H   UNK N   1      20.377  22.148   2.318  0.00  0.00     0.167 HD
ENDBRANCH   2   4
ENDBRANCH   1   2
BRANCH   1   6
HETATM    6  N   UNK N   1      19.217  19.123   2.311  0.00  0.00    -0.418 N 
HETATM    7  H   UNK N   1      18.500  19.495   1.688  0.00  0.00     0.150 HD
HETATM    8  H   UNK N   1      18.940  18.527   3.090  0.00  0.00     0.150 HD
ENDBRANCH   1   6
BRANCH   1   9
HETATM    9  C   UNK N   1      21.281  19.769   3.442  0.00  0.00     0.044 C 
BRANCH   9  10
HETATM   10  C   UNK N   1      22.675  19.162   3.543  0.00  0.00     0.105 C 
BRANCH  10  11
HETATM   11  C   UNK N   1      23.756  20.168   3.262  0.00  0.00     0.215 C 
HETATM   12  N   UNK N   1      25.045  19.780   3.295  0.00  0.00    -0.370 N 
HETATM   13  H   UNK N   1      25.759  20.381   2.982  0.00  0.00     0.159 HD
HETATM   14  H   UNK N   1      25.277  18.885   3.637  0.00  0.00     0.159 HD
HETATM   15  O   UNK N   1      23.482  21.328   2.997  0.00  0.00    -0.274 OA
ENDBRANCH  10  11
ENDBRANCH   9  10
ENDBRANCH   1   9
TORSDOF 6
ENDMDL
MODEL 2
REMARK VINA RESULT:      -4.4      2.616      4.136
REMARK  6 active torsions:
REMARK  status: ('A' for Active; 'I' for Inactive)
REMARK       I    between atoms: N_1  and  C_2 
REMARK    1  A    between atoms: C_7  and  C_2 
REMARK    2  A    between atoms: O_4  and  C_3 
REMARK    3  A    between atoms: C_5  and  C_3 
REMARK    4  A    between atoms: C_5  and  N_9 
REMARK    5  A    between atoms: C_6  and  C_5 
REMARK    6  A    between atoms: C_7  and  C_6 
ROOT
HETATM    1  C   UNK N   1      20.877  19.851   1.660  0.00  0.00     0.173 C 
ENDROOT
BRANCH   1   2
HETATM    2  C   UNK N   1      21.210  20.801   2.775  0.00  0.00     0.163 C 
HETATM    3  O   UNK N   1      22.286  21.373   2.784  0.00  0.00    -0.648 OA
BRANCH   2   4
HETATM    4  O   UNK N   1      20.318  21.046   3.759  0.00  0.00    -0.775 OA
HETATM    5  H   UNK N   1      19.492  21.464   3.611  0.00  0.00     0.167 HD
ENDBRANCH   2   4
ENDBRANCH   1   2
BRANCH   1   6
HETATM    6  N   UNK N   1      20.413  20.573   0.485  0.00  0.00    -0.418 N 
HETATM    7  H   UNK N   1      20.014  21.509   0.556  0.00  0.00     0.150 HD
HETATM    8  H   UNK N   1      20.490  20.133  -0.432  0.00  0.00     0.150 HD
ENDBRANCH   1   6
BRANCH   1   9
HETATM    9  C   UNK N   1      19.817  18.861   2.119  0.00  0.00     0.044 C 
BRANCH   9  10
HETATM   10  C   UNK N   1      20.380  17.447   2.190  0.00  0.00     0.105 C 
BRANCH  10  11
HETATM   11  C   UNK N   1      20.084  16.653   0.949  0.00  0.00     0.215 C 
HETATM   12  N   UNK N   1      18.925  16.858   0.294  0.00  0.00    -0.370 N 
HETATM   13  H   UNK N   1      18.769  16.454  -0.590  0.00  0.00     0.159 HD
HETATM   14  H   UNK N   1      18.225  17.417   0.704  0.00  0.00     0.159 HD
HETATM   15  O   UNK N   1      20.881  15.832   0.523  0.00  0.00    -0.274 OA
ENDBRANCH  10  11
ENDBRANCH   9  10
ENDBRANCH   1   9
TORSDOF 6
ENDMDL
MODEL 3
REMARK VINA RESULT:      -4.3      2.538      3.431
REMARK  6 active torsions:
REMARK  status: ('A' for Active; 'I' for Inactive)
REMARK       I    between atoms: N_1  and  C_2 
REMARK    1  A    between atoms: C_7  and  C_2 
REMARK    2  A    between atoms: O_4  and  C_3 
REMARK    3  A    between atoms: C_5  and  C_3 
REMARK    4  A    between atoms: C_5  and  N_9 
REMARK    5  A    between atoms: C_6  and  C_5 
REMARK    6  A    between atoms: C_7  and  C_6 
ROOT
HETATM    1  C   UNK N   1      20.244  17.135   2.356  0.00  0.00     0.173 C 
ENDROOT
BRANCH   1   2
HETATM    2  C   UNK N   1      20.445  16.827   0.899  0.00  0.00     0.163 C 
HETATM    3  O   UNK N   1      20.758  15.701   0.554  0.00  0.00    -0.648 OA
BRANCH   2   4
HETATM    4  O   UNK N   1      20.260  17.782  -0.037  0.00  0.00    -0.775 OA
HETATM    5  H   UNK N   1      19.434  18.200  -0.189  0.00  0.00     0.167 HD
ENDBRANCH   2   4
ENDBRANCH   1   2
BRANCH   1   6
HETATM    6  N   UNK N   1      19.451  16.099   3.000  0.00  0.00    -0.418 N 
HETATM    7  H   UNK N   1      18.714  15.602   2.499  0.00  0.00     0.150 HD
HETATM    8  H   UNK N   1      19.637  15.863   3.974  0.00  0.00     0.150 HD
ENDBRANCH   1   6
BRANCH   1   9
HETATM    9  C   UNK N   1      19.567  18.487   2.514  0.00  0.00     0.044 C 
BRANCH   9  10
HETATM   10  C   UNK N   1      20.482  19.481   3.219  0.00  0.00     0.105 C 
BRANCH  10  11
HETATM   11  C   UNK N   1      21.041  20.509   2.275  0.00  0.00     0.215 C 
HETATM   12  N   UNK N   1      20.587  20.559   1.008  0.00  0.00    -0.370 N 
HETATM   13  H   UNK N   1      20.835  21.305   0.415  0.00  0.00     0.159 HD
HETATM   14  H   UNK N   1      20.003  19.842   0.670  0.00  0.00     0.159 HD
HETATM   15  O   UNK N   1      21.892  21.303   2.644  0.00  0.00    -0.274 OA
ENDBRANCH  10  11
ENDBRANCH   9  10
ENDBRANCH   1   9
TORSDOF 6
ENDMDL
MODEL 4
REMARK VINA RESULT:      -4.3      2.279      2.630
REMARK  6 active torsions:
REMARK  status: ('A' for Active; 'I' for Inactive)
REMARK       I    between atoms: N_1  and  C_2 
REMARK    1  A    between atoms: C_7  and  C_2 
REMARK    2  A    between atoms: O_4  and  C_3 
REMARK    3  A    between atoms: C_5  and  C_3 
REMARK    4  A    between atoms: C_5  and  N_9 
REMARK    5  A    between atoms: C_6  and  C_5 
REMARK    6  A    between atoms: C_7  and  C_6 
ROOT
HETATM    1  C   UNK N   1      20.464  19.157   2.296  0.00  0.00     0.173 C 
ENDROOT
BRANCH   1   2
HETATM    2  C   UNK N   1      20.867  20.275   1.375  0.00  0.00     0.163 C 
HETATM    3  O   UNK N   1      21.393  21.275   1.829  0.00  0.00    -0.648 OA
BRANCH   2   4
HETATM    4  O   UNK N   1      20.671  20.171   0.044  0.00  0.00    -0.775 OA
HETATM    5  H   UNK N   1      21.160  20.662  -0.588  0.00  0.00     0.167 HD
ENDBRANCH   2   4
ENDBRANCH   1   2
BRANCH   1   6
HETATM    6  N   UNK N   1      19.015  19.043   2.369  0.00  0.00    -0.418 N 
HETATM    7  H   UNK N   1      18.500  18.394   1.774  0.00  0.00     0.150 HD
HETATM    8  H   UNK N   1      18.502  19.625   3.031  0.00  0.00     0.150 HD
ENDBRANCH   1   6
BRANCH   1   9
HETATM    9  C   UNK N   1      21.041  19.392   3.683  0.00  0.00     0.044 C 
BRANCH   9  10
HETATM   10  C   UNK N   1      21.006  18.117   4.516  0.00  0.00     0.105 C 
BRANCH  10  11
HETATM   11  C   UNK N   1      21.811  18.240   5.780  0.00  0.00     0.215 C 
HETATM   12  N   UNK N   1      23.139  18.021   5.741  0.00  0.00    -0.370 N 
HETATM   13  H   UNK N   1      23.705  18.229   6.520  0.00  0.00     0.159 HD
HETATM   14  H   UNK N   1      23.549  17.649   4.927  0.00  0.00     0.159 HD
HETATM   15  O   UNK N   1      21.279  18.543   6.836  0.00  0.00    -0.274 OA
ENDBRANCH  10  11
ENDBRANCH   9  10
ENDBRANCH   1   9
TORSDOF 6
ENDMDL
MODEL 5
REMARK VINA RESULT:      -4.3     10.395     11.652
REMARK  6 active torsions:
REMARK  status: ('A' for Active; 'I' for Inactive)
REMARK       I    between atoms: N_1  and  C_2 
REMARK    1  A    between atoms: C_7  and  C_2 
REMARK    2  A    between atoms: O_4  and  C_3 
REMARK    3  A    between atoms: C_5  and  C_3 
REMARK    4  A    between atoms: C_5  and  N_9 
REMARK    5  A    between atoms: C_6  and  C_5 
REMARK    6  A    between atoms: C_7  and  C_6 
ROOT
HETATM    1  C   UNK N   1      22.973  11.606  10.744  0.00  0.00     0.173 C 
ENDROOT
BRANCH   1   2
HETATM    2  C   UNK N   1      23.951  12.041  11.800  0.00  0.00     0.163 C 
HETATM    3  O   UNK N   1      23.629  12.012  12.975  0.00  0.00    -0.648 OA
BRANCH   2   4
HETATM    4  O   UNK N   1      25.194  12.444  11.460  0.00  0.00    -0.775 OA
HETATM    5  H   UNK N   1      25.961  12.206  11.942  0.00  0.00     0.167 HD
ENDBRANCH   2   4
ENDBRANCH   1   2
BRANCH   1   6
HETATM    6  N   UNK N   1      23.594  11.614   9.428  0.00  0.00    -0.418 N 
HETATM    7  H   UNK N   1      23.397  10.887   8.740  0.00  0.00     0.150 HD
HETATM    8  H   UNK N   1      24.240  12.365   9.188  0.00  0.00     0.150 HD
ENDBRANCH   1   6
BRANCH   1   9
HETATM    9  C   UNK N   1      21.756  12.517  10.756  0.00  0.00     0.044 C 
BRANCH   9  10
HETATM   10  C   UNK N   1      21.936  13.686   9.795  0.00  0.00     0.105 C 
BRANCH  10  11
HETATM   11  C   UNK N   1      20.645  14.409   9.530  0.00  0.00     0.215 C 
HETATM   12  N   UNK N   1      20.675  15.625   8.953  0.00  0.00    -0.370 N 
HETATM   13  H   UNK N   1      19.844  16.056   8.645  0.00  0.00     0.159 HD
HETATM   14  H   UNK N   1      21.535  16.089   8.837  0.00  0.00     0.159 HD
HETATM   15  O   UNK N   1      19.571  13.906   9.824  0.00  0.00    -0.274 OA
ENDBRANCH  10  11
ENDBRANCH   9  10
ENDBRANCH   1   9
TORSDOF 6
ENDMDL
MODEL 6
REMARK VINA RESULT:      -4.2     10.660     12.925
REMARK  6 active torsions:
REMARK  status: ('A' for Active; 'I' for Inactive)
REMARK       I    between atoms: N_1  and  C_2 
REMARK    1  A    between atoms: C_7  and  C_2 
REMARK    2  A    between atoms: O_4  and  C_3 
REMARK    3  A    between atoms: C_5  and  C_3 
REMARK    4  A    between atoms: C_5  and  N_9 
REMARK    5  A    between atoms: C_6  and  C_5 
REMARK    6  A    between atoms: C_7  and  C_6 
ROOT
HETATM    1  C   UNK N   1      33.278  17.786   8.779  0.00  0.00     0.173 C 
ENDROOT
BRANCH   1   2
HETATM    2  C   UNK N   1      34.420  18.315   7.957  0.00  0.00     0.163 C 
HETATM    3  O   UNK N   1      34.550  17.958   6.799  0.00  0.00    -0.648 OA
BRANCH   2   4
HETATM    4  O   UNK N   1      35.293  19.200   8.483  0.00  0.00    -0.775 OA
HETATM    5  H   UNK N   1      35.778  19.039   9.268  0.00  0.00     0.167 HD
ENDBRANCH   2   4
ENDBRANCH   1   2
BRANCH   1   6
HETATM    6  N   UNK N   1      33.643  16.537   9.430  0.00  0.00    -0.418 N 
HETATM    7  H   UNK N   1      33.100  15.685   9.292  0.00  0.00     0.150 HD
HETATM    8  H   UNK N   1      34.462  16.513  10.037  0.00  0.00     0.150 HD
ENDBRANCH   1   6
BRANCH   1   9
HETATM    9  C   UNK N   1      32.055  17.582   7.900  0.00  0.00     0.044 C 
BRANCH   9  10
HETATM   10  C   UNK N   1      30.984  16.778   8.627  0.00  0.00     0.105 C 
BRANCH  10  11
HETATM   11  C   UNK N   1      29.794  17.619   8.996  0.00  0.00     0.215 C 
HETATM   12  N   UNK N   1      29.915  18.548   9.963  0.00  0.00    -0.370 N 
HETATM   13  H   UNK N   1      29.196  19.200  10.127  0.00  0.00     0.159 HD
HETATM   14  H   UNK N   1      30.732  18.576  10.514  0.00  0.00     0.159 HD
HETATM   15  O   UNK N   1      28.723  17.476   8.427  0.00  0.00    -0.274 OA
ENDBRANCH  10  11
ENDBRANCH   9  10
ENDBRANCH   1   9
TORSDOF 6
ENDMDL
MODEL 7
REMARK VINA RESULT:      -4.1     12.536     14.046
REMARK  6 active torsions:
REMARK  status: ('A' for Active; 'I' for Inactive)
REMARK       I    between atoms: N_1  and  C_2 
REMARK    1  A    between atoms: C_7  and  C_2 
REMARK    2  A    between atoms: O_4  and  C_3 
REMARK    3  A    between atoms: C_5  and  C_3 
REMARK    4  A    between atoms: C_5  and  N_9 
REMARK    5  A    between atoms: C_6  and  C_5 
REMARK    6  A    between atoms: C_7  and  C_6 
ROOT
HETATM    1  C   UNK N   1      34.133  17.196   9.060  0.00  0.00     0.173 C 
ENDROOT
BRANCH   1   2
HETATM    2  C   UNK N   1      34.624  18.254   8.111  0.00  0.00     0.163 C 
HETATM    3  O   UNK N   1      35.259  19.203   8.536  0.00  0.00    -0.648 OA
BRANCH   2   4
HETATM    4  O   UNK N   1      34.387  18.151   6.786  0.00  0.00    -0.775 OA
HETATM    5  H   UNK N   1      34.887  18.606   6.137  0.00  0.00     0.167 HD
ENDBRANCH   2   4
ENDBRANCH   1   2
BRANCH   1   6
HETATM    6  N   UNK N   1      34.897  17.217  10.299  0.00  0.00    -0.418 N 
HETATM    7  H   UNK N   1      35.912  17.116  10.302  0.00  0.00     0.150 HD
HETATM    8  H   UNK N   1      34.406  17.338  11.184  0.00  0.00     0.150 HD
ENDBRANCH   1   6
BRANCH   1   9
HETATM    9  C   UNK N   1      34.230  15.826   8.408  0.00  0.00     0.044 C 
BRANCH   9  10
HETATM   10  C   UNK N   1      32.856  15.180   8.280  0.00  0.00     0.105 C 
BRANCH  10  11
HETATM   11  C   UNK N   1      32.403  15.081   6.851  0.00  0.00     0.215 C 
HETATM   12  N   UNK N   1      31.538  14.112   6.497  0.00  0.00    -0.370 N 
HETATM   13  H   UNK N   1      31.123  14.110   5.604  0.00  0.00     0.159 HD
HETATM   14  H   UNK N   1      31.318  13.396   7.137  0.00  0.00     0.159 HD
HETATM   15  O   UNK N   1      32.803  15.870   6.009  0.00  0.00    -0.274 OA
ENDBRANCH  10  11
ENDBRANCH   9  10
ENDBRANCH   1   9
TORSDOF 6
ENDMDL
MODEL 8
REMARK VINA RESULT:      -4.1     13.747     15.061
REMARK  6 active torsions:
REMARK  status: ('A' for Active; 'I' for Inactive)
REMARK       I    between atoms: N_1  and  C_2 
REMARK    1  A    between atoms: C_7  and  C_2 
REMARK    2  A    between atoms: O_4  and  C_3 
REMARK    3  A    between atoms: C_5  and  C_3 
REMARK    4  A    between atoms: C_5  and  N_9 
REMARK    5  A    between atoms: C_6  and  C_5 
REMARK    6  A    between atoms: C_7  and  C_6 
ROOT
HETATM    1  C   UNK N   1      34.040  16.974   8.745  0.00  0.00     0.173 C 
ENDROOT
BRANCH   1   2
HETATM    2  C   UNK N   1      34.507  18.127   7.901  0.00  0.00     0.163 C 
HETATM    3  O   UNK N   1      35.042  19.087   8.428  0.00  0.00    -0.648 OA
BRANCH   2   4
HETATM    4  O   UNK N   1      34.361  18.101   6.560  0.00  0.00    -0.775 OA
HETATM    5  H   UNK N   1      33.796  18.684   6.092  0.00  0.00     0.167 HD
ENDBRANCH   2   4
ENDBRANCH   1   2
BRANCH   1   6
HETATM    6  N   UNK N   1      32.659  17.164   9.162  0.00  0.00    -0.418 N 
HETATM    7  H   UNK N   1      31.893  16.653   8.722  0.00  0.00     0.150 HD
HETATM    8  H   UNK N   1      32.452  17.823   9.912  0.00  0.00     0.150 HD
ENDBRANCH   1   6
BRANCH   1   9
HETATM    9  C   UNK N   1      34.939  16.822   9.961  0.00  0.00     0.044 C 
BRANCH   9  10
HETATM   10  C   UNK N   1      35.482  15.402  10.068  0.00  0.00     0.105 C 
BRANCH  10  11
HETATM   11  C   UNK N   1      34.538  14.485  10.794  0.00  0.00     0.215 C 
HETATM   12  N   UNK N   1      33.708  13.695  10.086  0.00  0.00    -0.370 N 
HETATM   13  H   UNK N   1      33.182  12.992  10.530  0.00  0.00     0.159 HD
HETATM   14  H   UNK N   1      33.625  13.823   9.113  0.00  0.00     0.159 HD
HETATM   15  O   UNK N   1      34.519  14.440  12.014  0.00  0.00    -0.274 OA
ENDBRANCH  10  11
ENDBRANCH   9  10
ENDBRANCH   1   9
TORSDOF 6
ENDMDL
MODEL 9
REMARK VINA RESULT:      -4.1     10.060     10.708
REMARK  6 active torsions:
REMARK  status: ('A' for Active; 'I' for Inactive)
REMARK       I    between atoms: N_1  and  C_2 
REMARK    1  A    between atoms: C_7  and  C_2 
REMARK    2  A    between atoms: O_4  and  C_3 
REMARK    3  A    between atoms: C_5  and  C_3 
REMARK    4  A    between atoms: C_5  and  N_9 
REMARK    5  A    between atoms: C_6  and  C_5 
REMARK    6  A    between atoms: C_7  and  C_6 
ROOT
HETATM    1  C   UNK N   1      21.718  13.436   9.359  0.00  0.00     0.173 C 
ENDROOT
BRANCH   1   2
HETATM    2  C   UNK N   1      20.607  14.449   9.364  0.00  0.00     0.163 C 
HETATM    3  O   UNK N   1      19.495  14.128   9.745  0.00  0.00    -0.648 OA
BRANCH   2   4
HETATM    4  O   UNK N   1      20.835  15.720   8.970  0.00  0.00    -0.775 OA
HETATM    5  H   UNK N   1      21.456  16.284   9.388  0.00  0.00     0.167 HD
ENDBRANCH   2   4
ENDBRANCH   1   2
BRANCH   1   6
HETATM    6  N   UNK N   1      21.559  12.499   8.257  0.00  0.00    -0.418 N 
HETATM    7  H   UNK N   1      21.315  12.815   7.318  0.00  0.00     0.150 HD
HETATM    8  H   UNK N   1      21.696  11.503   8.427  0.00  0.00     0.150 HD
ENDBRANCH   1   6
BRANCH   1   9
HETATM    9  C   UNK N   1      21.746  12.689  10.683  0.00  0.00     0.044 C 
BRANCH   9  10
HETATM   10  C   UNK N   1      22.857  11.646  10.702  0.00  0.00     0.105 C 
BRANCH  10  11
HETATM   11  C   UNK N   1      24.020  12.069  11.554  0.00  0.00     0.215 C 
HETATM   12  N   UNK N   1      25.098  12.626  10.970  0.00  0.00    -0.370 N 
HETATM   13  H   UNK N   1      25.810  13.034  11.515  0.00  0.00     0.159 HD
HETATM   14  H   UNK N   1      25.177  12.625   9.989  0.00  0.00     0.159 HD
HETATM   15  O   UNK N   1      23.998  11.921  12.766  0.00  0.00    -0.274 OA
ENDBRANCH  10  11
ENDBRANCH   9  10
ENDBRANCH   1   9
TORSDOF 6
ENDMDL
