MODEL 1
REMARK VINA RESULT:      -7.7      0.000      0.000
REMARK  16 active torsions:
REMARK  status: ('A' for Active; 'I' for Inactive)
REMARK    1  A    between atoms: C_1  and  C_4 
REMARK    2  A    between atoms: C_4  and  C_9 
REMARK    3  A    between atoms: C_4  and  O_10 
REMARK    4  A    between atoms: C_9  and  C_14 
REMARK    5  A    between atoms: C_11  and  C_79 
REMARK    6  A    between atoms: C_13  and  C_18 
REMARK    7  A    between atoms: C_14  and  C_19 
REMARK    8  A    between atoms: C_26  and  C_32 
REMARK    9  A    between atoms: C_32  and  C_36 
REMARK   10  A    between atoms: C_39  and  C_46 
REMARK   11  A    between atoms: C_43  and  C_48 
REMARK   12  A    between atoms: C_46  and  C_51 
REMARK   13  A    between atoms: C_48  and  C_54 
REMARK   14  A    between atoms: C_59  and  C_65 
REMARK   15  A    between atoms: C_73  and  C_82 
REMARK   16  A    between atoms: C_82  and  C_83 
ROOT
HETATM    1  C   UNK N   1      23.068  13.080   5.497  0.00  0.00     0.207 C 
HETATM    2  N   UNK N   1      24.215  13.178   6.384  0.00  0.00    -0.339 N 
HETATM    3  C   UNK N   1      23.233  12.360   4.178  0.00  0.00     0.243 C 
HETATM    4  C   UNK N   1      25.116  14.208   6.343  0.00  0.00     0.243 C 
HETATM    5  C   UNK N   1      24.315  12.205   7.448  0.00  0.00     0.153 C 
HETATM    6  N   UNK N   1      23.036  11.026   4.118  0.00  0.00    -0.346 N 
HETATM    7  O   UNK N   1      23.448  12.978   3.152  0.00  0.00    -0.271 OA
HETATM    8  C   UNK N   1      25.109  15.219   5.196  0.00  0.00     0.182 C 
HETATM    9  O   UNK N   1      25.936  14.315   7.238  0.00  0.00    -0.271 OA
HETATM   10  C   UNK N   1      22.577  10.338   5.286  0.00  0.00     0.176 C 
HETATM   11  N   UNK N   1      25.776  16.497   5.423  0.00  0.00    -0.341 N 
HETATM   12  C   UNK N   1      21.080  10.106   5.200  0.00  0.00     0.242 C 
HETATM   13  C   UNK N   1      27.099  16.594   5.770  0.00  0.00     0.243 C 
HETATM   14  C   UNK N   1      25.027  17.680   5.070  0.00  0.00     0.153 C 
HETATM   15  N   UNK N   1      20.505   9.111   4.445  0.00  0.00    -0.346 N 
HETATM   16  O   UNK N   1      20.362  10.909   5.776  0.00  0.00    -0.271 OA
HETATM   17  C   UNK N   1      27.864  17.899   5.694  0.00  0.00     0.179 C 
HETATM   18  O   UNK N   1      27.730  15.587   6.074  0.00  0.00    -0.271 OA
HETATM   19  C   UNK N   1      21.276   8.047   3.829  0.00  0.00     0.228 C 
HETATM   20  C   UNK N   1      19.069   9.068   4.300  0.00  0.00     0.153 C 
HETATM   21  N   UNK N   1      29.293  17.678   5.855  0.00  0.00    -0.341 N 
HETATM   22  C   UNK N   1      21.865   7.159   4.902  0.00  0.00     0.238 C 
HETATM   23  C   UNK N   1      30.005  17.144   4.806  0.00  0.00     0.243 C 
HETATM   24  C   UNK N   1      29.882  17.838   7.164  0.00  0.00     0.153 C 
HETATM   25  N   UNK N   1      22.757   6.168   4.617  0.00  0.00    -0.342 N 
HETATM   26  O   UNK N   1      21.558   7.370   6.070  0.00  0.00    -0.272 OA
HETATM   27  C   UNK N   1      31.460  16.715   4.918  0.00  0.00     0.179 C 
HETATM   28  O   UNK N   1      29.435  16.945   3.739  0.00  0.00    -0.271 OA
HETATM   29  C   UNK N   1      22.859   5.614   3.273  0.00  0.00     0.179 C 
HETATM   30  C   UNK N   1      23.378   5.466   5.723  0.00  0.00     0.153 C 
HETATM   31  N   UNK N   1      32.030  16.085   3.736  0.00  0.00    -0.341 N 
HETATM   32  C   UNK N   1      23.988   6.070   2.371  0.00  0.00     0.241 C 
HETATM   33  C   UNK N   1      31.813  14.764   3.474  0.00  0.00     0.242 C 
HETATM   34  C   UNK N   1      32.787  16.882   2.804  0.00  0.00     0.153 C 
HETATM   35  N   UNK N   1      25.303   5.923   2.667  0.00  0.00    -0.346 N 
HETATM   36  O   UNK N   1      23.689   6.532   1.282  0.00  0.00    -0.271 OA
HETATM   37  C   UNK N   1      31.010  13.891   4.409  0.00  0.00     0.172 C 
HETATM   38  O   UNK N   1      32.275  14.270   2.448  0.00  0.00    -0.271 OA
HETATM   39  C   UNK N   1      25.837   5.617   3.969  0.00  0.00     0.180 C 
HETATM   40  N   UNK N   1      30.856  12.587   3.821  0.00  0.00    -0.346 N 
HETATM   41  C   UNK N   1      31.687  13.753   5.761  0.00  0.00     0.042 C 
HETATM   42  C   UNK N   1      26.267   6.915   4.591  0.00  0.00     0.243 C 
HETATM   43  C   UNK N   1      29.667  11.956   3.800  0.00  0.00     0.240 C 
HETATM   44  N   UNK N   1      26.981   7.848   3.886  0.00  0.00    -0.341 N 
HETATM   45  O   UNK N   1      25.956   7.134   5.752  0.00  0.00    -0.271 OA
HETATM   46  C   UNK N   1      29.529  10.644   3.119  0.00  0.00     0.172 C 
HETATM   47  O   UNK N   1      28.726  12.397   4.438  0.00  0.00    -0.271 OA
HETATM   48  C   UNK N   1      27.444   9.034   4.551  0.00  0.00     0.179 C 
HETATM   49  C   UNK N   1      27.386   7.643   2.508  0.00  0.00     0.153 C 
HETATM   50  N   UNK N   1      29.865   9.631   4.069  0.00  0.00    -0.346 N 
HETATM   51  C   UNK N   1      30.410  10.525   1.884  0.00  0.00     0.042 C 
HETATM   52  C   UNK N   1      28.945   8.903   4.744  0.00  0.00     0.241 C 
HETATM   53  O   UNK N   1      29.342   8.040   5.509  0.00  0.00    -0.271 OA
HETATM   54  H   UNK N   1      23.207  10.534   3.283  0.00  0.00     0.163 HD
HETATM   55  H   UNK N   1      25.945   6.036   1.930  0.00  0.00     0.163 HD
HETATM   56  H   UNK N   1      31.640  12.144   3.423  0.00  0.00     0.163 HD
HETATM   57  H   UNK N   1      30.817   9.452   4.242  0.00  0.00     0.163 HD
ENDROOT
BRANCH   1  58
HETATM   58  C   UNK N   1      21.914  14.063   5.716  0.00  0.00     0.154 C 
BRANCH  58  59
HETATM   59  C   UNK N   1      21.933  14.627   7.151  0.00  0.00     0.016 C 
HETATM   60  C   UNK N   1      20.990  13.861   8.063  0.00  0.00     0.013 C 
BRANCH  59  61
HETATM   61  C   UNK N   1      21.525  16.092   7.201  0.00  0.00     0.033 C 
BRANCH  61  62
HETATM   62  C   UNK N   1      20.152  16.259   7.762  0.00  0.00    -0.031 C 
HETATM   63  C   UNK N   1      19.873  17.274   8.575  0.00  0.00    -0.035 C 
HETATM   64  C   UNK N   1      18.500  17.426   9.125  0.00  0.00     0.036 C 
ENDBRANCH  61  62
ENDBRANCH  59  61
ENDBRANCH  58  59
BRANCH  58  65
HETATM   65  O   UNK N   1      21.956  15.083   4.767  0.00  0.00    -0.393 OA
HETATM   66  H   UNK N   1      21.871  15.089   3.800  0.00  0.00     0.210 HD
ENDBRANCH  58  65
ENDBRANCH   1  58
BRANCH   8  67
HETATM   67  C   UNK N   1      25.524  14.615   3.844  0.00  0.00     0.009 C 
HETATM   68  C   UNK N   1      27.018  14.579   3.615  0.00  0.00     0.012 C 
HETATM   69  C   UNK N   1      24.890  15.369   2.693  0.00  0.00     0.012 C 
ENDBRANCH   8  67
BRANCH  10  70
HETATM   70  C   UNK N   1      23.573   9.307   5.796  0.00  0.00     0.030 C 
HETATM   71  C   UNK N   1      23.642   9.328   7.312  0.00  0.00     0.007 C 
ENDBRANCH  10  70
BRANCH  17  72
HETATM   72  C   UNK N   1      27.315  19.149   6.400  0.00  0.00     0.039 C 
BRANCH  72  73
HETATM   73  C   UNK N   1      27.622  20.450   5.680  0.00  0.00    -0.020 C 
HETATM   74  C   UNK N   1      26.689  21.523   6.206  0.00  0.00     0.009 C 
HETATM   75  C   UNK N   1      27.372  20.280   4.198  0.00  0.00     0.009 C 
ENDBRANCH  72  73
ENDBRANCH  17  72
BRANCH  27  76
HETATM   76  C   UNK N   1      32.443  17.235   5.979  0.00  0.00     0.039 C 
BRANCH  76  77
HETATM   77  C   UNK N   1      33.235  16.184   6.761  0.00  0.00    -0.020 C 
HETATM   78  C   UNK N   1      33.231  16.418   8.260  0.00  0.00     0.009 C 
HETATM   79  C   UNK N   1      34.645  16.000   6.241  0.00  0.00     0.009 C 
ENDBRANCH  76  77
ENDBRANCH  27  76
BRANCH  29  80
HETATM   80  C   UNK N   1      22.773   4.093   3.329  0.00  0.00     0.039 C 
BRANCH  80  81
HETATM   81  C   UNK N   1      21.401   3.578   2.965  0.00  0.00    -0.020 C 
HETATM   82  C   UNK N   1      20.664   3.274   4.249  0.00  0.00     0.009 C 
HETATM   83  C   UNK N   1      20.642   4.645   2.199  0.00  0.00     0.009 C 
ENDBRANCH  80  81
ENDBRANCH  29  80
BRANCH  39  84
HETATM   84  C   UNK N   1      26.987   4.582   3.963  0.00  0.00     0.009 C 
HETATM   85  C   UNK N   1      27.202   3.819   2.664  0.00  0.00     0.012 C 
HETATM   86  C   UNK N   1      26.895   3.610   5.116  0.00  0.00     0.012 C 
ENDBRANCH  39  84
BRANCH  48  87
HETATM   87  C   UNK N   1      26.780  10.346   4.051  0.00  0.00     0.039 C 
BRANCH  87  88
HETATM   88  C   UNK N   1      26.357  10.393   2.578  0.00  0.00    -0.020 C 
HETATM   89  C   UNK N   1      24.959   9.832   2.401  0.00  0.00     0.009 C 
HETATM   90  C   UNK N   1      26.349  11.818   2.077  0.00  0.00     0.009 C 
ENDBRANCH  87  88
ENDBRANCH  48  87
TORSDOF 16
ENDMDL
MODEL 2
REMARK VINA RESULT:      -7.5      1.109      1.749
REMARK  16 active torsions:
REMARK  status: ('A' for Active; 'I' for Inactive)
REMARK    1  A    between atoms: C_1  and  C_4 
REMARK    2  A    between atoms: C_4  and  C_9 
REMARK    3  A    between atoms: C_4  and  O_10 
REMARK    4  A    between atoms: C_9  and  C_14 
REMARK    5  A    between atoms: C_11  and  C_79 
REMARK    6  A    between atoms: C_13  and  C_18 
REMARK    7  A    between atoms: C_14  and  C_19 
REMARK    8  A    between atoms: C_26  and  C_32 
REMARK    9  A    between atoms: C_32  and  C_36 
REMARK   10  A    between atoms: C_39  and  C_46 
REMARK   11  A    between atoms: C_43  and  C_48 
REMARK   12  A    between atoms: C_46  and  C_51 
REMARK   13  A    between atoms: C_48  and  C_54 
REMARK   14  A    between atoms: C_59  and  C_65 
REMARK   15  A    between atoms: C_73  and  C_82 
REMARK   16  A    between atoms: C_82  and  C_83 
ROOT
HETATM    1  C   UNK N   1      22.967  13.431   5.217  0.00  0.00     0.207 C 
HETATM    2  N   UNK N   1      24.073  13.466   6.160  0.00  0.00    -0.339 N 
HETATM    3  C   UNK N   1      23.166  12.728   3.895  0.00  0.00     0.243 C 
HETATM    4  C   UNK N   1      25.016  14.459   6.181  0.00  0.00     0.243 C 
HETATM    5  C   UNK N   1      24.083  12.472   7.209  0.00  0.00     0.153 C 
HETATM    6  N   UNK N   1      22.919  11.404   3.799  0.00  0.00    -0.346 N 
HETATM    7  O   UNK N   1      23.455  13.354   2.892  0.00  0.00    -0.271 OA
HETATM    8  C   UNK N   1      25.106  15.489   5.054  0.00  0.00     0.182 C 
HETATM    9  O   UNK N   1      25.796  14.517   7.116  0.00  0.00    -0.271 OA
HETATM   10  C   UNK N   1      22.377  10.716   4.931  0.00  0.00     0.176 C 
HETATM   11  N   UNK N   1      25.812  16.734   5.337  0.00  0.00    -0.341 N 
HETATM   12  C   UNK N   1      20.877  10.547   4.770  0.00  0.00     0.242 C 
HETATM   13  C   UNK N   1      27.119  16.771   5.749  0.00  0.00     0.243 C 
HETATM   14  C   UNK N   1      25.129  17.953   4.972  0.00  0.00     0.153 C 
HETATM   15  N   UNK N   1      20.299   9.590   3.970  0.00  0.00    -0.346 N 
HETATM   16  O   UNK N   1      20.166  11.369   5.327  0.00  0.00    -0.271 OA
HETATM   17  C   UNK N   1      27.939  18.044   5.733  0.00  0.00     0.179 C 
HETATM   18  O   UNK N   1      27.694  15.734   6.063  0.00  0.00    -0.271 OA
HETATM   19  C   UNK N   1      21.056   8.505   3.371  0.00  0.00     0.228 C 
HETATM   20  C   UNK N   1      18.872   9.608   3.756  0.00  0.00     0.153 C 
HETATM   21  N   UNK N   1      29.348  17.761   5.958  0.00  0.00    -0.341 N 
HETATM   22  C   UNK N   1      21.557   7.576   4.453  0.00  0.00     0.238 C 
HETATM   23  C   UNK N   1      30.088  17.217   4.933  0.00  0.00     0.243 C 
HETATM   24  C   UNK N   1      29.880  17.875   7.296  0.00  0.00     0.153 C 
HETATM   25  N   UNK N   1      22.420   6.554   4.192  0.00  0.00    -0.342 N 
HETATM   26  O   UNK N   1      21.203   7.779   5.609  0.00  0.00    -0.272 OA
HETATM   27  C   UNK N   1      31.518  16.726   5.107  0.00  0.00     0.179 C 
HETATM   28  O   UNK N   1      29.562  17.060   3.837  0.00  0.00    -0.271 OA
HETATM   29  C   UNK N   1      22.564   6.019   2.844  0.00  0.00     0.179 C 
HETATM   30  C   UNK N   1      22.958   5.808   5.313  0.00  0.00     0.153 C 
HETATM   31  N   UNK N   1      32.118  16.094   3.941  0.00  0.00    -0.341 N 
HETATM   32  C   UNK N   1      23.753   6.444   2.005  0.00  0.00     0.241 C 
HETATM   33  C   UNK N   1      31.860  14.787   3.644  0.00  0.00     0.242 C 
HETATM   34  C   UNK N   1      32.950  16.874   3.061  0.00  0.00     0.153 C 
HETATM   35  N   UNK N   1      25.045   6.238   2.360  0.00  0.00    -0.346 N 
HETATM   36  O   UNK N   1      23.526   6.936   0.913  0.00  0.00    -0.271 OA
HETATM   37  C   UNK N   1      30.979  13.932   4.522  0.00  0.00     0.172 C 
HETATM   38  O   UNK N   1      32.351  14.292   2.632  0.00  0.00    -0.271 OA
HETATM   39  C   UNK N   1      25.503   5.887   3.680  0.00  0.00     0.180 C 
HETATM   40  N   UNK N   1      30.801  12.646   3.903  0.00  0.00    -0.346 N 
HETATM   41  C   UNK N   1      31.584  13.743   5.902  0.00  0.00     0.042 C 
HETATM   42  C   UNK N   1      25.955   7.156   4.347  0.00  0.00     0.243 C 
HETATM   43  C   UNK N   1      29.590  12.065   3.814  0.00  0.00     0.240 C 
HETATM   44  N   UNK N   1      26.739   8.071   3.694  0.00  0.00    -0.341 N 
HETATM   45  O   UNK N   1      25.597   7.367   5.496  0.00  0.00    -0.271 OA
HETATM   46  C   UNK N   1      29.431  10.772   3.102  0.00  0.00     0.172 C 
HETATM   47  O   UNK N   1      28.638  12.534   4.415  0.00  0.00    -0.271 OA
HETATM   48  C   UNK N   1      27.217   9.225   4.403  0.00  0.00     0.179 C 
HETATM   49  C   UNK N   1      27.201   7.872   2.333  0.00  0.00     0.153 C 
HETATM   50  N   UNK N   1      29.680   9.729   4.048  0.00  0.00    -0.346 N 
HETATM   51  C   UNK N   1      30.365  10.638   1.909  0.00  0.00     0.042 C 
HETATM   52  C   UNK N   1      28.700   9.028   4.664  0.00  0.00     0.241 C 
HETATM   53  O   UNK N   1      29.024   8.137   5.431  0.00  0.00    -0.271 OA
HETATM   54  H   UNK N   1      23.110  10.920   2.964  0.00  0.00     0.163 HD
HETATM   55  H   UNK N   1      25.726   6.336   1.657  0.00  0.00     0.163 HD
HETATM   56  H   UNK N   1      31.584  12.178   3.534  0.00  0.00     0.163 HD
HETATM   57  H   UNK N   1      30.615   9.509   4.262  0.00  0.00     0.163 HD
ENDROOT
BRANCH   1  58
HETATM   58  C   UNK N   1      21.844  14.457   5.400  0.00  0.00     0.154 C 
BRANCH  58  59
HETATM   59  C   UNK N   1      21.339  14.972   4.037  0.00  0.00     0.016 C 
HETATM   60  C   UNK N   1      21.568  16.466   3.888  0.00  0.00     0.013 C 
BRANCH  59  61
HETATM   61  C   UNK N   1      19.853  14.716   3.837  0.00  0.00     0.033 C 
BRANCH  61  62
HETATM   62  C   UNK N   1      19.561  14.236   2.454  0.00  0.00    -0.031 C 
HETATM   63  C   UNK N   1      19.976  13.037   2.054  0.00  0.00    -0.035 C 
HETATM   64  C   UNK N   1      19.678  12.573   0.673  0.00  0.00     0.036 C 
ENDBRANCH  61  62
ENDBRANCH  59  61
ENDBRANCH  58  59
BRANCH  58  65
HETATM   65  O   UNK N   1      20.807  13.913   6.155  0.00  0.00    -0.393 OA
HETATM   66  H   UNK N   1      20.238  14.275   6.853  0.00  0.00     0.210 HD
ENDBRANCH  58  65
ENDBRANCH   1  58
BRANCH   8  67
HETATM   67  C   UNK N   1      25.561  14.892   3.712  0.00  0.00     0.009 C 
HETATM   68  C   UNK N   1      27.061  14.802   3.552  0.00  0.00     0.012 C 
HETATM   69  C   UNK N   1      25.010  15.688   2.547  0.00  0.00     0.012 C 
ENDBRANCH   8  67
BRANCH  10  70
HETATM   70  C   UNK N   1      23.304   9.636   5.468  0.00  0.00     0.030 C 
HETATM   71  C   UNK N   1      23.313   9.637   6.986  0.00  0.00     0.007 C 
ENDBRANCH  10  70
BRANCH  17  72
HETATM   72  C   UNK N   1      27.408  19.304   6.436  0.00  0.00     0.039 C 
BRANCH  72  73
HETATM   73  C   UNK N   1      27.723  20.598   5.707  0.00  0.00    -0.020 C 
HETATM   74  C   UNK N   1      26.821  21.688   6.250  0.00  0.00     0.009 C 
HETATM   75  C   UNK N   1      27.437  20.430   4.231  0.00  0.00     0.009 C 
ENDBRANCH  72  73
ENDBRANCH  17  72
BRANCH  27  76
HETATM   76  C   UNK N   1      32.469  17.187   6.223  0.00  0.00     0.039 C 
BRANCH  76  77
HETATM   77  C   UNK N   1      33.186  16.091   7.015  0.00  0.00    -0.020 C 
HETATM   78  C   UNK N   1      33.091  16.272   8.518  0.00  0.00     0.009 C 
HETATM   79  C   UNK N   1      34.622  15.893   6.579  0.00  0.00     0.009 C 
ENDBRANCH  76  77
ENDBRANCH  27  76
BRANCH  29  80
HETATM   80  C   UNK N   1      22.415   4.503   2.867  0.00  0.00     0.039 C 
BRANCH  80  81
HETATM   81  C   UNK N   1      21.040   4.051   2.435  0.00  0.00    -0.020 C 
HETATM   82  C   UNK N   1      20.235   3.759   3.680  0.00  0.00     0.009 C 
HETATM   83  C   UNK N   1      20.360   5.161   1.655  0.00  0.00     0.009 C 
ENDBRANCH  80  81
ENDBRANCH  29  80
BRANCH  39  84
HETATM   84  C   UNK N   1      26.609   4.806   3.709  0.00  0.00     0.009 C 
HETATM   85  C   UNK N   1      26.868   4.070   2.403  0.00  0.00     0.012 C 
HETATM   86  C   UNK N   1      26.413   3.808   4.827  0.00  0.00     0.012 C 
ENDBRANCH  39  84
BRANCH  48  87
HETATM   87  C   UNK N   1      26.631  10.571   3.897  0.00  0.00     0.039 C 
BRANCH  87  88
HETATM   88  C   UNK N   1      26.285  10.662   2.406  0.00  0.00    -0.020 C 
HETATM   89  C   UNK N   1      24.877  10.162   2.149  0.00  0.00     0.009 C 
HETATM   90  C   UNK N   1      26.359  12.095   1.934  0.00  0.00     0.009 C 
ENDBRANCH  87  88
ENDBRANCH  48  87
TORSDOF 16
ENDMDL
MODEL 3
REMARK VINA RESULT:      -6.8      4.340     11.493
REMARK  16 active torsions:
REMARK  status: ('A' for Active; 'I' for Inactive)
REMARK    1  A    between atoms: C_1  and  C_4 
REMARK    2  A    between atoms: C_4  and  C_9 
REMARK    3  A    between atoms: C_4  and  O_10 
REMARK    4  A    between atoms: C_9  and  C_14 
REMARK    5  A    between atoms: C_11  and  C_79 
REMARK    6  A    between atoms: C_13  and  C_18 
REMARK    7  A    between atoms: C_14  and  C_19 
REMARK    8  A    between atoms: C_26  and  C_32 
REMARK    9  A    between atoms: C_32  and  C_36 
REMARK   10  A    between atoms: C_39  and  C_46 
REMARK   11  A    between atoms: C_43  and  C_48 
REMARK   12  A    between atoms: C_46  and  C_51 
REMARK   13  A    between atoms: C_48  and  C_54 
REMARK   14  A    between atoms: C_59  and  C_65 
REMARK   15  A    between atoms: C_73  and  C_82 
REMARK   16  A    between atoms: C_82  and  C_83 
ROOT
HETATM    1  C   UNK N   1      31.302   9.451   3.384  0.00  0.00     0.207 C 
HETATM    2  N   UNK N   1      30.303   9.849   4.362  0.00  0.00    -0.339 N 
HETATM    3  C   UNK N   1      32.466  10.378   3.120  0.00  0.00     0.243 C 
HETATM    4  C   UNK N   1      29.187  10.578   4.048  0.00  0.00     0.243 C 
HETATM    5  C   UNK N   1      30.437   9.321   5.700  0.00  0.00     0.153 C 
HETATM    6  N   UNK N   1      33.579  10.283   3.877  0.00  0.00    -0.346 N 
HETATM    7  O   UNK N   1      32.451  11.146   2.176  0.00  0.00    -0.271 OA
HETATM    8  C   UNK N   1      29.030  11.231   2.674  0.00  0.00     0.182 C 
HETATM    9  O   UNK N   1      28.309  10.708   4.883  0.00  0.00    -0.271 OA
HETATM   10  C   UNK N   1      33.670   9.237   4.850  0.00  0.00     0.176 C 
HETATM   11  N   UNK N   1      27.682  11.607   2.260  0.00  0.00    -0.341 N 
HETATM   12  C   UNK N   1      34.493   8.085   4.300  0.00  0.00     0.242 C 
HETATM   13  C   UNK N   1      26.895  12.466   2.983  0.00  0.00     0.243 C 
HETATM   14  C   UNK N   1      27.279  11.187   0.939  0.00  0.00     0.153 C 
HETATM   15  N   UNK N   1      35.866   8.088   4.244  0.00  0.00    -0.346 N 
HETATM   16  O   UNK N   1      33.877   7.149   3.814  0.00  0.00    -0.271 OA
HETATM   17  C   UNK N   1      25.647  13.102   2.407  0.00  0.00     0.179 C 
HETATM   18  O   UNK N   1      27.239  12.816   4.107  0.00  0.00    -0.271 OA
HETATM   19  C   UNK N   1      36.678   9.096   4.901  0.00  0.00     0.228 C 
HETATM   20  C   UNK N   1      36.553   7.018   3.561  0.00  0.00     0.153 C 
HETATM   21  N   UNK N   1      25.154  14.163   3.272  0.00  0.00    -0.341 N 
HETATM   22  C   UNK N   1      36.547   8.955   6.401  0.00  0.00     0.238 C 
HETATM   23  C   UNK N   1      25.816  15.368   3.288  0.00  0.00     0.243 C 
HETATM   24  C   UNK N   1      24.112  13.860   4.226  0.00  0.00     0.153 C 
HETATM   25  N   UNK N   1      37.082   9.863   7.266  0.00  0.00    -0.342 N 
HETATM   26  O   UNK N   1      35.902   8.013   6.846  0.00  0.00    -0.272 OA
HETATM   27  C   UNK N   1      25.494  16.484   4.271  0.00  0.00     0.179 C 
HETATM   28  O   UNK N   1      26.753  15.543   2.517  0.00  0.00    -0.271 OA
HETATM   29  C   UNK N   1      38.159  10.751   6.851  0.00  0.00     0.179 C 
HETATM   30  C   UNK N   1      36.781   9.724   8.678  0.00  0.00     0.153 C 
HETATM   31  N   UNK N   1      26.356  17.655   4.207  0.00  0.00    -0.341 N 
HETATM   32  C   UNK N   1      37.833  12.186   6.485  0.00  0.00     0.241 C 
HETATM   33  C   UNK N   1      27.573  17.662   4.823  0.00  0.00     0.242 C 
HETATM   34  C   UNK N   1      25.939  18.800   3.438  0.00  0.00     0.153 C 
HETATM   35  N   UNK N   1      37.260  13.074   7.333  0.00  0.00    -0.346 N 
HETATM   36  O   UNK N   1      38.175  12.579   5.382  0.00  0.00    -0.271 OA
HETATM   37  C   UNK N   1      28.064  16.481   5.625  0.00  0.00     0.172 C 
HETATM   38  O   UNK N   1      28.295  18.651   4.719  0.00  0.00    -0.271 OA
HETATM   39  C   UNK N   1      36.595  12.741   8.567  0.00  0.00     0.180 C 
HETATM   40  N   UNK N   1      29.413  16.731   6.056  0.00  0.00    -0.346 N 
HETATM   41  C   UNK N   1      27.189  16.230   6.840  0.00  0.00     0.042 C 
HETATM   42  C   UNK N   1      35.121  12.693   8.280  0.00  0.00     0.243 C 
HETATM   43  C   UNK N   1      30.377  15.797   5.945  0.00  0.00     0.240 C 
HETATM   44  N   UNK N   1      34.501  13.666   7.541  0.00  0.00    -0.341 N 
HETATM   45  O   UNK N   1      34.475  11.751   8.714  0.00  0.00    -0.271 OA
HETATM   46  C   UNK N   1      31.774  16.116   6.331  0.00  0.00     0.172 C 
HETATM   47  O   UNK N   1      30.091  14.653   5.638  0.00  0.00    -0.271 OA
HETATM   48  C   UNK N   1      33.075  13.622   7.368  0.00  0.00     0.179 C 
HETATM   49  C   UNK N   1      35.212  14.812   7.005  0.00  0.00     0.153 C 
HETATM   50  N   UNK N   1      31.904  15.846   7.729  0.00  0.00    -0.346 N 
HETATM   51  C   UNK N   1      32.155  17.559   6.033  0.00  0.00     0.042 C 
HETATM   52  C   UNK N   1      32.469  14.721   8.224  0.00  0.00     0.241 C 
HETATM   53  O   UNK N   1      32.558  14.606   9.435  0.00  0.00    -0.271 OA
HETATM   54  H   UNK N   1      34.317  10.925   3.763  0.00  0.00     0.163 HD
HETATM   55  H   UNK N   1      37.302  14.026   7.085  0.00  0.00     0.163 HD
HETATM   56  H   UNK N   1      29.639  17.607   6.444  0.00  0.00     0.163 HD
HETATM   57  H   UNK N   1      31.565  16.515   8.365  0.00  0.00     0.163 HD
ENDROOT
BRANCH   1  58
HETATM   58  C   UNK N   1      30.914   8.371   2.370  0.00  0.00     0.154 C 
BRANCH  58  59
HETATM   59  C   UNK N   1      31.687   8.550   1.048  0.00  0.00     0.016 C 
HETATM   60  C   UNK N   1      30.768   9.000  -0.076  0.00  0.00     0.013 C 
BRANCH  59  61
HETATM   61  C   UNK N   1      32.366   7.266   0.595  0.00  0.00     0.033 C 
BRANCH  61  62
HETATM   62  C   UNK N   1      33.828   7.469   0.375  0.00  0.00    -0.031 C 
HETATM   63  C   UNK N   1      34.386   8.657   0.597  0.00  0.00    -0.035 C 
HETATM   64  C   UNK N   1      35.844   8.842   0.372  0.00  0.00     0.036 C 
ENDBRANCH  61  62
ENDBRANCH  59  61
ENDBRANCH  58  59
BRANCH  58  65
HETATM   65  O   UNK N   1      31.117   7.102   2.910  0.00  0.00    -0.393 OA
HETATM   66  H   UNK N   1      30.523   6.461   3.333  0.00  0.00     0.210 HD
ENDBRANCH  58  65
ENDBRANCH   1  58
BRANCH   8  67
HETATM   67  C   UNK N   1      30.023  12.377   2.422  0.00  0.00     0.009 C 
HETATM   68  C   UNK N   1      29.560  13.721   2.936  0.00  0.00     0.012 C 
HETATM   69  C   UNK N   1      30.329  12.518   0.945  0.00  0.00     0.012 C 
ENDBRANCH   8  67
BRANCH  10  70
HETATM   70  C   UNK N   1      33.778   9.759   6.274  0.00  0.00     0.030 C 
HETATM   71  C   UNK N   1      32.993   8.882   7.232  0.00  0.00     0.007 C 
ENDBRANCH  10  70
BRANCH  17  72
HETATM   72  C   UNK N   1      24.559  12.216   1.779  0.00  0.00     0.039 C 
BRANCH  72  73
HETATM   73  C   UNK N   1      24.045  12.722   0.443  0.00  0.00    -0.020 C 
HETATM   74  C   UNK N   1      22.793  13.540   0.688  0.00  0.00     0.009 C 
HETATM   75  C   UNK N   1      23.687  11.548  -0.441  0.00  0.00     0.009 C 
ENDBRANCH  72  73
ENDBRANCH  17  72
BRANCH  27  76
HETATM   76  C   UNK N   1      24.153  16.638   5.006  0.00  0.00     0.039 C 
BRANCH  76  77
HETATM   77  C   UNK N   1      23.073  17.466   4.304  0.00  0.00    -0.020 C 
HETATM   78  C   UNK N   1      22.248  18.313   5.255  0.00  0.00     0.009 C 
HETATM   79  C   UNK N   1      22.185  16.635   3.403  0.00  0.00     0.009 C 
ENDBRANCH  76  77
ENDBRANCH  27  76
BRANCH  29  80
HETATM   80  C   UNK N   1      39.308  10.681   7.850  0.00  0.00     0.039 C 
BRANCH  80  81
HETATM   81  C   UNK N   1      40.535  11.422   7.374  0.00  0.00    -0.020 C 
HETATM   82  C   UNK N   1      41.477  11.563   8.547  0.00  0.00     0.009 C 
HETATM   83  C   UNK N   1      41.220  10.622   6.281  0.00  0.00     0.009 C 
ENDBRANCH  80  81
ENDBRANCH  29  80
BRANCH  39  84
HETATM   84  C   UNK N   1      36.913  13.693   9.744  0.00  0.00     0.009 C 
HETATM   85  C   UNK N   1      38.335  14.230   9.813  0.00  0.00     0.012 C 
HETATM   86  C   UNK N   1      36.524  13.108  11.082  0.00  0.00     0.012 C 
ENDBRANCH  39  84
BRANCH  48  87
HETATM   87  C   UNK N   1      32.618  13.355   5.908  0.00  0.00     0.039 C 
BRANCH  87  88
HETATM   88  C   UNK N   1      33.517  13.893   4.789  0.00  0.00    -0.020 C 
HETATM   89  C   UNK N   1      34.600  12.891   4.439  0.00  0.00     0.009 C 
HETATM   90  C   UNK N   1      32.708  14.152   3.541  0.00  0.00     0.009 C 
ENDBRANCH  87  88
ENDBRANCH  48  87
TORSDOF 16
ENDMDL
MODEL 4
REMARK VINA RESULT:      -6.8      2.922      6.480
REMARK  16 active torsions:
REMARK  status: ('A' for Active; 'I' for Inactive)
REMARK    1  A    between atoms: C_1  and  C_4 
REMARK    2  A    between atoms: C_4  and  C_9 
REMARK    3  A    between atoms: C_4  and  O_10 
REMARK    4  A    between atoms: C_9  and  C_14 
REMARK    5  A    between atoms: C_11  and  C_79 
REMARK    6  A    between atoms: C_13  and  C_18 
REMARK    7  A    between atoms: C_14  and  C_19 
REMARK    8  A    between atoms: C_26  and  C_32 
REMARK    9  A    between atoms: C_32  and  C_36 
REMARK   10  A    between atoms: C_39  and  C_46 
REMARK   11  A    between atoms: C_43  and  C_48 
REMARK   12  A    between atoms: C_46  and  C_51 
REMARK   13  A    between atoms: C_48  and  C_54 
REMARK   14  A    between atoms: C_59  and  C_65 
REMARK   15  A    between atoms: C_73  and  C_82 
REMARK   16  A    between atoms: C_82  and  C_83 
ROOT
HETATM    1  C   UNK N   1      26.883  17.184   4.759  0.00  0.00     0.207 C 
HETATM    2  N   UNK N   1      27.408  16.335   5.816  0.00  0.00    -0.339 N 
HETATM    3  C   UNK N   1      26.451  16.541   3.462  0.00  0.00     0.243 C 
HETATM    4  C   UNK N   1      28.735  16.022   5.945  0.00  0.00     0.243 C 
HETATM    5  C   UNK N   1      26.491  15.926   6.855  0.00  0.00     0.153 C 
HETATM    6  N   UNK N   1      25.187  16.083   3.334  0.00  0.00    -0.346 N 
HETATM    7  O   UNK N   1      27.195  16.514   2.500  0.00  0.00    -0.271 OA
HETATM    8  C   UNK N   1      29.737  16.357   4.839  0.00  0.00     0.182 C 
HETATM    9  O   UNK N   1      29.117  15.464   6.959  0.00  0.00    -0.271 OA
HETATM   10  C   UNK N   1      24.256  16.309   4.397  0.00  0.00     0.176 C 
HETATM   11  N   UNK N   1      31.149  16.398   5.204  0.00  0.00    -0.341 N 
HETATM   12  C   UNK N   1      23.374  17.501   4.073  0.00  0.00     0.242 C 
HETATM   13  C   UNK N   1      31.806  15.328   5.754  0.00  0.00     0.243 C 
HETATM   14  C   UNK N   1      31.887  17.563   4.773  0.00  0.00     0.153 C 
HETATM   15  N   UNK N   1      22.305  17.447   3.211  0.00  0.00    -0.346 N 
HETATM   16  O   UNK N   1      23.700  18.576   4.554  0.00  0.00    -0.271 OA
HETATM   17  C   UNK N   1      33.317  15.257   5.834  0.00  0.00     0.179 C 
HETATM   18  O   UNK N   1      31.176  14.343   6.123  0.00  0.00    -0.271 OA
HETATM   19  C   UNK N   1      21.777  16.199   2.691  0.00  0.00     0.228 C 
HETATM   20  C   UNK N   1      21.625  18.666   2.843  0.00  0.00     0.153 C 
HETATM   21  N   UNK N   1      33.759  13.923   6.208  0.00  0.00    -0.341 N 
HETATM   22  C   UNK N   1      21.157  15.401   3.816  0.00  0.00     0.238 C 
HETATM   23  C   UNK N   1      33.715  12.920   5.267  0.00  0.00     0.243 C 
HETATM   24  C   UNK N   1      34.043  13.643   7.597  0.00  0.00     0.153 C 
HETATM   25  N   UNK N   1      20.716  14.123   3.644  0.00  0.00    -0.342 N 
HETATM   26  O   UNK N   1      21.090  15.913   4.928  0.00  0.00    -0.272 OA
HETATM   27  C   UNK N   1      33.990  11.459   5.592  0.00  0.00     0.179 C 
HETATM   28  O   UNK N   1      33.382  13.194   4.120  0.00  0.00    -0.271 OA
HETATM   29  C   UNK N   1      20.404  13.609   2.317  0.00  0.00     0.179 C 
HETATM   30  C   UNK N   1      20.273  13.389   4.813  0.00  0.00     0.153 C 
HETATM   31  N   UNK N   1      33.809  10.520   4.494  0.00  0.00    -0.341 N 
HETATM   32  C   UNK N   1      21.412  12.722   1.614  0.00  0.00     0.241 C 
HETATM   33  C   UNK N   1      32.568  10.061   4.164  0.00  0.00     0.242 C 
HETATM   34  C   UNK N   1      34.950  10.113   3.714  0.00  0.00     0.153 C 
HETATM   35  N   UNK N   1      21.854  11.538   2.105  0.00  0.00    -0.346 N 
HETATM   36  O   UNK N   1      21.789  13.064   0.506  0.00  0.00    -0.271 OA
HETATM   37  C   UNK N   1      31.338  10.472   4.938  0.00  0.00     0.172 C 
HETATM   38  O   UNK N   1      32.441   9.299   3.208  0.00  0.00    -0.271 OA
HETATM   39  C   UNK N   1      21.701  11.088   3.466  0.00  0.00     0.180 C 
HETATM   40  N   UNK N   1      30.172   9.927   4.296  0.00  0.00    -0.346 N 
HETATM   41  C   UNK N   1      31.393   9.983   6.373  0.00  0.00     0.042 C 
HETATM   42  C   UNK N   1      22.985  11.394   4.183  0.00  0.00     0.243 C 
HETATM   43  C   UNK N   1      29.072  10.671   4.074  0.00  0.00     0.240 C 
HETATM   44  N   UNK N   1      24.204  11.117   3.625  0.00  0.00    -0.341 N 
HETATM   45  O   UNK N   1      22.923  11.913   5.288  0.00  0.00    -0.271 OA
HETATM   46  C   UNK N   1      27.916  10.096   3.342  0.00  0.00     0.172 C 
HETATM   47  O   UNK N   1      28.970  11.779   4.570  0.00  0.00    -0.271 OA
HETATM   48  C   UNK N   1      25.400  11.347   4.387  0.00  0.00     0.179 C 
HETATM   49  C   UNK N   1      24.342  10.496   2.320  0.00  0.00     0.153 C 
HETATM   50  N   UNK N   1      27.081   9.446   4.303  0.00  0.00    -0.346 N 
HETATM   51  C   UNK N   1      28.333   9.115   2.255  0.00  0.00     0.042 C 
HETATM   52  C   UNK N   1      25.951   9.995   4.806  0.00  0.00     0.241 C 
HETATM   53  O   UNK N   1      25.295   9.340   5.598  0.00  0.00    -0.271 OA
HETATM   54  H   UNK N   1      24.912  15.601   2.521  0.00  0.00     0.163 HD
HETATM   55  H   UNK N   1      22.319  10.936   1.480  0.00  0.00     0.163 HD
HETATM   56  H   UNK N   1      30.177   8.984   4.011  0.00  0.00     0.163 HD
HETATM   57  H   UNK N   1      27.342   8.550   4.616  0.00  0.00     0.163 HD
ENDROOT
BRANCH   1  58
HETATM   58  C   UNK N   1      27.203  18.681   4.825  0.00  0.00     0.154 C 
BRANCH  58  59
HETATM   59  C   UNK N   1      27.026  19.222   6.258  0.00  0.00     0.016 C 
HETATM   60  C   UNK N   1      26.312  20.563   6.263  0.00  0.00     0.013 C 
BRANCH  59  61
HETATM   61  C   UNK N   1      28.356  19.411   6.973  0.00  0.00     0.033 C 
BRANCH  61  62
HETATM   62  C   UNK N   1      28.354  18.757   8.314  0.00  0.00    -0.031 C 
HETATM   63  C   UNK N   1      29.488  18.313   8.850  0.00  0.00    -0.035 C 
HETATM   64  C   UNK N   1      29.470  17.662  10.187  0.00  0.00     0.036 C 
ENDBRANCH  61  62
ENDBRANCH  59  61
ENDBRANCH  58  59
BRANCH  58  65
HETATM   65  O   UNK N   1      28.488  18.926   4.344  0.00  0.00    -0.393 OA
HETATM   66  H   UNK N   1      29.279  19.321   4.745  0.00  0.00     0.210 HD
ENDBRANCH  58  65
ENDBRANCH   1  58
BRANCH   8  67
HETATM   67  C   UNK N   1      29.525  15.545   3.551  0.00  0.00     0.009 C 
HETATM   68  C   UNK N   1      30.183  14.185   3.562  0.00  0.00     0.012 C 
HETATM   69  C   UNK N   1      30.029  16.302   2.340  0.00  0.00     0.012 C 
ENDBRANCH   8  67
BRANCH  10  70
HETATM   70  C   UNK N   1      23.750  15.019   5.025  0.00  0.00     0.030 C 
HETATM   71  C   UNK N   1      23.566  15.184   6.522  0.00  0.00     0.007 C 
ENDBRANCH  10  70
BRANCH  17  72
HETATM   72  C   UNK N   1      34.103  16.409   6.483  0.00  0.00     0.039 C 
BRANCH  72  73
HETATM   73  C   UNK N   1      33.644  16.754   7.889  0.00  0.00    -0.020 C 
HETATM   74  C   UNK N   1      33.153  18.188   7.895  0.00  0.00     0.009 C 
HETATM   75  C   UNK N   1      34.812  16.642   8.844  0.00  0.00     0.009 C 
ENDBRANCH  72  73
ENDBRANCH  17  72
BRANCH  27  76
HETATM   76  C   UNK N   1      34.797  10.972   6.806  0.00  0.00     0.039 C 
BRANCH  76  77
HETATM   77  C   UNK N   1      36.298  10.760   6.597  0.00  0.00    -0.020 C 
HETATM   78  C   UNK N   1      36.974  10.049   7.755  0.00  0.00     0.009 C 
HETATM   79  C   UNK N   1      37.030  12.035   6.239  0.00  0.00     0.009 C 
ENDBRANCH  76  77
ENDBRANCH  27  76
BRANCH  29  80
HETATM   80  C   UNK N   1      19.015  12.981   2.315  0.00  0.00     0.039 C 
BRANCH  80  81
HETATM   81  C   UNK N   1      18.241  13.295   1.057  0.00  0.00    -0.020 C 
HETATM   82  C   UNK N   1      18.815  14.560   0.462  0.00  0.00     0.009 C 
HETATM   83  C   UNK N   1      18.404  12.161   0.062  0.00  0.00     0.009 C 
ENDBRANCH  80  81
ENDBRANCH  29  80
BRANCH  39  84
HETATM   84  C   UNK N   1      21.312   9.598   3.608  0.00  0.00     0.009 C 
HETATM   85  C   UNK N   1      20.575   8.977   2.431  0.00  0.00     0.012 C 
HETATM   86  C   UNK N   1      20.559   9.316   4.887  0.00  0.00     0.012 C 
ENDBRANCH  39  84
BRANCH  48  87
HETATM   87  C   UNK N   1      26.305  12.479   3.828  0.00  0.00     0.039 C 
BRANCH  87  88
HETATM   88  C   UNK N   1      26.307  12.680   2.308  0.00  0.00    -0.020 C 
HETATM   89  C   UNK N   1      25.198  13.625   1.888  0.00  0.00     0.009 C 
HETATM   90  C   UNK N   1      27.619  13.278   1.857  0.00  0.00     0.009 C 
ENDBRANCH  87  88
ENDBRANCH  48  87
TORSDOF 16
ENDMDL
MODEL 5
REMARK VINA RESULT:      -6.7      8.830     14.352
REMARK  16 active torsions:
REMARK  status: ('A' for Active; 'I' for Inactive)
REMARK    1  A    between atoms: C_1  and  C_4 
REMARK    2  A    between atoms: C_4  and  C_9 
REMARK    3  A    between atoms: C_4  and  O_10 
REMARK    4  A    between atoms: C_9  and  C_14 
REMARK    5  A    between atoms: C_11  and  C_79 
REMARK    6  A    between atoms: C_13  and  C_18 
REMARK    7  A    between atoms: C_14  and  C_19 
REMARK    8  A    between atoms: C_26  and  C_32 
REMARK    9  A    between atoms: C_32  and  C_36 
REMARK   10  A    between atoms: C_39  and  C_46 
REMARK   11  A    between atoms: C_43  and  C_48 
REMARK   12  A    between atoms: C_46  and  C_51 
REMARK   13  A    between atoms: C_48  and  C_54 
REMARK   14  A    between atoms: C_59  and  C_65 
REMARK   15  A    between atoms: C_73  and  C_82 
REMARK   16  A    between atoms: C_82  and  C_83 
ROOT
HETATM    1  C   UNK N   1      35.812   7.752   8.095  0.00  0.00     0.207 C 
HETATM    2  N   UNK N   1      34.530   8.394   8.331  0.00  0.00    -0.339 N 
HETATM    3  C   UNK N   1      37.021   8.252   8.851  0.00  0.00     0.243 C 
HETATM    4  C   UNK N   1      34.083   9.475   7.618  0.00  0.00     0.243 C 
HETATM    5  C   UNK N   1      33.634   7.762   9.273  0.00  0.00     0.153 C 
HETATM    6  N   UNK N   1      37.307   7.738  10.066  0.00  0.00    -0.346 N 
HETATM    7  O   UNK N   1      37.794   9.042   8.341  0.00  0.00    -0.271 OA
HETATM    8  C   UNK N   1      35.011  10.233   6.668  0.00  0.00     0.182 C 
HETATM    9  O   UNK N   1      32.926   9.834   7.748  0.00  0.00    -0.271 OA
HETATM   10  C   UNK N   1      36.513   6.658  10.568  0.00  0.00     0.176 C 
HETATM   11  N   UNK N   1      34.389  11.066   5.645  0.00  0.00    -0.341 N 
HETATM   12  C   UNK N   1      37.227   5.338  10.343  0.00  0.00     0.242 C 
HETATM   13  C   UNK N   1      33.525  12.088   5.942  0.00  0.00     0.243 C 
HETATM   14  C   UNK N   1      34.879  10.896   4.297  0.00  0.00     0.153 C 
HETATM   15  N   UNK N   1      38.258   4.884  11.133  0.00  0.00    -0.346 N 
HETATM   16  O   UNK N   1      36.905   4.697   9.354  0.00  0.00    -0.271 OA
HETATM   17  C   UNK N   1      33.135  13.143   4.926  0.00  0.00     0.179 C 
HETATM   18  O   UNK N   1      33.107  12.226   7.087  0.00  0.00    -0.271 OA
HETATM   19  C   UNK N   1      38.623   5.516  12.387  0.00  0.00     0.228 C 
HETATM   20  C   UNK N   1      38.979   3.695  10.747  0.00  0.00     0.153 C 
HETATM   21  N   UNK N   1      32.432  14.247   5.562  0.00  0.00    -0.341 N 
HETATM   22  C   UNK N   1      37.511   5.326  13.395  0.00  0.00     0.238 C 
HETATM   23  C   UNK N   1      33.154  15.157   6.300  0.00  0.00     0.243 C 
HETATM   24  C   UNK N   1      30.988  14.247   5.566  0.00  0.00     0.153 C 
HETATM   25  N   UNK N   1      37.519   5.941  14.611  0.00  0.00    -0.342 N 
HETATM   26  O   UNK N   1      36.554   4.626  13.084  0.00  0.00    -0.272 OA
HETATM   27  C   UNK N   1      32.508  16.246   7.143  0.00  0.00     0.179 C 
HETATM   28  O   UNK N   1      34.376  15.060   6.335  0.00  0.00    -0.271 OA
HETATM   29  C   UNK N   1      38.758   6.443  15.190  0.00  0.00     0.179 C 
HETATM   30  C   UNK N   1      36.343   5.816  15.449  0.00  0.00     0.153 C 
HETATM   31  N   UNK N   1      33.420  17.063   7.931  0.00  0.00    -0.341 N 
HETATM   32  C   UNK N   1      39.065   7.925  15.105  0.00  0.00     0.241 C 
HETATM   33  C   UNK N   1      33.895  16.620   9.131  0.00  0.00     0.242 C 
HETATM   34  C   UNK N   1      33.866  18.331   7.411  0.00  0.00     0.153 C 
HETATM   35  N   UNK N   1      38.278   8.895  15.634  0.00  0.00    -0.346 N 
HETATM   36  O   UNK N   1      40.121   8.255  14.591  0.00  0.00    -0.271 OA
HETATM   37  C   UNK N   1      33.473  15.292   9.710  0.00  0.00     0.172 C 
HETATM   38  O   UNK N   1      34.693  17.315   9.756  0.00  0.00    -0.271 OA
HETATM   39  C   UNK N   1      36.915   8.721  16.066  0.00  0.00     0.180 C 
HETATM   40  N   UNK N   1      34.217  15.046  10.917  0.00  0.00    -0.346 N 
HETATM   41  C   UNK N   1      31.988  15.267  10.024  0.00  0.00     0.042 C 
HETATM   42  C   UNK N   1      36.029   9.190  14.947  0.00  0.00     0.243 C 
HETATM   43  C   UNK N   1      34.791  13.853  11.164  0.00  0.00     0.240 C 
HETATM   44  N   UNK N   1      36.272  10.361  14.280  0.00  0.00    -0.341 N 
HETATM   45  O   UNK N   1      35.079   8.491  14.628  0.00  0.00    -0.271 OA
HETATM   46  C   UNK N   1      35.613  13.658  12.385  0.00  0.00     0.172 C 
HETATM   47  O   UNK N   1      34.546  12.894  10.453  0.00  0.00    -0.271 OA
HETATM   48  C   UNK N   1      35.347  10.809  13.277  0.00  0.00     0.179 C 
HETATM   49  C   UNK N   1      37.379  11.236  14.618  0.00  0.00     0.153 C 
HETATM   50  N   UNK N   1      34.730  13.267  13.438  0.00  0.00    -0.346 N 
HETATM   51  C   UNK N   1      36.387  14.907  12.780  0.00  0.00     0.042 C 
HETATM   52  C   UNK N   1      34.576  11.987  13.848  0.00  0.00     0.241 C 
HETATM   53  O   UNK N   1      33.818  11.767  14.778  0.00  0.00    -0.271 OA
HETATM   54  H   UNK N   1      38.050   8.102  10.599  0.00  0.00     0.163 HD
HETATM   55  H   UNK N   1      38.672   9.792  15.729  0.00  0.00     0.163 HD
HETATM   56  H   UNK N   1      34.309  15.768  11.580  0.00  0.00     0.163 HD
HETATM   57  H   UNK N   1      34.206  13.966  13.890  0.00  0.00     0.163 HD
ENDROOT
BRANCH   1  58
HETATM   58  C   UNK N   1      35.972   6.935   6.809  0.00  0.00     0.154 C 
BRANCH  58  59
HETATM   59  C   UNK N   1      37.441   6.922   6.342  0.00  0.00     0.016 C 
HETATM   60  C   UNK N   1      37.627   7.729   5.069  0.00  0.00     0.013 C 
BRANCH  59  61
HETATM   61  C   UNK N   1      37.948   5.514   6.067  0.00  0.00     0.033 C 
BRANCH  61  62
HETATM   62  C   UNK N   1      39.237   5.249   6.771  0.00  0.00    -0.031 C 
HETATM   63  C   UNK N   1      39.693   6.099   7.688  0.00  0.00    -0.035 C 
HETATM   64  C   UNK N   1      40.979   5.821   8.380  0.00  0.00     0.036 C 
ENDBRANCH  61  62
ENDBRANCH  59  61
ENDBRANCH  58  59
BRANCH  58  65
HETATM   65  O   UNK N   1      35.484   5.642   6.990  0.00  0.00    -0.393 OA
HETATM   66  H   UNK N   1      35.903   4.810   7.264  0.00  0.00     0.210 HD
ENDBRANCH  58  65
ENDBRANCH   1  58
BRANCH   8  67
HETATM   67  C   UNK N   1      36.136  10.995   7.389  0.00  0.00     0.009 C 
HETATM   68  C   UNK N   1      35.729  12.356   7.905  0.00  0.00     0.012 C 
HETATM   69  C   UNK N   1      37.338  11.175   6.484  0.00  0.00     0.012 C 
ENDBRANCH   8  67
BRANCH  10  70
HETATM   70  C   UNK N   1      35.763   7.017  11.842  0.00  0.00     0.030 C 
HETATM   71  C   UNK N   1      34.395   6.358  11.866  0.00  0.00     0.007 C 
ENDBRANCH  10  70
BRANCH  17  72
HETATM   72  C   UNK N   1      32.577  12.717   3.559  0.00  0.00     0.039 C 
BRANCH  72  73
HETATM   73  C   UNK N   1      33.053  13.577   2.402  0.00  0.00    -0.020 C 
HETATM   74  C   UNK N   1      33.215  12.694   1.181  0.00  0.00     0.009 C 
HETATM   75  C   UNK N   1      34.398  14.181   2.740  0.00  0.00     0.009 C 
ENDBRANCH  72  73
ENDBRANCH  17  72
BRANCH  27  76
HETATM   76  C   UNK N   1      31.087  16.791   6.924  0.00  0.00     0.039 C 
BRANCH  76  77
HETATM   77  C   UNK N   1      30.261  17.087   8.178  0.00  0.00    -0.020 C 
HETATM   78  C   UNK N   1      28.765  16.974   7.955  0.00  0.00     0.009 C 
HETATM   79  C   UNK N   1      30.619  18.410   8.821  0.00  0.00     0.009 C 
ENDBRANCH  76  77
ENDBRANCH  27  76
BRANCH  29  80
HETATM   80  C   UNK N   1      38.915   5.925  16.614  0.00  0.00     0.039 C 
BRANCH  80  81
HETATM   81  C   UNK N   1      40.223   5.199  16.825  0.00  0.00    -0.020 C 
HETATM   82  C   UNK N   1      40.717   4.732  15.475  0.00  0.00     0.009 C 
HETATM   83  C   UNK N   1      41.242   6.150  17.424  0.00  0.00     0.009 C 
ENDBRANCH  80  81
ENDBRANCH  29  80
BRANCH  39  84
HETATM   84  C   UNK N   1      36.570   9.430  17.397  0.00  0.00     0.009 C 
HETATM   85  C   UNK N   1      37.160   8.820  18.660  0.00  0.00     0.012 C 
HETATM   86  C   UNK N   1      35.083   9.633  17.576  0.00  0.00     0.012 C 
ENDBRANCH  39  84
BRANCH  48  87
HETATM   87  C   UNK N   1      35.921  10.810  11.835  0.00  0.00     0.039 C 
BRANCH  87  88
HETATM   88  C   UNK N   1      37.428  11.053  11.687  0.00  0.00    -0.020 C 
HETATM   89  C   UNK N   1      38.197   9.750  11.794  0.00  0.00     0.009 C 
HETATM   90  C   UNK N   1      37.734  11.659  10.338  0.00  0.00     0.009 C 
ENDBRANCH  87  88
ENDBRANCH  48  87
TORSDOF 16
ENDMDL
MODEL 6
REMARK VINA RESULT:      -6.6      7.209     12.716
REMARK  16 active torsions:
REMARK  status: ('A' for Active; 'I' for Inactive)
REMARK    1  A    between atoms: C_1  and  C_4 
REMARK    2  A    between atoms: C_4  and  C_9 
REMARK    3  A    between atoms: C_4  and  O_10 
REMARK    4  A    between atoms: C_9  and  C_14 
REMARK    5  A    between atoms: C_11  and  C_79 
REMARK    6  A    between atoms: C_13  and  C_18 
REMARK    7  A    between atoms: C_14  and  C_19 
REMARK    8  A    between atoms: C_26  and  C_32 
REMARK    9  A    between atoms: C_32  and  C_36 
REMARK   10  A    between atoms: C_39  and  C_46 
REMARK   11  A    between atoms: C_43  and  C_48 
REMARK   12  A    between atoms: C_46  and  C_51 
REMARK   13  A    between atoms: C_48  and  C_54 
REMARK   14  A    between atoms: C_59  and  C_65 
REMARK   15  A    between atoms: C_73  and  C_82 
REMARK   16  A    between atoms: C_82  and  C_83 
ROOT
HETATM    1  C   UNK N   1      34.649  13.397   6.277  0.00  0.00     0.207 C 
HETATM    2  N   UNK N   1      35.417  12.428   5.512  0.00  0.00    -0.339 N 
HETATM    3  C   UNK N   1      33.722  12.893   7.359  0.00  0.00     0.243 C 
HETATM    4  C   UNK N   1      34.964  11.848   4.357  0.00  0.00     0.243 C 
HETATM    5  C   UNK N   1      36.778  12.182   5.929  0.00  0.00     0.153 C 
HETATM    6  N   UNK N   1      34.196  12.706   8.609  0.00  0.00    -0.346 N 
HETATM    7  O   UNK N   1      32.534  12.744   7.144  0.00  0.00    -0.271 OA
HETATM    8  C   UNK N   1      33.511  12.005   3.910  0.00  0.00     0.182 C 
HETATM    9  O   UNK N   1      35.738  11.194   3.679  0.00  0.00    -0.271 OA
HETATM   10  C   UNK N   1      35.545  13.084   8.904  0.00  0.00     0.176 C 
HETATM   11  N   UNK N   1      33.208  11.748   2.506  0.00  0.00    -0.341 N 
HETATM   12  C   UNK N   1      35.569  14.440   9.586  0.00  0.00     0.242 C 
HETATM   13  C   UNK N   1      33.479  10.550   1.895  0.00  0.00     0.243 C 
HETATM   14  C   UNK N   1      32.422  12.750   1.827  0.00  0.00     0.153 C 
HETATM   15  N   UNK N   1      35.274  14.630  10.915  0.00  0.00    -0.346 N 
HETATM   16  O   UNK N   1      35.785  15.411   8.877  0.00  0.00    -0.271 OA
HETATM   17  C   UNK N   1      32.886  10.172   0.553  0.00  0.00     0.179 C 
HETATM   18  O   UNK N   1      34.152   9.704   2.473  0.00  0.00    -0.271 OA
HETATM   19  C   UNK N   1      35.124  13.531  11.852  0.00  0.00     0.228 C 
HETATM   20  C   UNK N   1      35.168  15.972  11.436  0.00  0.00     0.153 C 
HETATM   21  N   UNK N   1      33.112   8.765   0.260  0.00  0.00    -0.341 N 
HETATM   22  C   UNK N   1      36.457  12.843  12.046  0.00  0.00     0.238 C 
HETATM   23  C   UNK N   1      32.354   7.821   0.914  0.00  0.00     0.243 C 
HETATM   24  C   UNK N   1      34.246   8.393  -0.553  0.00  0.00     0.153 C 
HETATM   25  N   UNK N   1      36.581  11.687  12.756  0.00  0.00    -0.342 N 
HETATM   26  O   UNK N   1      37.448  13.324  11.509  0.00  0.00    -0.272 OA
HETATM   27  C   UNK N   1      32.618   6.325   0.814  0.00  0.00     0.179 C 
HETATM   28  O   UNK N   1      31.458   8.191   1.664  0.00  0.00    -0.271 OA
HETATM   29  C   UNK N   1      35.566  11.286  13.722  0.00  0.00     0.179 C 
HETATM   30  C   UNK N   1      37.870  11.023  12.765  0.00  0.00     0.153 C 
HETATM   31  N   UNK N   1      31.777   5.476   1.645  0.00  0.00    -0.341 N 
HETATM   32  C   UNK N   1      34.548  10.234  13.329  0.00  0.00     0.241 C 
HETATM   33  C   UNK N   1      32.062   5.289   2.966  0.00  0.00     0.242 C 
HETATM   34  C   UNK N   1      30.601   4.869   1.076  0.00  0.00     0.153 C 
HETATM   35  N   UNK N   1      34.869   8.971  12.954  0.00  0.00    -0.346 N 
HETATM   36  O   UNK N   1      33.368  10.525  13.427  0.00  0.00    -0.271 OA
HETATM   37  C   UNK N   1      33.271   5.918   3.614  0.00  0.00     0.172 C 
HETATM   38  O   UNK N   1      31.312   4.597   3.651  0.00  0.00    -0.271 OA
HETATM   39  C   UNK N   1      36.182   8.521  12.568  0.00  0.00     0.180 C 
HETATM   40  N   UNK N   1      33.249   5.639   5.025  0.00  0.00    -0.346 N 
HETATM   41  C   UNK N   1      34.562   5.384   3.020  0.00  0.00     0.042 C 
HETATM   42  C   UNK N   1      36.236   8.539  11.066  0.00  0.00     0.243 C 
HETATM   43  C   UNK N   1      33.489   6.598   5.940  0.00  0.00     0.240 C 
HETATM   44  N   UNK N   1      35.214   8.037  10.305  0.00  0.00    -0.341 N 
HETATM   45  O   UNK N   1      37.218   9.026  10.526  0.00  0.00    -0.271 OA
HETATM   46  C   UNK N   1      33.384   6.292   7.389  0.00  0.00     0.172 C 
HETATM   47  O   UNK N   1      33.906   7.689   5.591  0.00  0.00    -0.271 OA
HETATM   48  C   UNK N   1      35.351   7.996   8.875  0.00  0.00     0.179 C 
HETATM   49  C   UNK N   1      34.027   7.439  10.888  0.00  0.00     0.153 C 
HETATM   50  N   UNK N   1      34.655   5.796   7.815  0.00  0.00    -0.346 N 
HETATM   51  C   UNK N   1      32.291   5.279   7.700  0.00  0.00     0.042 C 
HETATM   52  C   UNK N   1      35.569   6.549   8.470  0.00  0.00     0.241 C 
HETATM   53  O   UNK N   1      36.611   6.017   8.817  0.00  0.00    -0.271 OA
HETATM   54  H   UNK N   1      33.623  12.314   9.306  0.00  0.00     0.163 HD
HETATM   55  H   UNK N   1      34.143   8.306  12.944  0.00  0.00     0.163 HD
HETATM   56  H   UNK N   1      33.053   4.724   5.331  0.00  0.00     0.163 HD
HETATM   57  H   UNK N   1      34.877   4.858   7.622  0.00  0.00     0.163 HD
ENDROOT
BRANCH   1  58
HETATM   58  C   UNK N   1      34.469  14.795   5.677  0.00  0.00     0.154 C 
BRANCH  58  59
HETATM   59  C   UNK N   1      33.089  15.379   6.040  0.00  0.00     0.016 C 
HETATM   60  C   UNK N   1      32.218  15.555   4.808  0.00  0.00     0.013 C 
BRANCH  59  61
HETATM   61  C   UNK N   1      33.196  16.736   6.720  0.00  0.00     0.033 C 
BRANCH  61  62
HETATM   62  C   UNK N   1      31.892  17.156   7.312  0.00  0.00    -0.031 C 
HETATM   63  C   UNK N   1      31.860  17.925   8.397  0.00  0.00    -0.035 C 
HETATM   64  C   UNK N   1      30.552  18.334   8.975  0.00  0.00     0.036 C 
ENDBRANCH  61  62
ENDBRANCH  59  61
ENDBRANCH  58  59
BRANCH  58  65
HETATM   65  O   UNK N   1      35.502  15.637   6.086  0.00  0.00    -0.393 OA
HETATM   66  H   UNK N   1      36.469  15.555   6.062  0.00  0.00     0.210 HD
ENDBRANCH  58  65
ENDBRANCH   1  58
BRANCH   8  67
HETATM   67  C   UNK N   1      32.505  11.292   4.829  0.00  0.00     0.009 C 
HETATM   68  C   UNK N   1      32.349   9.815   4.546  0.00  0.00     0.012 C 
HETATM   69  C   UNK N   1      31.137  11.935   4.743  0.00  0.00     0.012 C 
ENDBRANCH   8  67
BRANCH  10  70
HETATM   70  C   UNK N   1      36.414  11.906   9.316  0.00  0.00     0.030 C 
HETATM   71  C   UNK N   1      37.825  12.061   8.778  0.00  0.00     0.007 C 
ENDBRANCH  10  70
BRANCH  17  72
HETATM   72  C   UNK N   1      33.044  11.120  -0.647  0.00  0.00     0.039 C 
BRANCH  72  73
HETATM   73  C   UNK N   1      31.970  10.957  -1.708  0.00  0.00    -0.020 C 
HETATM   74  C   UNK N   1      32.428  11.664  -2.968  0.00  0.00     0.009 C 
HETATM   75  C   UNK N   1      30.687  11.603  -1.234  0.00  0.00     0.009 C 
ENDBRANCH  72  73
ENDBRANCH  17  72
BRANCH  27  76
HETATM   76  C   UNK N   1      33.378   5.649  -0.338  0.00  0.00     0.039 C 
BRANCH  76  77
HETATM   77  C   UNK N   1      34.064   4.317  -0.024  0.00  0.00    -0.020 C 
HETATM   78  C   UNK N   1      35.544   4.306  -0.356  0.00  0.00     0.009 C 
HETATM   79  C   UNK N   1      33.357   3.130  -0.644  0.00  0.00     0.009 C 
ENDBRANCH  76  77
ENDBRANCH  27  76
BRANCH  29  80
HETATM   80  C   UNK N   1      36.220  10.954  15.058  0.00  0.00     0.039 C 
BRANCH  80  81
HETATM   81  C   UNK N   1      35.896  11.969  16.128  0.00  0.00    -0.020 C 
HETATM   82  C   UNK N   1      34.907  12.954  15.549  0.00  0.00     0.009 C 
HETATM   83  C   UNK N   1      35.264  11.272  17.318  0.00  0.00     0.009 C 
ENDBRANCH  80  81
ENDBRANCH  29  80
BRANCH  39  84
HETATM   84  C   UNK N   1      36.578   7.137  13.134  0.00  0.00     0.009 C 
HETATM   85  C   UNK N   1      35.963   6.754  14.472  0.00  0.00     0.012 C 
HETATM   86  C   UNK N   1      38.075   6.941  13.186  0.00  0.00     0.012 C 
ENDBRANCH  39  84
BRANCH  48  87
HETATM   87  C   UNK N   1      34.377   8.937   8.115  0.00  0.00     0.039 C 
BRANCH  87  88
HETATM   88  C   UNK N   1      32.997   9.163   8.742  0.00  0.00    -0.020 C 
HETATM   89  C   UNK N   1      33.020  10.355   9.679  0.00  0.00     0.009 C 
HETATM   90  C   UNK N   1      31.969   9.438   7.671  0.00  0.00     0.009 C 
ENDBRANCH  87  88
ENDBRANCH  48  87
TORSDOF 16
ENDMDL
MODEL 7
REMARK VINA RESULT:      -6.5      8.576     13.233
REMARK  16 active torsions:
REMARK  status: ('A' for Active; 'I' for Inactive)
REMARK    1  A    between atoms: C_1  and  C_4 
REMARK    2  A    between atoms: C_4  and  C_9 
REMARK    3  A    between atoms: C_4  and  O_10 
REMARK    4  A    between atoms: C_9  and  C_14 
REMARK    5  A    between atoms: C_11  and  C_79 
REMARK    6  A    between atoms: C_13  and  C_18 
REMARK    7  A    between atoms: C_14  and  C_19 
REMARK    8  A    between atoms: C_26  and  C_32 
REMARK    9  A    between atoms: C_32  and  C_36 
REMARK   10  A    between atoms: C_39  and  C_46 
REMARK   11  A    between atoms: C_43  and  C_48 
REMARK   12  A    between atoms: C_46  and  C_51 
REMARK   13  A    between atoms: C_48  and  C_54 
REMARK   14  A    between atoms: C_59  and  C_65 
REMARK   15  A    between atoms: C_73  and  C_82 
REMARK   16  A    between atoms: C_82  and  C_83 
ROOT
HETATM    1  C   UNK N   1      34.087  13.264   8.282  0.00  0.00     0.207 C 
HETATM    2  N   UNK N   1      33.895  11.940   8.850  0.00  0.00    -0.339 N 
HETATM    3  C   UNK N   1      35.364  13.549   7.527  0.00  0.00     0.243 C 
HETATM    4  C   UNK N   1      34.297  11.593  10.112  0.00  0.00     0.243 C 
HETATM    5  C   UNK N   1      33.114  10.996   8.083  0.00  0.00     0.153 C 
HETATM    6  N   UNK N   1      35.430  13.282   6.205  0.00  0.00    -0.346 N 
HETATM    7  O   UNK N   1      36.302  14.101   8.071  0.00  0.00    -0.271 OA
HETATM    8  C   UNK N   1      35.194  12.516  10.937  0.00  0.00     0.182 C 
HETATM    9  O   UNK N   1      33.933  10.528  10.579  0.00  0.00    -0.271 OA
HETATM   10  C   UNK N   1      34.253  12.829   5.528  0.00  0.00     0.176 C 
HETATM   11  N   UNK N   1      35.227  12.306  12.381  0.00  0.00    -0.341 N 
HETATM   12  C   UNK N   1      33.592  13.986   4.801  0.00  0.00     0.242 C 
HETATM   13  C   UNK N   1      35.587  11.111  12.950  0.00  0.00     0.243 C 
HETATM   14  C   UNK N   1      35.051  13.480  13.202  0.00  0.00     0.153 C 
HETATM   15  N   UNK N   1      34.034  14.483   3.598  0.00  0.00    -0.346 N 
HETATM   16  O   UNK N   1      32.666  14.541   5.373  0.00  0.00    -0.271 OA
HETATM   17  C   UNK N   1      35.929  10.984  14.421  0.00  0.00     0.179 C 
HETATM   18  O   UNK N   1      35.730  10.115  12.250  0.00  0.00    -0.271 OA
HETATM   19  C   UNK N   1      35.043  13.816   2.795  0.00  0.00     0.228 C 
HETATM   20  C   UNK N   1      33.439  15.684   3.063  0.00  0.00     0.153 C 
HETATM   21  N   UNK N   1      36.530   9.690  14.708  0.00  0.00    -0.341 N 
HETATM   22  C   UNK N   1      34.493  12.508   2.272  0.00  0.00     0.238 C 
HETATM   23  C   UNK N   1      37.836   9.468  14.337  0.00  0.00     0.243 C 
HETATM   24  C   UNK N   1      35.688   8.620  15.191  0.00  0.00     0.153 C 
HETATM   25  N   UNK N   1      35.272  11.605   1.612  0.00  0.00    -0.342 N 
HETATM   26  O   UNK N   1      33.317  12.239   2.489  0.00  0.00    -0.272 OA
HETATM   27  C   UNK N   1      38.509   8.107  14.433  0.00  0.00     0.179 C 
HETATM   28  O   UNK N   1      38.482  10.389  13.849  0.00  0.00    -0.271 OA
HETATM   29  C   UNK N   1      36.525  12.008   0.988  0.00  0.00     0.179 C 
HETATM   30  C   UNK N   1      34.694  10.318   1.278  0.00  0.00     0.153 C 
HETATM   31  N   UNK N   1      39.866   8.032  13.911  0.00  0.00    -0.341 N 
HETATM   32  C   UNK N   1      37.831  11.717   1.699  0.00  0.00     0.241 C 
HETATM   33  C   UNK N   1      40.093   7.887  12.574  0.00  0.00     0.242 C 
HETATM   34  C   UNK N   1      40.981   8.166  14.813  0.00  0.00     0.153 C 
HETATM   35  N   UNK N   1      38.253  10.472   2.032  0.00  0.00    -0.346 N 
HETATM   36  O   UNK N   1      38.577  12.656   1.919  0.00  0.00    -0.271 OA
HETATM   37  C   UNK N   1      38.960   7.761  11.584  0.00  0.00     0.172 C 
HETATM   38  O   UNK N   1      41.250   7.865  12.158  0.00  0.00    -0.271 OA
HETATM   39  C   UNK N   1      37.429   9.290   2.059  0.00  0.00     0.180 C 
HETATM   40  N   UNK N   1      39.498   7.736  10.250  0.00  0.00    -0.346 N 
HETATM   41  C   UNK N   1      38.151   6.499  11.821  0.00  0.00     0.042 C 
HETATM   42  C   UNK N   1      37.002   9.077   3.483  0.00  0.00     0.243 C 
HETATM   43  C   UNK N   1      38.969   8.478   9.260  0.00  0.00     0.240 C 
HETATM   44  N   UNK N   1      37.888   9.179   4.523  0.00  0.00    -0.341 N 
HETATM   45  O   UNK N   1      35.828   8.818   3.705  0.00  0.00    -0.271 OA
HETATM   46  C   UNK N   1      39.596   8.484   7.914  0.00  0.00     0.172 C 
HETATM   47  O   UNK N   1      37.909   9.058   9.425  0.00  0.00    -0.271 OA
HETATM   48  C   UNK N   1      37.451   8.880   5.858  0.00  0.00     0.179 C 
HETATM   49  C   UNK N   1      39.295   9.477   4.323  0.00  0.00     0.153 C 
HETATM   50  N   UNK N   1      39.035   7.397   7.175  0.00  0.00    -0.346 N 
HETATM   51  C   UNK N   1      41.111   8.361   7.968  0.00  0.00     0.042 C 
HETATM   52  C   UNK N   1      38.053   7.544   6.256  0.00  0.00     0.241 C 
HETATM   53  O   UNK N   1      37.669   6.552   5.660  0.00  0.00    -0.271 OA
HETATM   54  H   UNK N   1      36.275  13.398   5.714  0.00  0.00     0.163 HD
HETATM   55  H   UNK N   1      39.201  10.368   2.276  0.00  0.00     0.163 HD
HETATM   56  H   UNK N   1      40.273   7.161  10.056  0.00  0.00     0.163 HD
HETATM   57  H   UNK N   1      39.382   6.491   7.345  0.00  0.00     0.163 HD
ENDROOT
BRANCH   1  58
HETATM   58  C   UNK N   1      33.233  14.407   8.840  0.00  0.00     0.154 C 
BRANCH  58  59
HETATM   59  C   UNK N   1      33.875  15.776   8.536  0.00  0.00     0.016 C 
HETATM   60  C   UNK N   1      34.278  16.497   9.811  0.00  0.00     0.013 C 
BRANCH  59  61
HETATM   61  C   UNK N   1      32.939  16.696   7.768  0.00  0.00     0.033 C 
BRANCH  61  62
HETATM   62  C   UNK N   1      32.176  17.592   8.687  0.00  0.00    -0.031 C 
HETATM   63  C   UNK N   1      30.872  17.787   8.512  0.00  0.00    -0.035 C 
HETATM   64  C   UNK N   1      30.127  18.683   9.436  0.00  0.00     0.036 C 
ENDBRANCH  61  62
ENDBRANCH  59  61
ENDBRANCH  58  59
BRANCH  58  65
HETATM   65  O   UNK N   1      31.934  14.332   8.340  0.00  0.00    -0.393 OA
HETATM   66  H   UNK N   1      31.504  13.738   7.704  0.00  0.00     0.210 HD
ENDBRANCH  58  65
ENDBRANCH   1  58
BRANCH   8  67
HETATM   67  C   UNK N   1      36.616  12.658  10.370  0.00  0.00     0.009 C 
HETATM   68  C   UNK N   1      37.592  11.623  10.882  0.00  0.00     0.012 C 
HETATM   69  C   UNK N   1      37.187  14.030  10.666  0.00  0.00     0.012 C 
ENDBRANCH   8  67
BRANCH  10  70
HETATM   70  C   UNK N   1      34.405  11.431   4.948  0.00  0.00     0.030 C 
HETATM   71  C   UNK N   1      33.116  10.642   5.096  0.00  0.00     0.007 C 
ENDBRANCH  10  70
BRANCH  17  72
HETATM   72  C   UNK N   1      34.939  11.492  15.481  0.00  0.00     0.039 C 
BRANCH  72  73
HETATM   73  C   UNK N   1      35.602  12.107  16.701  0.00  0.00    -0.020 C 
HETATM   74  C   UNK N   1      35.394  11.179  17.881  0.00  0.00     0.009 C 
HETATM   75  C   UNK N   1      34.953  13.437  17.014  0.00  0.00     0.009 C 
ENDBRANCH  72  73
ENDBRANCH  17  72
BRANCH  27  76
HETATM   76  C   UNK N   1      38.049   6.970  15.359  0.00  0.00     0.039 C 
BRANCH  76  77
HETATM   77  C   UNK N   1      38.666   6.929  16.760  0.00  0.00    -0.020 C 
HETATM   78  C   UNK N   1      38.837   5.523  17.303  0.00  0.00     0.009 C 
HETATM   79  C   UNK N   1      37.939   7.812  17.751  0.00  0.00     0.009 C 
ENDBRANCH  76  77
ENDBRANCH  27  76
BRANCH  29  80
HETATM   80  C   UNK N   1      36.563  11.533  -0.459  0.00  0.00     0.039 C 
BRANCH  80  81
HETATM   81  C   UNK N   1      36.222  12.631  -1.438  0.00  0.00    -0.020 C 
HETATM   82  C   UNK N   1      34.765  12.486  -1.809  0.00  0.00     0.009 C 
HETATM   83  C   UNK N   1      36.435  13.982  -0.782  0.00  0.00     0.009 C 
ENDBRANCH  80  81
ENDBRANCH  29  80
BRANCH  39  84
HETATM   84  C   UNK N   1      38.103   8.027   1.473  0.00  0.00     0.009 C 
HETATM   85  C   UNK N   1      39.345   8.255   0.625  0.00  0.00     0.012 C 
HETATM   86  C   UNK N   1      37.128   7.147   0.723  0.00  0.00     0.012 C 
ENDBRANCH  39  84
BRANCH  48  87
HETATM   87  C   UNK N   1      37.434  10.104   6.812  0.00  0.00     0.039 C 
BRANCH  87  88
HETATM   88  C   UNK N   1      38.482  11.195   6.562  0.00  0.00    -0.020 C 
HETATM   89  C   UNK N   1      37.976  12.207   5.552  0.00  0.00     0.009 C 
HETATM   90  C   UNK N   1      38.789  11.935   7.843  0.00  0.00     0.009 C 
ENDBRANCH  87  88
ENDBRANCH  48  87
TORSDOF 16
ENDMDL
MODEL 8
REMARK VINA RESULT:      -6.2      6.642     12.689
REMARK  16 active torsions:
REMARK  status: ('A' for Active; 'I' for Inactive)
REMARK    1  A    between atoms: C_1  and  C_4 
REMARK    2  A    between atoms: C_4  and  C_9 
REMARK    3  A    between atoms: C_4  and  O_10 
REMARK    4  A    between atoms: C_9  and  C_14 
REMARK    5  A    between atoms: C_11  and  C_79 
REMARK    6  A    between atoms: C_13  and  C_18 
REMARK    7  A    between atoms: C_14  and  C_19 
REMARK    8  A    between atoms: C_26  and  C_32 
REMARK    9  A    between atoms: C_32  and  C_36 
REMARK   10  A    between atoms: C_39  and  C_46 
REMARK   11  A    between atoms: C_43  and  C_48 
REMARK   12  A    between atoms: C_46  and  C_51 
REMARK   13  A    between atoms: C_48  and  C_54 
REMARK   14  A    between atoms: C_59  and  C_65 
REMARK   15  A    between atoms: C_73  and  C_82 
REMARK   16  A    between atoms: C_82  and  C_83 
ROOT
HETATM    1  C   UNK N   1      33.714  13.677   4.784  0.00  0.00     0.207 C 
HETATM    2  N   UNK N   1      34.561  12.798   3.995  0.00  0.00    -0.339 N 
HETATM    3  C   UNK N   1      33.096  13.138   6.054  0.00  0.00     0.243 C 
HETATM    4  C   UNK N   1      34.087  11.989   2.997  0.00  0.00     0.243 C 
HETATM    5  C   UNK N   1      35.989  12.899   4.193  0.00  0.00     0.153 C 
HETATM    6  N   UNK N   1      33.779  13.220   7.215  0.00  0.00    -0.346 N 
HETATM    7  O   UNK N   1      31.954  12.717   6.062  0.00  0.00    -0.271 OA
HETATM    8  C   UNK N   1      32.586  11.779   2.795  0.00  0.00     0.182 C 
HETATM    9  O   UNK N   1      34.881  11.428   2.261  0.00  0.00    -0.271 OA
HETATM   10  C   UNK N   1      35.034  13.908   7.235  0.00  0.00     0.176 C 
HETATM   11  N   UNK N   1      32.147  11.281   1.495  0.00  0.00    -0.341 N 
HETATM   12  C   UNK N   1      34.849  15.316   7.769  0.00  0.00     0.242 C 
HETATM   13  C   UNK N   1      32.590  10.097   0.964  0.00  0.00     0.243 C 
HETATM   14  C   UNK N   1      31.061  11.999   0.869  0.00  0.00     0.153 C 
HETATM   15  N   UNK N   1      34.719  15.614   9.105  0.00  0.00    -0.346 N 
HETATM   16  O   UNK N   1      34.733  16.209   6.944  0.00  0.00    -0.271 OA
HETATM   17  C   UNK N   1      31.908   9.429  -0.212  0.00  0.00     0.179 C 
HETATM   18  O   UNK N   1      33.516   9.493   1.496  0.00  0.00    -0.271 OA
HETATM   19  C   UNK N   1      34.962  14.641  10.154  0.00  0.00     0.228 C 
HETATM   20  C   UNK N   1      34.388  16.961   9.505  0.00  0.00     0.153 C 
HETATM   21  N   UNK N   1      32.402   8.074  -0.403  0.00  0.00    -0.341 N 
HETATM   22  C   UNK N   1      36.430  14.278  10.181  0.00  0.00     0.238 C 
HETATM   23  C   UNK N   1      31.984   7.087   0.460  0.00  0.00     0.243 C 
HETATM   24  C   UNK N   1      33.458   7.843  -1.360  0.00  0.00     0.153 C 
HETATM   25  N   UNK N   1      36.917  13.277  10.967  0.00  0.00    -0.342 N 
HETATM   26  O   UNK N   1      37.195  14.881   9.437  0.00  0.00    -0.272 OA
HETATM   27  C   UNK N   1      32.562   5.680   0.460  0.00  0.00     0.179 C 
HETATM   28  O   UNK N   1      31.147   7.358   1.314  0.00  0.00    -0.271 OA
HETATM   29  C   UNK N   1      36.174  12.804  12.127  0.00  0.00     0.179 C 
HETATM   30  C   UNK N   1      38.310  12.905  10.817  0.00  0.00     0.153 C 
HETATM   31  N   UNK N   1      32.069   4.791   1.501  0.00  0.00    -0.341 N 
HETATM   32  C   UNK N   1      35.375  11.520  12.019  0.00  0.00     0.241 C 
HETATM   33  C   UNK N   1      32.580   4.843   2.765  0.00  0.00     0.242 C 
HETATM   34  C   UNK N   1      30.991   3.882   1.205  0.00  0.00     0.153 C 
HETATM   35  N   UNK N   1      35.916  10.314  11.717  0.00  0.00    -0.346 N 
HETATM   36  O   UNK N   1      34.188  11.569  12.291  0.00  0.00    -0.271 OA
HETATM   37  C   UNK N   1      33.697   5.791   3.132  0.00  0.00     0.172 C 
HETATM   38  O   UNK N   1      32.117   4.107   3.633  0.00  0.00    -0.271 OA
HETATM   39  C   UNK N   1      37.225  10.102  11.155  0.00  0.00     0.180 C 
HETATM   40  N   UNK N   1      33.946   5.702   4.545  0.00  0.00    -0.346 N 
HETATM   41  C   UNK N   1      34.973   5.465   2.377  0.00  0.00     0.042 C 
HETATM   42  C   UNK N   1      37.052   9.932   9.672  0.00  0.00     0.243 C 
HETATM   43  C   UNK N   1      34.094   6.802   5.308  0.00  0.00     0.240 C 
HETATM   44  N   UNK N   1      36.070   9.132   9.150  0.00  0.00    -0.341 N 
HETATM   45  O   UNK N   1      37.807  10.538   8.926  0.00  0.00    -0.271 OA
HETATM   46  C   UNK N   1      34.276   6.674   6.776  0.00  0.00     0.172 C 
HETATM   47  O   UNK N   1      34.197   7.900   4.789  0.00  0.00    -0.271 OA
HETATM   48  C   UNK N   1      36.001   8.933   7.729  0.00  0.00     0.179 C 
HETATM   49  C   UNK N   1      35.149   8.382   9.984  0.00  0.00     0.153 C 
HETATM   50  N   UNK N   1      35.675   6.516   7.022  0.00  0.00    -0.346 N 
HETATM   51  C   UNK N   1      33.500   5.506   7.367  0.00  0.00     0.042 C 
HETATM   52  C   UNK N   1      36.481   7.522   7.434  0.00  0.00     0.241 C 
HETATM   53  O   UNK N   1      37.655   7.270   7.645  0.00  0.00    -0.271 OA
HETATM   54  H   UNK N   1      33.419  12.813   8.035  0.00  0.00     0.163 HD
HETATM   55  H   UNK N   1      35.367   9.517  11.897  0.00  0.00     0.163 HD
HETATM   56  H   UNK N   1      34.011   4.815   4.967  0.00  0.00     0.163 HD
HETATM   57  H   UNK N   1      36.074   5.627   6.884  0.00  0.00     0.163 HD
ENDROOT
BRANCH   1  58
HETATM   58  C   UNK N   1      33.135  14.915   4.093  0.00  0.00     0.154 C 
BRANCH  58  59
HETATM   59  C   UNK N   1      31.709  15.215   4.600  0.00  0.00     0.016 C 
HETATM   60  C   UNK N   1      30.689  15.123   3.478  0.00  0.00     0.013 C 
BRANCH  59  61
HETATM   61  C   UNK N   1      31.593  16.604   5.209  0.00  0.00     0.033 C 
BRANCH  61  62
HETATM   62  C   UNK N   1      30.666  16.613   6.379  0.00  0.00    -0.031 C 
HETATM   63  C   UNK N   1      29.685  17.509   6.457  0.00  0.00    -0.035 C 
HETATM   64  C   UNK N   1      28.771  17.505   7.629  0.00  0.00     0.036 C 
ENDBRANCH  61  62
ENDBRANCH  59  61
ENDBRANCH  58  59
BRANCH  58  65
HETATM   65  O   UNK N   1      33.978  16.010   4.269  0.00  0.00    -0.393 OA
HETATM   66  H   UNK N   1      33.917  16.810   4.817  0.00  0.00     0.210 HD
ENDBRANCH  58  65
ENDBRANCH   1  58
BRANCH   8  67
HETATM   67  C   UNK N   1      31.916  10.998   3.938  0.00  0.00     0.009 C 
HETATM   68  C   UNK N   1      31.981   9.497   3.782  0.00  0.00     0.012 C 
HETATM   69  C   UNK N   1      30.461  11.394   4.088  0.00  0.00     0.012 C 
ENDBRANCH   8  67
BRANCH  10  70
HETATM   70  C   UNK N   1      36.200  13.002   7.602  0.00  0.00     0.030 C 
HETATM   71  C   UNK N   1      37.443  13.376   6.816  0.00  0.00     0.007 C 
ENDBRANCH  10  70
BRANCH  17  72
HETATM   72  C   UNK N   1      31.667  10.223  -1.506  0.00  0.00     0.039 C 
BRANCH  72  73
HETATM   73  C   UNK N   1      30.486   9.728  -2.323  0.00  0.00    -0.020 C 
HETATM   74  C   UNK N   1      30.093  10.814  -3.305  0.00  0.00     0.009 C 
HETATM   75  C   UNK N   1      29.313   9.461  -1.407  0.00  0.00     0.009 C 
ENDBRANCH  72  73
ENDBRANCH  17  72
BRANCH  27  76
HETATM   76  C   UNK N   1      33.279   5.032  -0.736  0.00  0.00     0.039 C 
BRANCH  76  77
HETATM   77  C   UNK N   1      34.292   3.929  -0.418  0.00  0.00    -0.020 C 
HETATM   78  C   UNK N   1      35.668   4.187  -1.002  0.00  0.00     0.009 C 
HETATM   79  C   UNK N   1      33.794   2.548  -0.784  0.00  0.00     0.009 C 
ENDBRANCH  76  77
ENDBRANCH  27  76
BRANCH  29  80
HETATM   80  C   UNK N   1      37.075  12.795  13.356  0.00  0.00     0.039 C 
BRANCH  80  81
HETATM   81  C   UNK N   1      36.302  12.965  14.641  0.00  0.00    -0.020 C 
HETATM   82  C   UNK N   1      36.534  11.736  15.489  0.00  0.00     0.009 C 
HETATM   83  C   UNK N   1      36.813  14.184  15.386  0.00  0.00     0.009 C 
ENDBRANCH  80  81
ENDBRANCH  29  80
BRANCH  39  84
HETATM   84  C   UNK N   1      38.004   8.918  11.775  0.00  0.00     0.009 C 
HETATM   85  C   UNK N   1      38.361   9.041  13.249  0.00  0.00     0.012 C 
HETATM   86  C   UNK N   1      39.239   8.559  10.980  0.00  0.00     0.012 C 
ENDBRANCH  39  84
BRANCH  48  87
HETATM   87  C   UNK N   1      34.738   9.540   7.062  0.00  0.00     0.039 C 
BRANCH  87  88
HETATM   88  C   UNK N   1      33.454   9.570   7.900  0.00  0.00    -0.020 C 
HETATM   89  C   UNK N   1      33.383  10.838   8.730  0.00  0.00     0.009 C 
HETATM   90  C   UNK N   1      32.239   9.535   7.005  0.00  0.00     0.009 C 
ENDBRANCH  87  88
ENDBRANCH  48  87
TORSDOF 16
ENDMDL
MODEL 9
REMARK VINA RESULT:      -6.1      8.733     14.248
REMARK  16 active torsions:
REMARK  status: ('A' for Active; 'I' for Inactive)
REMARK    1  A    between atoms: C_1  and  C_4 
REMARK    2  A    between atoms: C_4  and  C_9 
REMARK    3  A    between atoms: C_4  and  O_10 
REMARK    4  A    between atoms: C_9  and  C_14 
REMARK    5  A    between atoms: C_11  and  C_79 
REMARK    6  A    between atoms: C_13  and  C_18 
REMARK    7  A    between atoms: C_14  and  C_19 
REMARK    8  A    between atoms: C_26  and  C_32 
REMARK    9  A    between atoms: C_32  and  C_36 
REMARK   10  A    between atoms: C_39  and  C_46 
REMARK   11  A    between atoms: C_43  and  C_48 
REMARK   12  A    between atoms: C_46  and  C_51 
REMARK   13  A    between atoms: C_48  and  C_54 
REMARK   14  A    between atoms: C_59  and  C_65 
REMARK   15  A    between atoms: C_73  and  C_82 
REMARK   16  A    between atoms: C_82  and  C_83 
ROOT
HETATM    1  C   UNK N   1      36.996   8.302   6.703  0.00  0.00     0.207 C 
HETATM    2  N   UNK N   1      35.654   8.844   6.834  0.00  0.00    -0.339 N 
HETATM    3  C   UNK N   1      38.016   8.629   7.769  0.00  0.00     0.243 C 
HETATM    4  C   UNK N   1      35.274  10.055   6.320  0.00  0.00     0.243 C 
HETATM    5  C   UNK N   1      34.647   7.986   7.416  0.00  0.00     0.153 C 
HETATM    6  N   UNK N   1      38.112   7.844   8.863  0.00  0.00    -0.346 N 
HETATM    7  O   UNK N   1      38.815   9.533   7.613  0.00  0.00    -0.271 OA
HETATM    8  C   UNK N   1      36.307  11.038   5.768  0.00  0.00     0.182 C 
HETATM    9  O   UNK N   1      34.092  10.350   6.309  0.00  0.00    -0.271 OA
HETATM   10  C   UNK N   1      37.311   6.659   8.940  0.00  0.00     0.176 C 
HETATM   11  N   UNK N   1      35.826  12.081   4.867  0.00  0.00    -0.341 N 
HETATM   12  C   UNK N   1      38.138   5.446   8.554  0.00  0.00     0.242 C 
HETATM   13  C   UNK N   1      34.859  12.984   5.225  0.00  0.00     0.243 C 
HETATM   14  C   UNK N   1      36.560  12.249   3.635  0.00  0.00     0.153 C 
HETATM   15  N   UNK N   1      39.037   4.836   9.396  0.00  0.00    -0.346 N 
HETATM   16  O   UNK N   1      38.040   5.056   7.400  0.00  0.00    -0.271 OA
HETATM   17  C   UNK N   1      34.591  14.244   4.428  0.00  0.00     0.179 C 
HETATM   18  O   UNK N   1      34.234  12.834   6.270  0.00  0.00    -0.271 OA
HETATM   19  C   UNK N   1      39.129   5.154  10.809  0.00  0.00     0.228 C 
HETATM   20  C   UNK N   1      39.890   3.789   8.888  0.00  0.00     0.153 C 
HETATM   21  N   UNK N   1      33.716  15.148   5.158  0.00  0.00    -0.341 N 
HETATM   22  C   UNK N   1      37.869   4.705  11.515  0.00  0.00     0.238 C 
HETATM   23  C   UNK N   1      34.234  15.868   6.210  0.00  0.00     0.243 C 
HETATM   24  C   UNK N   1      32.297  15.120   4.888  0.00  0.00     0.153 C 
HETATM   25  N   UNK N   1      37.620   5.010  12.820  0.00  0.00    -0.342 N 
HETATM   26  O   UNK N   1      37.030   4.083  10.875  0.00  0.00    -0.272 OA
HETATM   27  C   UNK N   1      33.378  16.710   7.145  0.00  0.00     0.179 C 
HETATM   28  O   UNK N   1      35.433  15.789   6.453  0.00  0.00    -0.271 OA
HETATM   29  C   UNK N   1      38.700   5.382  13.724  0.00  0.00     0.179 C 
HETATM   30  C   UNK N   1      36.323   4.664  13.368  0.00  0.00     0.153 C 
HETATM   31  N   UNK N   1      34.079  17.331   8.260  0.00  0.00    -0.341 N 
HETATM   32  C   UNK N   1      38.921   6.846  14.046  0.00  0.00     0.241 C 
HETATM   33  C   UNK N   1      34.359  16.622   9.392  0.00  0.00     0.242 C 
HETATM   34  C   UNK N   1      34.529  18.695   8.144  0.00  0.00     0.153 C 
HETATM   35  N   UNK N   1      37.992   7.645  14.627  0.00  0.00    -0.346 N 
HETATM   36  O   UNK N   1      40.028   7.311  13.833  0.00  0.00    -0.271 OA
HETATM   37  C   UNK N   1      33.927  15.184   9.556  0.00  0.00     0.172 C 
HETATM   38  O   UNK N   1      34.985  17.161  10.301  0.00  0.00    -0.271 OA
HETATM   39  C   UNK N   1      36.587   7.346  14.741  0.00  0.00     0.180 C 
HETATM   40  N   UNK N   1      34.456  14.670  10.790  0.00  0.00    -0.346 N 
HETATM   41  C   UNK N   1      32.414  15.055   9.568  0.00  0.00     0.042 C 
HETATM   42  C   UNK N   1      35.888   8.052  13.614  0.00  0.00     0.243 C 
HETATM   43  C   UNK N   1      35.051  13.464  10.857  0.00  0.00     0.240 C 
HETATM   44  N   UNK N   1      36.171   9.354  13.297  0.00  0.00    -0.341 N 
HETATM   45  O   UNK N   1      35.057   7.432  12.967  0.00  0.00    -0.271 OA
HETATM   46  C   UNK N   1      35.652  12.997  12.132  0.00  0.00     0.172 C 
HETATM   47  O   UNK N   1      35.000  12.700   9.909  0.00  0.00    -0.271 OA
HETATM   48  C   UNK N   1      35.414  10.012  12.269  0.00  0.00     0.179 C 
HETATM   49  C   UNK N   1      37.141  10.144  14.033  0.00  0.00     0.153 C 
HETATM   50  N   UNK N   1      34.622  12.347  12.878  0.00  0.00    -0.346 N 
HETATM   51  C   UNK N   1      36.261  14.129  12.946  0.00  0.00     0.042 C 
HETATM   52  C   UNK N   1      34.479  11.003  12.942  0.00  0.00     0.241 C 
HETATM   53  O   UNK N   1      33.582  10.551  13.634  0.00  0.00    -0.271 OA
HETATM   54  H   UNK N   1      38.722   8.083   9.597  0.00  0.00     0.163 HD
HETATM   55  H   UNK N   1      38.303   8.500  15.002  0.00  0.00     0.163 HD
HETATM   56  H   UNK N   1      34.381  15.213  11.608  0.00  0.00     0.163 HD
HETATM   57  H   UNK N   1      33.981  12.906  13.373  0.00  0.00     0.163 HD
ENDROOT
BRANCH   1  58
HETATM   58  C   UNK N   1      37.436   7.822   5.316  0.00  0.00     0.154 C 
BRANCH  58  59
HETATM   59  C   UNK N   1      38.965   7.945   5.148  0.00  0.00     0.016 C 
HETATM   60  C   UNK N   1      39.329   9.047   4.168  0.00  0.00     0.013 C 
BRANCH  59  61
HETATM   61  C   UNK N   1      39.596   6.657   4.641  0.00  0.00     0.033 C 
BRANCH  61  62
HETATM   62  C   UNK N   1      39.888   6.730   3.179  0.00  0.00    -0.031 C 
HETATM   63  C   UNK N   1      39.338   5.859   2.337  0.00  0.00    -0.035 C 
HETATM   64  C   UNK N   1      39.640   5.944   0.883  0.00  0.00     0.036 C 
ENDBRANCH  61  62
ENDBRANCH  59  61
ENDBRANCH  58  59
BRANCH  58  65
HETATM   65  O   UNK N   1      37.003   6.516   5.093  0.00  0.00    -0.393 OA
HETATM   66  H   UNK N   1      36.187   6.146   4.721  0.00  0.00     0.210 HD
ENDBRANCH  58  65
ENDBRANCH   1  58
BRANCH   8  67
HETATM   67  C   UNK N   1      37.233  11.626   6.845  0.00  0.00     0.009 C 
HETATM   68  C   UNK N   1      36.655  12.817   7.574  0.00  0.00     0.012 C 
HETATM   69  C   UNK N   1      38.566  12.037   6.253  0.00  0.00     0.012 C 
ENDBRANCH   8  67
BRANCH  10  70
HETATM   70  C   UNK N   1      36.323   6.686  10.096  0.00  0.00     0.030 C 
HETATM   71  C   UNK N   1      35.003   6.056   9.692  0.00  0.00     0.007 C 
ENDBRANCH  10  70
BRANCH  17  72
HETATM   72  C   UNK N   1      34.315  14.149   2.918  0.00  0.00     0.039 C 
BRANCH  72  73
HETATM   73  C   UNK N   1      33.559  12.898   2.507  0.00  0.00    -0.020 C 
HETATM   74  C   UNK N   1      34.083  12.441   1.160  0.00  0.00     0.009 C 
HETATM   75  C   UNK N   1      32.087  13.219   2.365  0.00  0.00     0.009 C 
ENDBRANCH  72  73
ENDBRANCH  17  72
BRANCH  27  76
HETATM   76  C   UNK N   1      31.988  17.264   6.794  0.00  0.00     0.039 C 
BRANCH  76  77
HETATM   77  C   UNK N   1      30.910  17.160   7.877  0.00  0.00    -0.020 C 
HETATM   78  C   UNK N   1      29.525  16.883   7.324  0.00  0.00     0.009 C 
HETATM   79  C   UNK N   1      30.897  18.350   8.811  0.00  0.00     0.009 C 
ENDBRANCH  76  77
ENDBRANCH  27  76
BRANCH  29  80
HETATM   80  C   UNK N   1      38.632   4.539  14.992  0.00  0.00     0.039 C 
BRANCH  80  81
HETATM   81  C   UNK N   1      39.965   3.930  15.353  0.00  0.00    -0.020 C 
HETATM   82  C   UNK N   1      39.701   2.674  16.151  0.00  0.00     0.009 C 
HETATM   83  C   UNK N   1      40.718   3.564  14.088  0.00  0.00     0.009 C 
ENDBRANCH  80  81
ENDBRANCH  29  80
BRANCH  39  84
HETATM   84  C   UNK N   1      35.964   7.706  16.110  0.00  0.00     0.009 C 
HETATM   85  C   UNK N   1      36.878   8.408  17.104  0.00  0.00     0.012 C 
HETATM   86  C   UNK N   1      35.303   6.520  16.774  0.00  0.00     0.012 C 
ENDBRANCH  39  84
BRANCH  48  87
HETATM   87  C   UNK N   1      36.236  10.372  11.002  0.00  0.00     0.039 C 
BRANCH  87  88
HETATM   88  C   UNK N   1      37.727  10.671  11.203  0.00  0.00    -0.020 C 
HETATM   89  C   UNK N   1      38.546   9.396  11.137  0.00  0.00     0.009 C 
HETATM   90  C   UNK N   1      38.229  11.598  10.122  0.00  0.00     0.009 C 
ENDBRANCH  87  88
ENDBRANCH  48  87
TORSDOF 16
ENDMDL
