MODEL 1
REMARK VINA RESULT:      -6.0      0.000      0.000
REMARK  6 active torsions:
REMARK  status: ('A' for Active; 'I' for Inactive)
REMARK    1  A    between atoms: N_1  and  C_2 
REMARK    2  A    between atoms: N_1  and  C_7 
REMARK    3  A    between atoms: C_2  and  C_3 
REMARK    4  A    between atoms: C_6  and  C_20 
REMARK    5  A    between atoms: C_7  and  C_17 
REMARK    6  A    between atoms: C_21  and  C_22 
ROOT
HETATM    1  N   UNK N   1      26.268  23.975  -7.804  0.00  0.00     0.091 N 
HETATM    2  C   UNK N   1      25.389  22.889  -8.201  0.00  0.00     0.310 C 
ENDROOT
BRANCH   1   3
HETATM    3  C   UNK N   1      25.575  25.248  -7.632  0.00  0.00     0.311 C 
BRANCH   3   4
HETATM    4  C   UNK N   1      26.446  26.476  -7.632  0.00  0.00    -0.019 A 
HETATM    5  C   UNK N   1      26.396  27.374  -6.550  0.00  0.00    -0.018 A 
HETATM    6  C   UNK N   1      27.390  28.374  -6.436  0.00  0.00    -0.025 A 
HETATM    7  C   UNK N   1      25.411  27.265  -5.556  0.00  0.00     0.013 A 
HETATM    8  C   UNK N   1      28.362  28.517  -7.429  0.00  0.00     0.012 A 
HETATM    9  C   UNK N   1      27.420  29.201  -5.310  0.00  0.00     0.012 A 
HETATM   10  C   UNK N   1      28.356  27.673  -8.538  0.00  0.00     0.002 A 
HETATM   11  C   UNK N   1      27.428  26.639  -8.618  0.00  0.00     0.010 A 
HETATM   12  C   UNK N   1      26.442  29.073  -4.321  0.00  0.00     0.001 A 
HETATM   13  C   UNK N   1      25.423  28.127  -4.457  0.00  0.00     0.001 A 
ENDBRANCH   3   4
ENDBRANCH   1   3
BRANCH   1  14
HETATM   14  C   UNK N   1      27.092  23.638  -6.653  0.00  0.00     0.300 C 
BRANCH  14  15
HETATM   15  C   UNK N   1      26.170  23.578  -5.470  0.00  0.00     0.012 C 
HETATM   16  C   UNK N   1      26.436  24.258  -4.345  0.00  0.00     0.062 C 
BRANCH  16  17
HETATM   17  C   UNK N   1      27.711  24.904  -4.167  0.00  0.00    -0.078 C 
HETATM   18  C   UNK N   1      28.769  25.474  -4.153  0.00  0.00    -0.093 C 
BRANCH  18  19
HETATM   19  C   UNK N   1      30.036  26.184  -4.223  0.00  0.00     0.013 C 
HETATM   20  C   UNK N   1      30.524  26.288  -5.652  0.00  0.00     0.028 C 
HETATM   21  C   UNK N   1      29.952  27.520  -3.525  0.00  0.00     0.028 C 
HETATM   22  C   UNK N   1      31.048  25.267  -3.558  0.00  0.00     0.028 C 
ENDBRANCH  18  19
ENDBRANCH  16  17
ENDBRANCH  14  15
ENDBRANCH   1  14
TORSDOF 6
ENDMDL
MODEL 2
REMARK VINA RESULT:      -5.9      2.191      4.981
REMARK  6 active torsions:
REMARK  status: ('A' for Active; 'I' for Inactive)
REMARK    1  A    between atoms: N_1  and  C_2 
REMARK    2  A    between atoms: N_1  and  C_7 
REMARK    3  A    between atoms: C_2  and  C_3 
REMARK    4  A    between atoms: C_6  and  C_20 
REMARK    5  A    between atoms: C_7  and  C_17 
REMARK    6  A    between atoms: C_21  and  C_22 
ROOT
HETATM    1  N   UNK N   1      27.480  29.960  -2.706  0.00  0.00     0.091 N 
HETATM    2  C   UNK N   1      28.088  31.062  -1.982  0.00  0.00     0.310 C 
ENDROOT
BRANCH   1   3
HETATM    3  C   UNK N   1      27.300  30.231  -4.130  0.00  0.00     0.311 C 
BRANCH   3   4
HETATM    4  C   UNK N   1      26.692  29.116  -4.939  0.00  0.00    -0.019 A 
HETATM    5  C   UNK N   1      27.315  28.687  -6.125  0.00  0.00    -0.018 A 
HETATM    6  C   UNK N   1      26.887  27.484  -6.735  0.00  0.00    -0.025 A 
HETATM    7  C   UNK N   1      28.385  29.402  -6.687  0.00  0.00     0.013 A 
HETATM    8  C   UNK N   1      25.806  26.774  -6.207  0.00  0.00     0.012 A 
HETATM    9  C   UNK N   1      27.569  26.987  -7.848  0.00  0.00     0.012 A 
HETATM   10  C   UNK N   1      25.144  27.249  -5.076  0.00  0.00     0.002 A 
HETATM   11  C   UNK N   1      25.608  28.390  -4.428  0.00  0.00     0.010 A 
HETATM   12  C   UNK N   1      28.641  27.701  -8.390  0.00  0.00     0.001 A 
HETATM   13  C   UNK N   1      29.030  28.919  -7.828  0.00  0.00     0.001 A 
ENDBRANCH   3   4
ENDBRANCH   1   3
BRANCH   1  14
HETATM   14  C   UNK N   1      28.155  28.693  -2.469  0.00  0.00     0.300 C 
BRANCH  14  15
HETATM   15  C   UNK N   1      29.572  28.870  -2.932  0.00  0.00     0.012 C 
HETATM   16  C   UNK N   1      30.150  27.987  -3.760  0.00  0.00     0.062 C 
BRANCH  16  17
HETATM   17  C   UNK N   1      29.496  26.740  -4.068  0.00  0.00    -0.078 C 
HETATM   18  C   UNK N   1      28.949  25.678  -4.188  0.00  0.00    -0.093 C 
BRANCH  18  19
HETATM   19  C   UNK N   1      28.286  24.385  -4.245  0.00  0.00     0.013 C 
HETATM   20  C   UNK N   1      26.959  24.421  -3.517  0.00  0.00     0.028 C 
HETATM   21  C   UNK N   1      28.169  23.894  -5.669  0.00  0.00     0.028 C 
HETATM   22  C   UNK N   1      29.140  23.456  -3.400  0.00  0.00     0.028 C 
ENDBRANCH  18  19
ENDBRANCH  16  17
ENDBRANCH  14  15
ENDBRANCH   1  14
TORSDOF 6
ENDMDL
MODEL 3
REMARK VINA RESULT:      -5.9      1.666      4.136
REMARK  6 active torsions:
REMARK  status: ('A' for Active; 'I' for Inactive)
REMARK    1  A    between atoms: N_1  and  C_2 
REMARK    2  A    between atoms: N_1  and  C_7 
REMARK    3  A    between atoms: C_2  and  C_3 
REMARK    4  A    between atoms: C_6  and  C_20 
REMARK    5  A    between atoms: C_7  and  C_17 
REMARK    6  A    between atoms: C_21  and  C_22 
ROOT
HETATM    1  N   UNK N   1      29.405  23.341  -4.003  0.00  0.00     0.091 N 
HETATM    2  C   UNK N   1      30.103  22.559  -2.998  0.00  0.00     0.310 C 
ENDROOT
BRANCH   1   3
HETATM    3  C   UNK N   1      28.152  23.916  -3.523  0.00  0.00     0.311 C 
BRANCH   3   4
HETATM    4  C   UNK N   1      27.148  24.281  -4.584  0.00  0.00    -0.019 A 
HETATM    5  C   UNK N   1      26.467  25.511  -4.514  0.00  0.00    -0.018 A 
HETATM    6  C   UNK N   1      25.728  25.956  -5.636  0.00  0.00    -0.025 A 
HETATM    7  C   UNK N   1      26.549  26.327  -3.375  0.00  0.00     0.013 A 
HETATM    8  C   UNK N   1      25.611  25.146  -6.768  0.00  0.00     0.012 A 
HETATM    9  C   UNK N   1      25.140  27.223  -5.624  0.00  0.00     0.012 A 
HETATM   10  C   UNK N   1      26.224  23.895  -6.797  0.00  0.00     0.002 A 
HETATM   11  C   UNK N   1      27.015  23.484  -5.728  0.00  0.00     0.010 A 
HETATM   12  C   UNK N   1      25.240  28.031  -4.488  0.00  0.00     0.001 A 
HETATM   13  C   UNK N   1      25.918  27.573  -3.356  0.00  0.00     0.001 A 
ENDBRANCH   3   4
ENDBRANCH   1   3
BRANCH   1  14
HETATM   14  C   UNK N   1      30.260  24.337  -4.633  0.00  0.00     0.300 C 
BRANCH  14  15
HETATM   15  C   UNK N   1      30.711  25.264  -3.543  0.00  0.00     0.012 C 
HETATM   16  C   UNK N   1      30.437  26.577  -3.588  0.00  0.00     0.062 C 
BRANCH  16  17
HETATM   17  C   UNK N   1      29.878  27.165  -4.778  0.00  0.00    -0.078 C 
HETATM   18  C   UNK N   1      29.413  27.776  -5.702  0.00  0.00    -0.093 C 
BRANCH  18  19
HETATM   19  C   UNK N   1      28.856  28.590  -6.772  0.00  0.00     0.013 C 
HETATM   20  C   UNK N   1      29.928  29.429  -7.431  0.00  0.00     0.028 C 
HETATM   21  C   UNK N   1      28.077  27.743  -7.751  0.00  0.00     0.028 C 
HETATM   22  C   UNK N   1      27.968  29.609  -6.081  0.00  0.00     0.028 C 
ENDBRANCH  18  19
ENDBRANCH  16  17
ENDBRANCH  14  15
ENDBRANCH   1  14
TORSDOF 6
ENDMDL
MODEL 4
REMARK VINA RESULT:      -5.7      2.061      4.544
REMARK  6 active torsions:
REMARK  status: ('A' for Active; 'I' for Inactive)
REMARK    1  A    between atoms: N_1  and  C_2 
REMARK    2  A    between atoms: N_1  and  C_7 
REMARK    3  A    between atoms: C_2  and  C_3 
REMARK    4  A    between atoms: C_6  and  C_20 
REMARK    5  A    between atoms: C_7  and  C_17 
REMARK    6  A    between atoms: C_21  and  C_22 
ROOT
HETATM    1  N   UNK N   1      30.583  29.249  -6.765  0.00  0.00     0.091 N 
HETATM    2  C   UNK N   1      31.558  29.591  -7.786  0.00  0.00     0.310 C 
ENDROOT
BRANCH   1   3
HETATM    3  C   UNK N   1      29.217  29.159  -7.275  0.00  0.00     0.311 C 
BRANCH   3   4
HETATM    4  C   UNK N   1      28.123  29.333  -6.255  0.00  0.00    -0.019 A 
HETATM    5  C   UNK N   1      27.110  28.363  -6.139  0.00  0.00    -0.018 A 
HETATM    6  C   UNK N   1      26.243  28.399  -5.021  0.00  0.00    -0.025 A 
HETATM    7  C   UNK N   1      26.976  27.331  -7.082  0.00  0.00     0.013 A 
HETATM    8  C   UNK N   1      26.343  29.434  -4.088  0.00  0.00     0.012 A 
HETATM    9  C   UNK N   1      25.307  27.380  -4.833  0.00  0.00     0.012 A 
HETATM   10  C   UNK N   1      27.298  30.435  -4.254  0.00  0.00     0.002 A 
HETATM   11  C   UNK N   1      28.203  30.362  -5.309  0.00  0.00     0.010 A 
HETATM   12  C   UNK N   1      25.192  26.351  -5.771  0.00  0.00     0.001 A 
HETATM   13  C   UNK N   1      26.005  26.342  -6.908  0.00  0.00     0.001 A 
ENDBRANCH   3   4
ENDBRANCH   1   3
BRANCH   1  14
HETATM   14  C   UNK N   1      30.962  28.071  -5.999  0.00  0.00     0.300 C 
BRANCH  14  15
HETATM   15  C   UNK N   1      31.062  28.508  -4.566  0.00  0.00     0.012 C 
HETATM   16  C   UNK N   1      30.547  27.765  -3.574  0.00  0.00     0.062 C 
BRANCH  16  17
HETATM   17  C   UNK N   1      29.709  26.631  -3.871  0.00  0.00    -0.078 C 
HETATM   18  C   UNK N   1      29.084  25.617  -4.023  0.00  0.00    -0.093 C 
BRANCH  18  19
HETATM   19  C   UNK N   1      28.375  24.352  -4.142  0.00  0.00     0.013 C 
HETATM   20  C   UNK N   1      27.037  24.410  -3.438  0.00  0.00     0.028 C 
HETATM   21  C   UNK N   1      28.269  23.921  -5.586  0.00  0.00     0.028 C 
HETATM   22  C   UNK N   1      29.179  23.361  -3.318  0.00  0.00     0.028 C 
ENDBRANCH  18  19
ENDBRANCH  16  17
ENDBRANCH  14  15
ENDBRANCH   1  14
TORSDOF 6
ENDMDL
MODEL 5
REMARK VINA RESULT:      -5.5     20.574     24.116
REMARK  6 active torsions:
REMARK  status: ('A' for Active; 'I' for Inactive)
REMARK    1  A    between atoms: N_1  and  C_2 
REMARK    2  A    between atoms: N_1  and  C_7 
REMARK    3  A    between atoms: C_2  and  C_3 
REMARK    4  A    between atoms: C_6  and  C_20 
REMARK    5  A    between atoms: C_7  and  C_17 
REMARK    6  A    between atoms: C_21  and  C_22 
ROOT
HETATM    1  N   UNK N   1      35.685  13.045  11.961  0.00  0.00     0.091 N 
HETATM    2  C   UNK N   1      36.257  12.509  10.738  0.00  0.00     0.310 C 
ENDROOT
BRANCH   1   3
HETATM    3  C   UNK N   1      36.656  13.185  13.042  0.00  0.00     0.311 C 
BRANCH   3   4
HETATM    4  C   UNK N   1      36.161  12.827  14.419  0.00  0.00    -0.019 A 
HETATM    5  C   UNK N   1      36.356  13.719  15.489  0.00  0.00    -0.018 A 
HETATM    6  C   UNK N   1      35.671  13.497  16.707  0.00  0.00    -0.025 A 
HETATM    7  C   UNK N   1      37.176  14.851  15.357  0.00  0.00     0.013 A 
HETATM    8  C   UNK N   1      34.874  12.362  16.868  0.00  0.00     0.012 A 
HETATM    9  C   UNK N   1      35.766  14.433  17.740  0.00  0.00     0.012 A 
HETATM   10  C   UNK N   1      34.750  11.442  15.829  0.00  0.00     0.002 A 
HETATM   11  C   UNK N   1      35.359  11.694  14.603  0.00  0.00     0.010 A 
HETATM   12  C   UNK N   1      36.574  15.562  17.590  0.00  0.00     0.001 A 
HETATM   13  C   UNK N   1      37.300  15.757  16.412  0.00  0.00     0.001 A 
ENDBRANCH   3   4
ENDBRANCH   1   3
BRANCH   1  14
HETATM   14  C   UNK N   1      34.932  14.270  11.737  0.00  0.00     0.300 C 
BRANCH  14  15
HETATM   15  C   UNK N   1      35.923  15.396  11.781  0.00  0.00     0.012 C 
HETATM   16  C   UNK N   1      35.780  16.480  11.004  0.00  0.00     0.062 C 
BRANCH  16  17
HETATM   17  C   UNK N   1      34.784  16.506   9.963  0.00  0.00    -0.078 C 
HETATM   18  C   UNK N   1      33.995  16.657   9.070  0.00  0.00    -0.093 C 
BRANCH  18  19
HETATM   19  C   UNK N   1      33.074  16.922   7.976  0.00  0.00     0.013 C 
HETATM   20  C   UNK N   1      31.974  17.867   8.408  0.00  0.00     0.028 C 
HETATM   21  C   UNK N   1      33.811  17.392   6.744  0.00  0.00     0.028 C 
HETATM   22  C   UNK N   1      32.352  15.609   7.731  0.00  0.00     0.028 C 
ENDBRANCH  18  19
ENDBRANCH  16  17
ENDBRANCH  14  15
ENDBRANCH   1  14
TORSDOF 6
ENDMDL
MODEL 6
REMARK VINA RESULT:      -5.3      2.014      4.228
REMARK  6 active torsions:
REMARK  status: ('A' for Active; 'I' for Inactive)
REMARK    1  A    between atoms: N_1  and  C_2 
REMARK    2  A    between atoms: N_1  and  C_7 
REMARK    3  A    between atoms: C_2  and  C_3 
REMARK    4  A    between atoms: C_6  and  C_20 
REMARK    5  A    between atoms: C_7  and  C_17 
REMARK    6  A    between atoms: C_21  and  C_22 
ROOT
HETATM    1  N   UNK N   1      30.481  29.717  -6.522  0.00  0.00     0.091 N 
HETATM    2  C   UNK N   1      31.489  29.970  -7.536  0.00  0.00     0.310 C 
ENDROOT
BRANCH   1   3
HETATM    3  C   UNK N   1      29.115  29.902  -7.003  0.00  0.00     0.311 C 
BRANCH   3   4
HETATM    4  C   UNK N   1      28.292  28.649  -7.141  0.00  0.00    -0.019 A 
HETATM    5  C   UNK N   1      27.300  28.351  -6.188  0.00  0.00    -0.018 A 
HETATM    6  C   UNK N   1      26.368  27.322  -6.459  0.00  0.00    -0.025 A 
HETATM    7  C   UNK N   1      27.186  29.088  -4.998  0.00  0.00     0.013 A 
HETATM    8  C   UNK N   1      26.482  26.559  -7.624  0.00  0.00     0.012 A 
HETATM    9  C   UNK N   1      25.311  27.089  -5.576  0.00  0.00     0.012 A 
HETATM   10  C   UNK N   1      27.516  26.809  -8.524  0.00  0.00     0.002 A 
HETATM   11  C   UNK N   1      28.389  27.870  -8.301  0.00  0.00     0.010 A 
HETATM   12  C   UNK N   1      25.201  27.838  -4.402  0.00  0.00     0.001 A 
HETATM   13  C   UNK N   1      26.152  28.816  -4.100  0.00  0.00     0.001 A 
ENDBRANCH   3   4
ENDBRANCH   1   3
BRANCH   1  14
HETATM   14  C   UNK N   1      30.661  28.433  -5.860  0.00  0.00     0.300 C 
BRANCH  14  15
HETATM   15  C   UNK N   1      30.890  28.730  -4.406  0.00  0.00     0.012 C 
HETATM   16  C   UNK N   1      30.504  27.871  -3.451  0.00  0.00     0.062 C 
BRANCH  16  17
HETATM   17  C   UNK N   1      29.681  26.735  -3.781  0.00  0.00    -0.078 C 
HETATM   18  C   UNK N   1      29.086  25.711  -3.983  0.00  0.00    -0.093 C 
BRANCH  18  19
HETATM   19  C   UNK N   1      28.425  24.430  -4.179  0.00  0.00     0.013 C 
HETATM   20  C   UNK N   1      28.213  24.146  -5.650  0.00  0.00     0.028 C 
HETATM   21  C   UNK N   1      29.160  23.324  -3.460  0.00  0.00     0.028 C 
HETATM   22  C   UNK N   1      27.019  24.615  -3.637  0.00  0.00     0.028 C 
ENDBRANCH  18  19
ENDBRANCH  16  17
ENDBRANCH  14  15
ENDBRANCH   1  14
TORSDOF 6
ENDMDL
MODEL 7
REMARK VINA RESULT:      -5.2      1.461      2.231
REMARK  6 active torsions:
REMARK  status: ('A' for Active; 'I' for Inactive)
REMARK    1  A    between atoms: N_1  and  C_2 
REMARK    2  A    between atoms: N_1  and  C_7 
REMARK    3  A    between atoms: C_2  and  C_3 
REMARK    4  A    between atoms: C_6  and  C_20 
REMARK    5  A    between atoms: C_7  and  C_17 
REMARK    6  A    between atoms: C_21  and  C_22 
ROOT
HETATM    1  N   UNK N   1      27.252  24.344  -8.992  0.00  0.00     0.091 N 
HETATM    2  C   UNK N   1      27.571  23.969 -10.358  0.00  0.00     0.310 C 
ENDROOT
BRANCH   1   3
HETATM    3  C   UNK N   1      26.384  25.515  -8.900  0.00  0.00     0.311 C 
BRANCH   3   4
HETATM    4  C   UNK N   1      26.992  26.735  -8.260  0.00  0.00    -0.019 A 
HETATM    5  C   UNK N   1      26.503  27.198  -7.024  0.00  0.00    -0.018 A 
HETATM    6  C   UNK N   1      27.238  28.175  -6.313  0.00  0.00    -0.025 A 
HETATM    7  C   UNK N   1      25.330  26.672  -6.459  0.00  0.00     0.013 A 
HETATM    8  C   UNK N   1      28.393  28.730  -6.870  0.00  0.00     0.012 A 
HETATM    9  C   UNK N   1      26.828  28.563  -5.036  0.00  0.00     0.012 A 
HETATM   10  C   UNK N   1      28.825  28.323  -8.131  0.00  0.00     0.002 A 
HETATM   11  C   UNK N   1      28.150  27.307  -8.801  0.00  0.00     0.010 A 
HETATM   12  C   UNK N   1      25.665  28.022  -4.479  0.00  0.00     0.001 A 
HETATM   13  C   UNK N   1      24.903  27.101  -5.201  0.00  0.00     0.001 A 
ENDBRANCH   3   4
ENDBRANCH   1   3
BRANCH   1  14
HETATM   14  C   UNK N   1      26.753  23.226  -8.205  0.00  0.00     0.300 C 
BRANCH  14  15
HETATM   15  C   UNK N   1      27.772  22.131  -8.325  0.00  0.00     0.012 C 
HETATM   16  C   UNK N   1      28.593  21.829  -7.307  0.00  0.00     0.062 C 
BRANCH  16  17
HETATM   17  C   UNK N   1      28.656  22.678  -6.145  0.00  0.00    -0.078 C 
HETATM   18  C   UNK N   1      28.575  23.416  -5.200  0.00  0.00    -0.093 C 
BRANCH  18  19
HETATM   19  C   UNK N   1      28.392  24.323  -4.078  0.00  0.00     0.013 C 
HETATM   20  C   UNK N   1      29.053  25.658  -4.343  0.00  0.00     0.028 C 
HETATM   21  C   UNK N   1      26.933  24.445  -3.708  0.00  0.00     0.028 C 
HETATM   22  C   UNK N   1      29.211  23.730  -2.944  0.00  0.00     0.028 C 
ENDBRANCH  18  19
ENDBRANCH  16  17
ENDBRANCH  14  15
ENDBRANCH   1  14
TORSDOF 6
ENDMDL
MODEL 8
REMARK VINA RESULT:      -5.2      1.160      4.393
REMARK  6 active torsions:
REMARK  status: ('A' for Active; 'I' for Inactive)
REMARK    1  A    between atoms: N_1  and  C_2 
REMARK    2  A    between atoms: N_1  and  C_7 
REMARK    3  A    between atoms: C_2  and  C_3 
REMARK    4  A    between atoms: C_6  and  C_20 
REMARK    5  A    between atoms: C_7  and  C_17 
REMARK    6  A    between atoms: C_21  and  C_22 
ROOT
HETATM    1  N   UNK N   1      25.922  24.307  -8.351  0.00  0.00     0.091 N 
HETATM    2  C   UNK N   1      25.863  24.084  -9.785  0.00  0.00     0.310 C 
ENDROOT
BRANCH   1   3
HETATM    3  C   UNK N   1      27.056  23.649  -7.708  0.00  0.00     0.311 C 
BRANCH   3   4
HETATM    4  C   UNK N   1      27.208  23.898  -6.231  0.00  0.00    -0.019 A 
HETATM    5  C   UNK N   1      28.439  24.343  -5.716  0.00  0.00    -0.018 A 
HETATM    6  C   UNK N   1      28.501  24.817  -4.384  0.00  0.00    -0.025 A 
HETATM    7  C   UNK N   1      29.595  24.374  -6.512  0.00  0.00     0.013 A 
HETATM    8  C   UNK N   1      27.369  24.768  -3.567  0.00  0.00     0.012 A 
HETATM    9  C   UNK N   1      29.688  25.366  -3.894  0.00  0.00     0.012 A 
HETATM   10  C   UNK N   1      26.173  24.251  -4.062  0.00  0.00     0.002 A 
HETATM   11  C   UNK N   1      26.086  23.855  -5.393  0.00  0.00     0.010 A 
HETATM   12  C   UNK N   1      30.828  25.403  -4.702  0.00  0.00     0.001 A 
HETATM   13  C   UNK N   1      30.790  24.883  -5.998  0.00  0.00     0.001 A 
ENDBRANCH   3   4
ENDBRANCH   1   3
BRANCH   1  14
HETATM   14  C   UNK N   1      25.832  25.716  -7.998  0.00  0.00     0.300 C 
BRANCH  14  15
HETATM   15  C   UNK N   1      26.956  26.408  -8.712  0.00  0.00     0.012 C 
HETATM   16  C   UNK N   1      27.780  27.247  -8.066  0.00  0.00     0.062 C 
BRANCH  16  17
HETATM   17  C   UNK N   1      27.487  27.662  -6.718  0.00  0.00    -0.078 C 
HETATM   18  C   UNK N   1      27.266  28.139  -5.637  0.00  0.00    -0.093 C 
BRANCH  18  19
HETATM   19  C   UNK N   1      27.011  28.795  -4.365  0.00  0.00     0.013 C 
HETATM   20  C   UNK N   1      28.050  28.407  -3.335  0.00  0.00     0.028 C 
HETATM   21  C   UNK N   1      26.878  30.289  -4.540  0.00  0.00     0.028 C 
HETATM   22  C   UNK N   1      25.728  28.175  -3.841  0.00  0.00     0.028 C 
ENDBRANCH  18  19
ENDBRANCH  16  17
ENDBRANCH  14  15
ENDBRANCH   1  14
TORSDOF 6
ENDMDL
MODEL 9
REMARK VINA RESULT:      -5.1      1.836      4.490
REMARK  6 active torsions:
REMARK  status: ('A' for Active; 'I' for Inactive)
REMARK    1  A    between atoms: N_1  and  C_2 
REMARK    2  A    between atoms: N_1  and  C_7 
REMARK    3  A    between atoms: C_2  and  C_3 
REMARK    4  A    between atoms: C_6  and  C_20 
REMARK    5  A    between atoms: C_7  and  C_17 
REMARK    6  A    between atoms: C_21  and  C_22 
ROOT
HETATM    1  N   UNK N   1      30.131  23.285  -5.118  0.00  0.00     0.091 N 
HETATM    2  C   UNK N   1      30.069  22.019  -4.409  0.00  0.00     0.310 C 
ENDROOT
BRANCH   1   3
HETATM    3  C   UNK N   1      29.745  23.182  -6.522  0.00  0.00     0.311 C 
BRANCH   3   4
HETATM    4  C   UNK N   1      28.356  23.657  -6.859  0.00  0.00    -0.019 A 
HETATM    5  C   UNK N   1      28.179  24.811  -7.643  0.00  0.00    -0.018 A 
HETATM    6  C   UNK N   1      26.896  25.101  -8.165  0.00  0.00    -0.025 A 
HETATM    7  C   UNK N   1      29.258  25.652  -7.959  0.00  0.00     0.013 A 
HETATM    8  C   UNK N   1      25.805  24.293  -7.839  0.00  0.00     0.012 A 
HETATM    9  C   UNK N   1      26.727  26.180  -9.036  0.00  0.00     0.012 A 
HETATM   10  C   UNK N   1      25.975  23.196  -6.997  0.00  0.00     0.002 A 
HETATM   11  C   UNK N   1      27.248  22.862  -6.542  0.00  0.00     0.010 A 
HETATM   12  C   UNK N   1      27.812  27.001  -9.354  0.00  0.00     0.001 A 
HETATM   13  C   UNK N   1      29.068  26.755  -8.795  0.00  0.00     0.001 A 
ENDBRANCH   3   4
ENDBRANCH   1   3
BRANCH   1  14
HETATM   14  C   UNK N   1      29.416  24.349  -4.429  0.00  0.00     0.300 C 
BRANCH  14  15
HETATM   15  C   UNK N   1      28.647  23.697  -3.317  0.00  0.00     0.012 C 
HETATM   16  C   UNK N   1      27.382  24.052  -3.044  0.00  0.00     0.062 C 
BRANCH  16  17
HETATM   17  C   UNK N   1      26.795  25.205  -3.677  0.00  0.00    -0.078 C 
HETATM   18  C   UNK N   1      26.435  26.209  -4.231  0.00  0.00    -0.093 C 
BRANCH  18  19
HETATM   19  C   UNK N   1      26.085  27.442  -4.918  0.00  0.00     0.013 C 
HETATM   20  C   UNK N   1      25.619  28.497  -3.938  0.00  0.00     0.028 C 
HETATM   21  C   UNK N   1      27.214  27.912  -5.804  0.00  0.00     0.028 C 
HETATM   22  C   UNK N   1      24.839  27.115  -5.722  0.00  0.00     0.028 C 
ENDBRANCH  18  19
ENDBRANCH  16  17
ENDBRANCH  14  15
ENDBRANCH   1  14
TORSDOF 6
ENDMDL
