MODEL 1
REMARK VINA RESULT:      -6.5      0.000      0.000
REMARK  8 active torsions:
REMARK  status: ('A' for Active; 'I' for Inactive)
REMARK    1  A    between atoms: C_2  and  C_1 
REMARK    2  A    between atoms: C_9  and  C_1 
REMARK    3  A    between atoms: C_16  and  C_2 
REMARK    4  A    between atoms: N_22  and  C_9 
REMARK    5  A    between atoms: C_17  and  C_11 
REMARK    6  A    between atoms: C_17  and  C_14 
REMARK    7  A    between atoms: O_24  and  C_15 
REMARK    8  A    between atoms: O_25  and  C_16 
ROOT
HETATM    1  C   UNK N   1      29.257  17.907   6.566  0.00  0.00     0.051 C 
HETATM    2  N   UNK N   1      29.545  17.904   7.835  0.00  0.00    -0.388 N 
ATOM      3  HN  UNK N   1      29.012  18.562   8.403  1.00  0.00     0.159 HD
ENDROOT
BRANCH   1   4
HETATM    4  C   UNK N   1      29.971  16.952   5.615  0.00  0.00    -0.009 A 
HETATM    5  C   UNK N   1      29.493  15.662   5.354  0.00  0.00     0.015 A 
HETATM    6  C   UNK N   1      30.153  14.797   4.476  0.00  0.00     0.024 A 
HETATM    7  C   UNK N   1      31.310  15.216   3.824  0.00  0.00     0.034 A 
HETATM    8  C   UNK N   1      31.802  16.500   4.048  0.00  0.00     0.024 A 
HETATM    9 Cl   UNK N   1      32.143  14.136   2.726  0.00  0.00    -0.084 Cl
HETATM   10  C   UNK N   1      31.137  17.354   4.931  0.00  0.00     0.015 A 
ENDBRANCH   1   4
BRANCH   1  11
HETATM   11  C   UNK N   1      28.207  18.953   6.188  0.00  0.00     0.027 A 
HETATM   12  C   UNK N   1      28.114  19.228   4.803  0.00  0.00     0.058 A 
HETATM   13  C   UNK N   1      27.226  20.162   4.282  0.00  0.00     0.117 A 
HETATM   14  C   UNK N   1      26.383  20.860   5.133  0.00  0.00     0.045 A 
HETATM   15  F   UNK N   1      27.192  20.390   2.947  0.00  0.00    -0.206 F 
HETATM   16  C   UNK N   1      26.447  20.632   6.504  0.00  0.00     0.040 A 
HETATM   17  C   UNK N   1      27.345  19.703   7.049  0.00  0.00     0.078 A 
BRANCH  17  18
HETATM   18  O   UNK N   1      27.368  19.590   8.379  0.00  0.00    -0.360 OA
HETATM   19  H   UNK N   1      27.357  20.353   8.922  0.00  0.00     0.217 HD
ENDBRANCH  17  18
ENDBRANCH   1  11
BRANCH   2  20
HETATM   20  C   UNK N   1      30.504  17.109   8.560  0.00  0.00     0.120 C 
BRANCH  20  21
HETATM   21  C   UNK N   1      31.818  17.876   8.657  0.00  0.00     0.027 C 
BRANCH  21  22
HETATM   22  C   UNK N   1      32.974  17.043   8.115  0.00  0.00     0.085 C 
BRANCH  22  23
HETATM   23  C   UNK N   1      34.076  17.906   7.614  0.00  0.00     0.108 C 
HETATM   24  N   UNK N   1      34.750  18.625   8.432  0.00  0.00    -0.384 N 
HETATM   25  H   UNK N   1      35.151  19.502   8.236  0.00  0.00     0.157 HD
ATOM     26  HN  UNK N   1      34.882  18.255   9.372  1.00  0.00     0.157 HD
BRANCH  23  27
HETATM   27  O   UNK N   1      34.397  17.892   6.306  0.00  0.00    -0.350 OA
HETATM   28  H   UNK N   1      33.829  17.987   5.567  0.00  0.00     0.219 HD
ENDBRANCH  23  27
ENDBRANCH  22  23
ENDBRANCH  21  22
ENDBRANCH  20  21
ENDBRANCH   2  20
TORSDOF 8
ENDMDL
MODEL 2
REMARK VINA RESULT:      -6.4      4.161      7.301
REMARK  8 active torsions:
REMARK  status: ('A' for Active; 'I' for Inactive)
REMARK    1  A    between atoms: C_2  and  C_1 
REMARK    2  A    between atoms: C_9  and  C_1 
REMARK    3  A    between atoms: C_16  and  C_2 
REMARK    4  A    between atoms: N_22  and  C_9 
REMARK    5  A    between atoms: C_17  and  C_11 
REMARK    6  A    between atoms: C_17  and  C_14 
REMARK    7  A    between atoms: O_24  and  C_15 
REMARK    8  A    between atoms: O_25  and  C_16 
ROOT
HETATM    1  C   UNK N   1      33.132  16.047   8.754  0.00  0.00     0.051 C 
HETATM    2  N   UNK N   1      32.025  16.382   9.352  0.00  0.00    -0.388 N 
ATOM      3  HN  UNK N   1      32.059  16.358  10.371  1.00  0.00     0.159 HD
ENDROOT
BRANCH   1   4
HETATM    4  C   UNK N   1      33.215  16.064   7.231  0.00  0.00    -0.009 A 
HETATM    5  C   UNK N   1      33.016  14.911   6.460  0.00  0.00     0.015 A 
HETATM    6  C   UNK N   1      33.089  14.939   5.064  0.00  0.00     0.024 A 
HETATM    7  C   UNK N   1      33.352  16.138   4.405  0.00  0.00     0.034 A 
HETATM    8  C   UNK N   1      33.537  17.306   5.142  0.00  0.00     0.024 A 
HETATM    9 Cl   UNK N   1      33.448  16.180   2.657  0.00  0.00    -0.084 Cl
HETATM   10  C   UNK N   1      33.466  17.265   6.536  0.00  0.00     0.015 A 
ENDBRANCH   1   4
BRANCH   1  11
HETATM   11  C   UNK N   1      34.239  15.630   9.722  0.00  0.00     0.027 A 
HETATM   12  C   UNK N   1      34.179  14.283  10.149  0.00  0.00     0.058 A 
HETATM   13  C   UNK N   1      35.095  13.737  11.041  0.00  0.00     0.117 A 
HETATM   14  C   UNK N   1      36.122  14.523  11.541  0.00  0.00     0.045 A 
HETATM   15  F   UNK N   1      34.977  12.442  11.423  0.00  0.00    -0.206 F 
HETATM   16  C   UNK N   1      36.216  15.858  11.158  0.00  0.00     0.040 A 
HETATM   17  C   UNK N   1      35.294  16.429  10.269  0.00  0.00     0.078 A 
BRANCH  17  18
HETATM   18  O   UNK N   1      35.436  17.728  10.001  0.00  0.00    -0.360 OA
HETATM   19  H   UNK N   1      35.610  18.340  10.688  0.00  0.00     0.217 HD
ENDBRANCH  17  18
ENDBRANCH   1  11
BRANCH   2  20
HETATM   20  C   UNK N   1      30.760  16.783   8.792  0.00  0.00     0.120 C 
BRANCH  20  21
HETATM   21  C   UNK N   1      30.632  18.300   8.882  0.00  0.00     0.027 C 
BRANCH  21  22
HETATM   22  C   UNK N   1      29.415  18.694   9.713  0.00  0.00     0.085 C 
BRANCH  22  23
HETATM   23  C   UNK N   1      28.148  18.345   9.018  0.00  0.00     0.108 C 
HETATM   24  N   UNK N   1      27.789  18.997   7.976  0.00  0.00    -0.384 N 
HETATM   25  H   UNK N   1      26.862  19.186   7.702  0.00  0.00     0.157 HD
ATOM     26  HN  UNK N   1      28.531  19.353   7.374  1.00  0.00     0.157 HD
BRANCH  23  27
HETATM   27  O   UNK N   1      27.406  17.311   9.455  0.00  0.00    -0.350 OA
HETATM   28  H   UNK N   1      26.571  17.022   9.143  0.00  0.00     0.219 HD
ENDBRANCH  23  27
ENDBRANCH  22  23
ENDBRANCH  21  22
ENDBRANCH  20  21
ENDBRANCH   2  20
TORSDOF 8
ENDMDL
MODEL 3
REMARK VINA RESULT:      -6.4      1.822      2.328
REMARK  8 active torsions:
REMARK  status: ('A' for Active; 'I' for Inactive)
REMARK    1  A    between atoms: C_2  and  C_1 
REMARK    2  A    between atoms: C_9  and  C_1 
REMARK    3  A    between atoms: C_16  and  C_2 
REMARK    4  A    between atoms: N_22  and  C_9 
REMARK    5  A    between atoms: C_17  and  C_11 
REMARK    6  A    between atoms: C_17  and  C_14 
REMARK    7  A    between atoms: O_24  and  C_15 
REMARK    8  A    between atoms: O_25  and  C_16 
ROOT
HETATM    1  C   UNK N   1      29.792  17.553   5.621  0.00  0.00     0.051 C 
HETATM    2  N   UNK N   1      29.851  17.519   6.921  0.00  0.00    -0.388 N 
ATOM      3  HN  UNK N   1      29.081  17.982   7.403  1.00  0.00     0.159 HD
ENDROOT
BRANCH   1   4
HETATM    4  C   UNK N   1      30.875  16.876   4.787  0.00  0.00    -0.009 A 
HETATM    5  C   UNK N   1      31.913  17.598   4.183  0.00  0.00     0.015 A 
HETATM    6  C   UNK N   1      32.903  16.966   3.426  0.00  0.00     0.024 A 
HETATM    7  C   UNK N   1      32.882  15.582   3.267  0.00  0.00     0.034 A 
HETATM    8  C   UNK N   1      31.873  14.833   3.869  0.00  0.00     0.024 A 
HETATM    9 Cl   UNK N   1      34.118  14.786   2.316  0.00  0.00    -0.084 Cl
HETATM   10  C   UNK N   1      30.887  15.476   4.620  0.00  0.00     0.015 A 
ENDBRANCH   1   4
BRANCH   1  11
HETATM   11  C   UNK N   1      28.594  18.340   5.091  0.00  0.00     0.027 A 
HETATM   12  C   UNK N   1      28.411  19.613   5.681  0.00  0.00     0.058 A 
HETATM   13  C   UNK N   1      27.364  20.458   5.333  0.00  0.00     0.117 A 
HETATM   14  C   UNK N   1      26.452  20.062   4.365  0.00  0.00     0.045 A 
HETATM   15  F   UNK N   1      27.235  21.661   5.942  0.00  0.00    -0.206 F 
HETATM   16  C   UNK N   1      26.584  18.813   3.765  0.00  0.00     0.040 A 
HETATM   17  C   UNK N   1      27.627  17.943   4.114  0.00  0.00     0.078 A 
BRANCH  17  18
HETATM   18  O   UNK N   1      27.641  16.747   3.521  0.00  0.00    -0.360 OA
HETATM   19  H   UNK N   1      27.586  16.677   2.588  0.00  0.00     0.217 HD
ENDBRANCH  17  18
ENDBRANCH   1  11
BRANCH   2  20
HETATM   20  C   UNK N   1      30.841  16.924   7.784  0.00  0.00     0.120 C 
BRANCH  20  21
HETATM   21  C   UNK N   1      31.813  18.004   8.248  0.00  0.00     0.027 C 
BRANCH  21  22
HETATM   22  C   UNK N   1      33.185  17.809   7.610  0.00  0.00     0.085 C 
BRANCH  22  23
HETATM   23  C   UNK N   1      34.276  18.048   8.591  0.00  0.00     0.108 C 
HETATM   24  N   UNK N   1      34.398  17.285   9.613  0.00  0.00    -0.384 N 
HETATM   25  H   UNK N   1      34.731  17.553  10.499  0.00  0.00     0.157 HD
ATOM     26  HN  UNK N   1      34.123  16.310   9.497  1.00  0.00     0.157 HD
BRANCH  23  27
HETATM   27  O   UNK N   1      35.166  19.035   8.378  0.00  0.00    -0.350 OA
HETATM   28  H   UNK N   1      35.376  19.463   7.572  0.00  0.00     0.219 HD
ENDBRANCH  23  27
ENDBRANCH  22  23
ENDBRANCH  21  22
ENDBRANCH  20  21
ENDBRANCH   2  20
TORSDOF 8
ENDMDL
MODEL 4
REMARK VINA RESULT:      -6.4      6.859      9.785
REMARK  8 active torsions:
REMARK  status: ('A' for Active; 'I' for Inactive)
REMARK    1  A    between atoms: C_2  and  C_1 
REMARK    2  A    between atoms: C_9  and  C_1 
REMARK    3  A    between atoms: C_16  and  C_2 
REMARK    4  A    between atoms: N_22  and  C_9 
REMARK    5  A    between atoms: C_17  and  C_11 
REMARK    6  A    between atoms: C_17  and  C_14 
REMARK    7  A    between atoms: O_24  and  C_15 
REMARK    8  A    between atoms: O_25  and  C_16 
ROOT
HETATM    1  C   UNK N   1      22.965  18.881   4.066  0.00  0.00     0.051 C 
HETATM    2  N   UNK N   1      22.146  19.668   3.431  0.00  0.00    -0.388 N 
ATOM      3  HN  UNK N   1      22.588  20.438   2.927  1.00  0.00     0.159 HD
ENDROOT
BRANCH   1   4
HETATM    4  C   UNK N   1      22.428  17.681   4.840  0.00  0.00    -0.009 A 
HETATM    5  C   UNK N   1      22.530  16.371   4.353  0.00  0.00     0.015 A 
HETATM    6  C   UNK N   1      22.040  15.279   5.073  0.00  0.00     0.024 A 
HETATM    7  C   UNK N   1      21.441  15.476   6.316  0.00  0.00     0.034 A 
HETATM    8  C   UNK N   1      21.339  16.764   6.836  0.00  0.00     0.024 A 
HETATM    9 Cl   UNK N   1      20.822  14.112   7.222  0.00  0.00    -0.084 Cl
HETATM   10  C   UNK N   1      21.829  17.849   6.105  0.00  0.00     0.015 A 
ENDBRANCH   1   4
BRANCH   1  11
HETATM   11  C   UNK N   1      24.426  19.319   3.965  0.00  0.00     0.027 A 
HETATM   12  C   UNK N   1      25.289  18.736   4.922  0.00  0.00     0.058 A 
HETATM   13  C   UNK N   1      26.646  19.032   4.988  0.00  0.00     0.117 A 
HETATM   14  C   UNK N   1      27.200  19.927   4.086  0.00  0.00     0.045 A 
HETATM   15  F   UNK N   1      27.419  18.450   5.937  0.00  0.00    -0.206 F 
HETATM   16  C   UNK N   1      26.388  20.535   3.132  0.00  0.00     0.040 A 
HETATM   17  C   UNK N   1      25.015  20.258   3.059  0.00  0.00     0.078 A 
BRANCH  17  18
HETATM   18  O   UNK N   1      24.310  20.927   2.145  0.00  0.00    -0.360 OA
HETATM   19  H   UNK N   1      23.422  21.173   2.314  0.00  0.00     0.217 HD
ENDBRANCH  17  18
ENDBRANCH   1  11
BRANCH   2  20
HETATM   20  C   UNK N   1      20.710  19.618   3.330  0.00  0.00     0.120 C 
BRANCH  20  21
HETATM   21  C   UNK N   1      20.324  19.032   1.975  0.00  0.00     0.027 C 
BRANCH  21  22
HETATM   22  C   UNK N   1      19.952  17.559   2.107  0.00  0.00     0.085 C 
BRANCH  22  23
HETATM   23  C   UNK N   1      19.813  16.914   0.775  0.00  0.00     0.108 C 
HETATM   24  N   UNK N   1      19.172  15.811   0.661  0.00  0.00    -0.384 N 
HETATM   25  H   UNK N   1      19.363  15.095   0.014  0.00  0.00     0.157 HD
ATOM     26  HN  UNK N   1      18.391  15.662   1.300  1.00  0.00     0.157 HD
BRANCH  23  27
HETATM   27  O   UNK N   1      20.318  17.516  -0.318  0.00  0.00    -0.350 OA
HETATM   28  H   UNK N   1      20.853  17.144  -0.991  0.00  0.00     0.219 HD
ENDBRANCH  23  27
ENDBRANCH  22  23
ENDBRANCH  21  22
ENDBRANCH  20  21
ENDBRANCH   2  20
TORSDOF 8
ENDMDL
MODEL 5
REMARK VINA RESULT:      -6.4      9.842     12.698
REMARK  8 active torsions:
REMARK  status: ('A' for Active; 'I' for Inactive)
REMARK    1  A    between atoms: C_2  and  C_1 
REMARK    2  A    between atoms: C_9  and  C_1 
REMARK    3  A    between atoms: C_16  and  C_2 
REMARK    4  A    between atoms: N_22  and  C_9 
REMARK    5  A    between atoms: C_17  and  C_11 
REMARK    6  A    between atoms: C_17  and  C_14 
REMARK    7  A    between atoms: O_24  and  C_15 
REMARK    8  A    between atoms: O_25  and  C_16 
ROOT
HETATM    1  C   UNK N   1      36.032  12.656  14.710  0.00  0.00     0.051 C 
HETATM    2  N   UNK N   1      35.573  13.204  13.621  0.00  0.00    -0.388 N 
ATOM      3  HN  UNK N   1      35.399  14.207  13.680  1.00  0.00     0.159 HD
ENDROOT
BRANCH   1   4
HETATM    4  C   UNK N   1      36.352  11.166  14.742  0.00  0.00    -0.009 A 
HETATM    5  C   UNK N   1      37.655  10.678  14.574  0.00  0.00     0.015 A 
HETATM    6  C   UNK N   1      37.938   9.310  14.610  0.00  0.00     0.024 A 
HETATM    7  C   UNK N   1      36.913   8.392  14.832  0.00  0.00     0.034 A 
HETATM    8  C   UNK N   1      35.609   8.846  15.020  0.00  0.00     0.024 A 
HETATM    9 Cl   UNK N   1      37.260   6.677  14.876  0.00  0.00    -0.084 Cl
HETATM   10  C   UNK N   1      35.338  10.215  14.978  0.00  0.00     0.015 A 
ENDBRANCH   1   4
BRANCH   1  11
HETATM   11  C   UNK N   1      36.157  13.640  15.874  0.00  0.00     0.027 A 
HETATM   12  C   UNK N   1      35.394  13.307  17.018  0.00  0.00     0.058 A 
HETATM   13  C   UNK N   1      35.375  14.096  18.162  0.00  0.00     0.117 A 
HETATM   14  C   UNK N   1      36.131  15.258  18.211  0.00  0.00     0.045 A 
HETATM   15  F   UNK N   1      34.614  13.730  19.222  0.00  0.00    -0.206 F 
HETATM   16  C   UNK N   1      36.888  15.632  17.105  0.00  0.00     0.040 A 
HETATM   17  C   UNK N   1      36.910  14.855  15.938  0.00  0.00     0.078 A 
BRANCH  17  18
HETATM   18  O   UNK N   1      37.626  15.322  14.913  0.00  0.00    -0.360 OA
HETATM   19  H   UNK N   1      37.435  16.160  14.540  0.00  0.00     0.217 HD
ENDBRANCH  17  18
ENDBRANCH   1  11
BRANCH   2  20
HETATM   20  C   UNK N   1      35.276  12.606  12.344  0.00  0.00     0.120 C 
BRANCH  20  21
HETATM   21  C   UNK N   1      35.455  13.654  11.249  0.00  0.00     0.027 C 
BRANCH  21  22
HETATM   22  C   UNK N   1      34.984  15.023  11.727  0.00  0.00     0.085 C 
BRANCH  22  23
HETATM   23  C   UNK N   1      35.679  16.118  11.000  0.00  0.00     0.108 C 
HETATM   24  N   UNK N   1      35.012  17.118  10.558  0.00  0.00    -0.384 N 
HETATM   25  H   UNK N   1      35.215  17.635   9.745  0.00  0.00     0.157 HD
ATOM     26  HN  UNK N   1      34.196  17.405  11.097  1.00  0.00     0.157 HD
BRANCH  23  27
HETATM   27  O   UNK N   1      37.016  16.082  10.851  0.00  0.00    -0.350 OA
HETATM   28  H   UNK N   1      37.617  16.799  10.819  0.00  0.00     0.219 HD
ENDBRANCH  23  27
ENDBRANCH  22  23
ENDBRANCH  21  22
ENDBRANCH  20  21
ENDBRANCH   2  20
TORSDOF 8
ENDMDL
MODEL 6
REMARK VINA RESULT:      -6.3     11.307     13.070
REMARK  8 active torsions:
REMARK  status: ('A' for Active; 'I' for Inactive)
REMARK    1  A    between atoms: C_2  and  C_1 
REMARK    2  A    between atoms: C_9  and  C_1 
REMARK    3  A    between atoms: C_16  and  C_2 
REMARK    4  A    between atoms: N_22  and  C_9 
REMARK    5  A    between atoms: C_17  and  C_11 
REMARK    6  A    between atoms: C_17  and  C_14 
REMARK    7  A    between atoms: O_24  and  C_15 
REMARK    8  A    between atoms: O_25  and  C_16 
ROOT
HETATM    1  C   UNK N   1      27.261  25.039  -4.247  0.00  0.00     0.051 C 
HETATM    2  N   UNK N   1      27.701  24.664  -3.081  0.00  0.00    -0.388 N 
ATOM      3  HN  UNK N   1      27.770  25.406  -2.384  1.00  0.00     0.159 HD
ENDROOT
BRANCH   1   4
HETATM    4  C   UNK N   1      27.093  24.018  -5.367  0.00  0.00    -0.009 A 
HETATM    5  C   UNK N   1      25.835  23.549  -5.768  0.00  0.00     0.015 A 
HETATM    6  C   UNK N   1      25.693  22.617  -6.800  0.00  0.00     0.024 A 
HETATM    7  C   UNK N   1      26.819  22.141  -7.468  0.00  0.00     0.034 A 
HETATM    8  C   UNK N   1      28.083  22.601  -7.106  0.00  0.00     0.024 A 
HETATM    9 Cl   UNK N   1      26.647  20.971  -8.760  0.00  0.00    -0.084 Cl
HETATM   10  C   UNK N   1      28.213  23.529  -6.070  0.00  0.00     0.015 A 
ENDBRANCH   1   4
BRANCH   1  11
HETATM   11  C   UNK N   1      26.994  26.542  -4.337  0.00  0.00     0.027 A 
HETATM   12  C   UNK N   1      27.429  27.152  -5.537  0.00  0.00     0.058 A 
HETATM   13  C   UNK N   1      27.283  28.513  -5.782  0.00  0.00     0.117 A 
HETATM   14  C   UNK N   1      26.683  29.324  -4.831  0.00  0.00     0.045 A 
HETATM   15  F   UNK N   1      27.732  29.041  -6.947  0.00  0.00    -0.206 F 
HETATM   16  C   UNK N   1      26.249  28.771  -3.630  0.00  0.00     0.040 A 
HETATM   17  C   UNK N   1      26.400  27.403  -3.360  0.00  0.00     0.078 A 
BRANCH  17  18
HETATM   18  O   UNK N   1      25.999  26.975  -2.161  0.00  0.00    -0.360 OA
HETATM   19  H   UNK N   1      26.611  26.594  -1.562  0.00  0.00     0.217 HD
ENDBRANCH  17  18
ENDBRANCH   1  11
BRANCH   2  20
HETATM   20  C   UNK N   1      28.104  23.358  -2.624  0.00  0.00     0.120 C 
BRANCH  20  21
HETATM   21  C   UNK N   1      29.626  23.310  -2.528  0.00  0.00     0.027 C 
BRANCH  21  22
HETATM   22  C   UNK N   1      30.175  22.078  -3.239  0.00  0.00     0.085 C 
BRANCH  22  23
HETATM   23  C   UNK N   1      31.658  22.020  -3.152  0.00  0.00     0.108 C 
HETATM   24  N   UNK N   1      32.376  22.581  -4.051  0.00  0.00    -0.384 N 
HETATM   25  H   UNK N   1      33.258  22.274  -4.364  0.00  0.00     0.157 HD
ATOM     26  HN  UNK N   1      32.000  23.425  -4.484  1.00  0.00     0.157 HD
BRANCH  23  27
HETATM   27  O   UNK N   1      32.245  21.419  -2.100  0.00  0.00    -0.350 OA
HETATM   28  H   UNK N   1      32.394  21.764  -1.242  0.00  0.00     0.219 HD
ENDBRANCH  23  27
ENDBRANCH  22  23
ENDBRANCH  21  22
ENDBRANCH  20  21
ENDBRANCH   2  20
TORSDOF 8
ENDMDL
MODEL 7
REMARK VINA RESULT:      -6.3     12.031     14.464
REMARK  8 active torsions:
REMARK  status: ('A' for Active; 'I' for Inactive)
REMARK    1  A    between atoms: C_2  and  C_1 
REMARK    2  A    between atoms: C_9  and  C_1 
REMARK    3  A    between atoms: C_16  and  C_2 
REMARK    4  A    between atoms: N_22  and  C_9 
REMARK    5  A    between atoms: C_17  and  C_11 
REMARK    6  A    between atoms: C_17  and  C_14 
REMARK    7  A    between atoms: O_24  and  C_15 
REMARK    8  A    between atoms: O_25  and  C_16 
ROOT
HETATM    1  C   UNK N   1      26.976  24.085  -5.760  0.00  0.00     0.051 C 
HETATM    2  N   UNK N   1      26.388  25.225  -5.542  0.00  0.00    -0.388 N 
ATOM      3  HN  UNK N   1      26.668  25.700  -4.684  1.00  0.00     0.159 HD
ENDROOT
BRANCH   1   4
HETATM    4  C   UNK N   1      26.658  23.288  -7.021  0.00  0.00    -0.009 A 
HETATM    5  C   UNK N   1      27.372  23.460  -8.214  0.00  0.00     0.015 A 
HETATM    6  C   UNK N   1      27.075  22.720  -9.362  0.00  0.00     0.024 A 
HETATM    7  C   UNK N   1      26.055  21.771  -9.334  0.00  0.00     0.034 A 
HETATM    8  C   UNK N   1      25.338  21.563  -8.158  0.00  0.00     0.024 A 
HETATM    9 Cl   UNK N   1      25.677  20.843 -10.770  0.00  0.00    -0.084 Cl
HETATM   10  C   UNK N   1      25.640  22.311  -7.019  0.00  0.00     0.015 A 
ENDBRANCH   1   4
BRANCH   1  11
HETATM   11  C   UNK N   1      27.930  23.672  -4.638  0.00  0.00     0.027 A 
HETATM   12  C   UNK N   1      29.107  23.017  -5.070  0.00  0.00     0.058 A 
HETATM   13  C   UNK N   1      30.076  22.557  -4.186  0.00  0.00     0.117 A 
HETATM   14  C   UNK N   1      29.909  22.744  -2.822  0.00  0.00     0.045 A 
HETATM   15  F   UNK N   1      31.177  21.925  -4.660  0.00  0.00    -0.206 F 
HETATM   16  C   UNK N   1      28.762  23.374  -2.349  0.00  0.00     0.040 A 
HETATM   17  C   UNK N   1      27.767  23.832  -3.225  0.00  0.00     0.078 A 
BRANCH  17  18
HETATM   18  O   UNK N   1      26.680  24.378  -2.675  0.00  0.00    -0.360 OA
HETATM   19  H   UNK N   1      26.212  23.930  -1.999  0.00  0.00     0.217 HD
ENDBRANCH  17  18
ENDBRANCH   1  11
BRANCH   2  20
HETATM   20  C   UNK N   1      25.402  25.920  -6.330  0.00  0.00     0.120 C 
BRANCH  20  21
HETATM   21  C   UNK N   1      25.119  27.277  -5.694  0.00  0.00     0.027 C 
BRANCH  21  22
HETATM   22  C   UNK N   1      26.364  27.822  -5.003  0.00  0.00     0.085 C 
BRANCH  22  23
HETATM   23  C   UNK N   1      26.067  28.248  -3.610  0.00  0.00     0.108 C 
HETATM   24  N   UNK N   1      26.002  27.377  -2.673  0.00  0.00    -0.384 N 
HETATM   25  H   UNK N   1      25.422  27.422  -1.879  0.00  0.00     0.157 HD
ATOM     26  HN  UNK N   1      26.607  26.560  -2.758  1.00  0.00     0.157 HD
BRANCH  23  27
HETATM   27  O   UNK N   1      25.918  29.555  -3.325  0.00  0.00    -0.350 OA
HETATM   28  H   UNK N   1      25.474  29.944  -2.597  0.00  0.00     0.219 HD
ENDBRANCH  23  27
ENDBRANCH  22  23
ENDBRANCH  21  22
ENDBRANCH  20  21
ENDBRANCH   2  20
TORSDOF 8
ENDMDL
MODEL 8
REMARK VINA RESULT:      -6.2      8.457     10.153
REMARK  8 active torsions:
REMARK  status: ('A' for Active; 'I' for Inactive)
REMARK    1  A    between atoms: C_2  and  C_1 
REMARK    2  A    between atoms: C_9  and  C_1 
REMARK    3  A    between atoms: C_16  and  C_2 
REMARK    4  A    between atoms: N_22  and  C_9 
REMARK    5  A    between atoms: C_17  and  C_11 
REMARK    6  A    between atoms: C_17  and  C_14 
REMARK    7  A    between atoms: O_24  and  C_15 
REMARK    8  A    between atoms: O_25  and  C_16 
ROOT
HETATM    1  C   UNK N   1      21.788  16.729   5.145  0.00  0.00     0.051 C 
HETATM    2  N   UNK N   1      21.742  18.030   5.138  0.00  0.00    -0.388 N 
ATOM      3  HN  UNK N   1      21.439  18.458   6.013  1.00  0.00     0.159 HD
ENDROOT
BRANCH   1   4
HETATM    4  C   UNK N   1      22.245  15.972   3.903  0.00  0.00    -0.009 A 
HETATM    5  C   UNK N   1      23.579  15.591   3.709  0.00  0.00     0.015 A 
HETATM    6  C   UNK N   1      23.985  14.893   2.568  0.00  0.00     0.024 A 
HETATM    7  C   UNK N   1      23.051  14.546   1.595  0.00  0.00     0.034 A 
HETATM    8  C   UNK N   1      21.713  14.894   1.765  0.00  0.00     0.024 A 
HETATM    9 Cl   UNK N   1      23.555  13.673   0.163  0.00  0.00    -0.084 Cl
HETATM   10  C   UNK N   1      21.320  15.596   2.907  0.00  0.00     0.015 A 
ENDBRANCH   1   4
BRANCH   1  11
HETATM   11  C   UNK N   1      21.317  16.115   6.464  0.00  0.00     0.027 A 
HETATM   12  C   UNK N   1      21.362  14.702   6.511  0.00  0.00     0.058 A 
HETATM   13  C   UNK N   1      20.957  13.975   7.625  0.00  0.00     0.117 A 
HETATM   14  C   UNK N   1      20.492  14.640   8.749  0.00  0.00     0.045 A 
HETATM   15  F   UNK N   1      21.012  12.622   7.604  0.00  0.00    -0.206 F 
HETATM   16  C   UNK N   1      20.420  16.030   8.746  0.00  0.00     0.040 A 
HETATM   17  C   UNK N   1      20.812  16.779   7.627  0.00  0.00     0.078 A 
BRANCH  17  18
HETATM   18  O   UNK N   1      20.658  18.103   7.700  0.00  0.00    -0.360 OA
HETATM   19  H   UNK N   1      20.526  18.522   8.527  0.00  0.00     0.217 HD
ENDBRANCH  17  18
ENDBRANCH   1  11
BRANCH   2  20
HETATM   20  C   UNK N   1      22.054  18.958   4.081  0.00  0.00     0.120 C 
BRANCH  20  21
HETATM   21  C   UNK N   1      20.756  19.526   3.515  0.00  0.00     0.027 C 
BRANCH  21  22
HETATM   22  C   UNK N   1      20.657  19.263   2.016  0.00  0.00     0.085 C 
BRANCH  22  23
HETATM   23  C   UNK N   1      20.682  20.531   1.241  0.00  0.00     0.108 C 
HETATM   24  N   UNK N   1      20.794  21.652   1.849  0.00  0.00    -0.384 N 
HETATM   25  H   UNK N   1      20.400  22.508   1.563  0.00  0.00     0.157 HD
ATOM     26  HN  UNK N   1      21.341  21.659   2.710  1.00  0.00     0.157 HD
BRANCH  23  27
HETATM   27  O   UNK N   1      20.636  20.496  -0.104  0.00  0.00    -0.350 OA
HETATM   28  H   UNK N   1      21.348  20.408  -0.707  0.00  0.00     0.219 HD
ENDBRANCH  23  27
ENDBRANCH  22  23
ENDBRANCH  21  22
ENDBRANCH  20  21
ENDBRANCH   2  20
TORSDOF 8
ENDMDL
MODEL 9
REMARK VINA RESULT:      -6.2      7.633     10.603
REMARK  8 active torsions:
REMARK  status: ('A' for Active; 'I' for Inactive)
REMARK    1  A    between atoms: C_2  and  C_1 
REMARK    2  A    between atoms: C_9  and  C_1 
REMARK    3  A    between atoms: C_16  and  C_2 
REMARK    4  A    between atoms: N_22  and  C_9 
REMARK    5  A    between atoms: C_17  and  C_11 
REMARK    6  A    between atoms: C_17  and  C_14 
REMARK    7  A    between atoms: O_24  and  C_15 
REMARK    8  A    between atoms: O_25  and  C_16 
ROOT
HETATM    1  C   UNK N   1      36.272  13.693  12.300  0.00  0.00     0.051 C 
HETATM    2  N   UNK N   1      36.188  14.981  12.135  0.00  0.00    -0.388 N 
ATOM      3  HN  UNK N   1      35.883  15.504  12.956  1.00  0.00     0.159 HD
ENDROOT
BRANCH   1   4
HETATM    4  C   UNK N   1      36.737  12.802  11.152  0.00  0.00    -0.009 A 
HETATM    5  C   UNK N   1      35.843  12.246  10.228  0.00  0.00     0.015 A 
HETATM    6  C   UNK N   1      36.281  11.436   9.177  0.00  0.00     0.024 A 
HETATM    7  C   UNK N   1      37.641  11.174   9.020  0.00  0.00     0.034 A 
HETATM    8  C   UNK N   1      38.558  11.726   9.912  0.00  0.00     0.024 A 
HETATM    9 Cl   UNK N   1      38.196  10.157   7.707  0.00  0.00    -0.084 Cl
HETATM   10  C   UNK N   1      38.108  12.530  10.961  0.00  0.00     0.015 A 
ENDBRANCH   1   4
BRANCH   1  11
HETATM   11  C   UNK N   1      35.835  13.232  13.691  0.00  0.00     0.027 A 
HETATM   12  C   UNK N   1      34.784  12.284  13.700  0.00  0.00     0.058 A 
HETATM   13  C   UNK N   1      34.249  11.769  14.875  0.00  0.00     0.117 A 
HETATM   14  C   UNK N   1      34.754  12.178  16.099  0.00  0.00     0.045 A 
HETATM   15  F   UNK N   1      33.234  10.873  14.818  0.00  0.00    -0.206 F 
HETATM   16  C   UNK N   1      35.781  13.117  16.141  0.00  0.00     0.040 A 
HETATM   17  C   UNK N   1      36.324  13.658  14.967  0.00  0.00     0.078 A 
BRANCH  17  18
HETATM   18  O   UNK N   1      37.270  14.589  15.109  0.00  0.00    -0.360 OA
HETATM   19  H   UNK N   1      38.129  14.355  15.400  0.00  0.00     0.217 HD
ENDBRANCH  17  18
ENDBRANCH   1  11
BRANCH   2  20
HETATM   20  C   UNK N   1      36.462  15.781  10.968  0.00  0.00     0.120 C 
BRANCH  20  21
HETATM   21  C   UNK N   1      35.271  16.695  10.698  0.00  0.00     0.027 C 
BRANCH  21  22
HETATM   22  C   UNK N   1      34.483  16.215   9.484  0.00  0.00     0.085 C 
BRANCH  22  23
HETATM   23  C   UNK N   1      33.548  15.118   9.844  0.00  0.00     0.108 C 
HETATM   24  N   UNK N   1      33.146  14.297   8.947  0.00  0.00    -0.384 N 
HETATM   25  H   UNK N   1      32.267  13.854   8.918  0.00  0.00     0.157 HD
ATOM     26  HN  UNK N   1      33.797  14.082   8.192  1.00  0.00     0.157 HD
BRANCH  23  27
HETATM   27  O   UNK N   1      33.163  14.957  11.124  0.00  0.00    -0.350 OA
HETATM   28  H   UNK N   1      32.444  14.457  11.457  0.00  0.00     0.219 HD
ENDBRANCH  23  27
ENDBRANCH  22  23
ENDBRANCH  21  22
ENDBRANCH  20  21
ENDBRANCH   2  20
TORSDOF 8
ENDMDL
