MODEL 1
REMARK VINA RESULT:      -8.1      0.000      0.000
REMARK  5 active torsions:
REMARK  status: ('A' for Active; 'I' for Inactive)
REMARK    1  A    between atoms: C_15  and  N_2 
REMARK    2  A    between atoms: N_14  and  C_7 
REMARK    3  A    between atoms: N_12  and  C_8 
REMARK    4  A    between atoms: N_12  and  C_23 
REMARK    5  A    between atoms: C_18  and  N_14 
ROOT
HETATM    1  C   UNK N   1      29.269  22.366  -5.533  0.00  0.00     0.069 A 
HETATM    2  N   UNK N   1      30.276  21.482  -5.890  0.00  0.00    -0.307 N 
HETATM    3  C   UNK N   1      29.323  23.075  -4.313  0.00  0.00     0.062 A 
HETATM    4  C   UNK N   1      28.182  22.597  -6.367  0.00  0.00     0.064 A 
HETATM    5  N   UNK N   1      30.353  22.864  -3.462  0.00  0.00    -0.352 N 
ATOM      6  HN  UNK N   1      30.389  23.378  -2.581  1.00  0.00     0.166 HD
HETATM    7  C   UNK N   1      27.226  24.220  -4.844  0.00  0.00     0.061 A 
HETATM    8  C   UNK N   1      27.150  23.469  -6.050  0.00  0.00     0.057 A 
HETATM    9  C   UNK N   1      28.317  23.999  -3.984  0.00  0.00     0.063 A 
HETATM   10  C   UNK N   1      31.316  21.281  -4.995  0.00  0.00     0.067 A 
HETATM   11  C   UNK N   1      31.336  21.982  -3.761  0.00  0.00     0.060 A 
HETATM   12  C   UNK N   1      32.349  20.360  -5.251  0.00  0.00     0.032 A 
HETATM   13  C   UNK N   1      32.364  21.762  -2.838  0.00  0.00     0.032 A 
HETATM   14  C   UNK N   1      33.369  20.144  -4.324  0.00  0.00     0.002 A 
HETATM   15  C   UNK N   1      33.377  20.844  -3.118  0.00  0.00     0.002 A 
ENDROOT
BRANCH   7  16
HETATM   16  N   UNK N   1      26.201  25.130  -4.431  0.00  0.00    -0.354 N 
HETATM   17  H   UNK N   1      25.375  24.755  -4.050  0.00  0.00     0.166 HD
BRANCH  16  18
HETATM   18  C   UNK N   1      26.306  26.542  -4.539  0.00  0.00     0.032 A 
HETATM   19  C   UNK N   1      26.850  27.096  -5.701  0.00  0.00     0.031 A 
HETATM   20  C   UNK N   1      27.123  28.466  -5.763  0.00  0.00     0.026 A 
HETATM   21  C   UNK N   1      26.850  29.285  -4.664  0.00  0.00     0.034 A 
HETATM   22  C   UNK N   1      26.267  28.744  -3.514  0.00  0.00     0.026 A 
HETATM   23 Cl   UNK N   1      27.269  30.983  -4.717  0.00  0.00    -0.084 Cl
HETATM   24  C   UNK N   1      25.995  27.375  -3.450  0.00  0.00     0.031 A 
ENDBRANCH  16  18
ENDBRANCH   7  16
BRANCH   8  25
HETATM   25  N   UNK N   1      26.121  23.537  -6.824  0.00  0.00    -0.384 N 
ATOM     26  HN  UNK N   1      25.346  24.140  -6.547  1.00  0.00     0.160 HD
BRANCH  25  27
HETATM   27  C   UNK N   1      26.008  22.804  -8.066  0.00  0.00     0.073 C 
HETATM   28  C   UNK N   1      25.642  23.751  -9.189  0.00  0.00     0.031 C 
HETATM   29  C   UNK N   1      24.943  21.736  -7.932  0.00  0.00     0.031 C 
ENDBRANCH  25  27
ENDBRANCH   8  25
BRANCH   2  30
HETATM   30  C   UNK N   1      30.242  20.801  -7.199  0.00  0.00     0.040 A 
HETATM   31  C   UNK N   1      29.650  19.527  -7.351  0.00  0.00     0.031 A 
HETATM   32  C   UNK N   1      29.513  18.926  -8.600  0.00  0.00     0.026 A 
HETATM   33  C   UNK N   1      29.961  19.590  -9.738  0.00  0.00     0.034 A 
HETATM   34  C   UNK N   1      30.568  20.841  -9.621  0.00  0.00     0.026 A 
HETATM   35 Cl   UNK N   1      29.743  18.856 -11.311  0.00  0.00    -0.084 Cl
HETATM   36  C   UNK N   1      30.710  21.439  -8.364  0.00  0.00     0.031 A 
ENDBRANCH   2  30
TORSDOF 5
ENDMDL
MODEL 2
REMARK VINA RESULT:      -7.9     11.281     12.935
REMARK  5 active torsions:
REMARK  status: ('A' for Active; 'I' for Inactive)
REMARK    1  A    between atoms: C_15  and  N_2 
REMARK    2  A    between atoms: N_14  and  C_7 
REMARK    3  A    between atoms: N_12  and  C_8 
REMARK    4  A    between atoms: N_12  and  C_23 
REMARK    5  A    between atoms: C_18  and  N_14 
ROOT
HETATM    1  C   UNK N   1      28.082  16.234   4.426  0.00  0.00     0.069 A 
HETATM    2  N   UNK N   1      29.272  15.585   4.135  0.00  0.00    -0.307 N 
HETATM    3  C   UNK N   1      26.860  15.797   3.871  0.00  0.00     0.062 A 
HETATM    4  C   UNK N   1      28.048  17.327   5.286  0.00  0.00     0.064 A 
HETATM    5  N   UNK N   1      26.851  14.752   3.013  0.00  0.00    -0.352 N 
ATOM      6  HN  UNK N   1      25.966  14.439   2.613  1.00  0.00     0.166 HD
HETATM    7  C   UNK N   1      25.644  17.542   5.083  0.00  0.00     0.061 A 
HETATM    8  C   UNK N   1      26.882  18.009   5.603  0.00  0.00     0.057 A 
HETATM    9  C   UNK N   1      25.657  16.440   4.208  0.00  0.00     0.063 A 
HETATM   10  C   UNK N   1      29.233  14.520   3.248  0.00  0.00     0.067 A 
HETATM   11  C   UNK N   1      27.998  14.116   2.677  0.00  0.00     0.060 A 
HETATM   12  C   UNK N   1      30.401  13.840   2.851  0.00  0.00     0.032 A 
HETATM   13  C   UNK N   1      27.954  13.063   1.756  0.00  0.00     0.032 A 
HETATM   14  C   UNK N   1      30.349  12.794   1.929  0.00  0.00     0.002 A 
HETATM   15  C   UNK N   1      29.126  12.406   1.382  0.00  0.00     0.002 A 
ENDROOT
BRANCH   7  16
HETATM   16  N   UNK N   1      24.396  18.193   5.346  0.00  0.00    -0.354 N 
HETATM   17  H   UNK N   1      24.104  18.270   6.282  0.00  0.00     0.166 HD
BRANCH  16  18
HETATM   18  C   UNK N   1      23.557  18.732   4.337  0.00  0.00     0.032 A 
HETATM   19  C   UNK N   1      23.988  19.851   3.620  0.00  0.00     0.031 A 
HETATM   20  C   UNK N   1      23.114  20.503   2.745  0.00  0.00     0.026 A 
HETATM   21  C   UNK N   1      21.807  20.035   2.582  0.00  0.00     0.034 A 
HETATM   22  C   UNK N   1      21.383  18.892   3.265  0.00  0.00     0.026 A 
HETATM   23 Cl   UNK N   1      20.693  20.903   1.549  0.00  0.00    -0.084 Cl
HETATM   24  C   UNK N   1      22.254  18.240   4.141  0.00  0.00     0.031 A 
ENDBRANCH  16  18
ENDBRANCH   7  16
BRANCH   8  25
HETATM   25  N   UNK N   1      26.954  19.083   6.315  0.00  0.00    -0.384 N 
ATOM     26  HN  UNK N   1      26.593  19.055   7.268  1.00  0.00     0.160 HD
BRANCH  25  27
HETATM   27  C   UNK N   1      27.519  20.323   5.831  0.00  0.00     0.073 C 
HETATM   28  C   UNK N   1      26.748  21.494   6.403  0.00  0.00     0.031 C 
HETATM   29  C   UNK N   1      27.451  20.359   4.319  0.00  0.00     0.031 C 
ENDBRANCH  25  27
ENDBRANCH   8  25
BRANCH   2  30
HETATM   30  C   UNK N   1      30.531  16.009   4.777  0.00  0.00     0.040 A 
HETATM   31  C   UNK N   1      31.360  16.993   4.194  0.00  0.00     0.031 A 
HETATM   32  C   UNK N   1      32.491  17.479   4.846  0.00  0.00     0.026 A 
HETATM   33  C   UNK N   1      32.821  16.998   6.109  0.00  0.00     0.034 A 
HETATM   34  C   UNK N   1      32.034  16.011   6.705  0.00  0.00     0.026 A 
HETATM   35 Cl   UNK N   1      34.213  17.646   6.948  0.00  0.00    -0.084 Cl
HETATM   36  C   UNK N   1      30.902  15.520   6.045  0.00  0.00     0.031 A 
ENDBRANCH   2  30
TORSDOF 5
ENDMDL
MODEL 3
REMARK VINA RESULT:      -7.8     19.550     23.436
REMARK  5 active torsions:
REMARK  status: ('A' for Active; 'I' for Inactive)
REMARK    1  A    between atoms: C_15  and  N_2 
REMARK    2  A    between atoms: N_14  and  C_7 
REMARK    3  A    between atoms: N_12  and  C_8 
REMARK    4  A    between atoms: N_12  and  C_23 
REMARK    5  A    between atoms: C_18  and  N_14 
ROOT
HETATM    1  C   UNK N   1      36.658  12.257  13.873  0.00  0.00     0.069 A 
HETATM    2  N   UNK N   1      36.763  11.243  14.813  0.00  0.00    -0.307 N 
HETATM    3  C   UNK N   1      36.113  13.513  14.216  0.00  0.00     0.062 A 
HETATM    4  C   UNK N   1      37.099  12.077  12.567  0.00  0.00     0.064 A 
HETATM    5  N   UNK N   1      35.652  13.723  15.470  0.00  0.00    -0.352 N 
ATOM      6  HN  UNK N   1      35.259  14.632  15.714  1.00  0.00     0.166 HD
HETATM    7  C   UNK N   1      36.507  14.343  11.947  0.00  0.00     0.061 A 
HETATM    8  C   UNK N   1      37.012  13.061  11.592  0.00  0.00     0.057 A 
HETATM    9  C   UNK N   1      36.053  14.544  13.263  0.00  0.00     0.063 A 
HETATM   10  C   UNK N   1      36.276  11.485  16.089  0.00  0.00     0.067 A 
HETATM   11  C   UNK N   1      35.705  12.745  16.405  0.00  0.00     0.060 A 
HETATM   12  C   UNK N   1      36.289  10.494  17.090  0.00  0.00     0.032 A 
HETATM   13  C   UNK N   1      35.182  12.987  17.680  0.00  0.00     0.032 A 
HETATM   14  C   UNK N   1      35.763  10.742  18.358  0.00  0.00     0.002 A 
HETATM   15  C   UNK N   1      35.210  11.988  18.653  0.00  0.00     0.002 A 
ENDROOT
BRANCH   7  16
HETATM   16  N   UNK N   1      36.368  15.411  11.003  0.00  0.00    -0.354 N 
HETATM   17  H   UNK N   1      37.163  15.954  10.799  0.00  0.00     0.166 HD
BRANCH  16  18
HETATM   18  C   UNK N   1      35.152  15.732  10.346  0.00  0.00     0.032 A 
HETATM   19  C   UNK N   1      34.167  14.748  10.218  0.00  0.00     0.031 A 
HETATM   20  C   UNK N   1      33.038  14.985   9.429  0.00  0.00     0.026 A 
HETATM   21  C   UNK N   1      32.889  16.207   8.768  0.00  0.00     0.034 A 
HETATM   22  C   UNK N   1      33.849  17.210   8.925  0.00  0.00     0.026 A 
HETATM   23 Cl   UNK N   1      31.514  16.466   7.717  0.00  0.00    -0.084 Cl
HETATM   24  C   UNK N   1      34.980  16.975   9.712  0.00  0.00     0.031 A 
ENDBRANCH  16  18
ENDBRANCH   7  16
BRANCH   8  25
HETATM   25  N   UNK N   1      37.335  12.775  10.377  0.00  0.00    -0.384 N 
ATOM     26  HN  UNK N   1      36.596  12.492   9.733  1.00  0.00     0.160 HD
BRANCH  25  27
HETATM   27  C   UNK N   1      38.692  12.834   9.878  0.00  0.00     0.073 C 
HETATM   28  C   UNK N   1      38.784  13.854   8.763  0.00  0.00     0.031 C 
HETATM   29  C   UNK N   1      39.105  11.473   9.360  0.00  0.00     0.031 C 
ENDBRANCH  25  27
ENDBRANCH   8  25
BRANCH   2  30
HETATM   30  C   UNK N   1      37.398   9.959  14.460  0.00  0.00     0.040 A 
HETATM   31  C   UNK N   1      38.778   9.738  14.669  0.00  0.00     0.031 A 
HETATM   32  C   UNK N   1      39.363   8.494  14.443  0.00  0.00     0.026 A 
HETATM   33  C   UNK N   1      38.580   7.430  14.007  0.00  0.00     0.034 A 
HETATM   34  C   UNK N   1      37.217   7.620  13.772  0.00  0.00     0.026 A 
HETATM   35 Cl   UNK N   1      39.307   5.857  13.772  0.00  0.00    -0.084 Cl
HETATM   36  C   UNK N   1      36.633   8.872  13.993  0.00  0.00     0.031 A 
ENDBRANCH   2  30
TORSDOF 5
ENDMDL
MODEL 4
REMARK VINA RESULT:      -7.6     15.802     19.993
REMARK  5 active torsions:
REMARK  status: ('A' for Active; 'I' for Inactive)
REMARK    1  A    between atoms: C_15  and  N_2 
REMARK    2  A    between atoms: N_14  and  C_7 
REMARK    3  A    between atoms: N_12  and  C_8 
REMARK    4  A    between atoms: N_12  and  C_23 
REMARK    5  A    between atoms: C_18  and  N_14 
ROOT
HETATM    1  C   UNK N   1      34.696  14.954   8.682  0.00  0.00     0.069 A 
HETATM    2  N   UNK N   1      34.096  14.833   7.437  0.00  0.00    -0.307 N 
HETATM    3  C   UNK N   1      34.091  15.707   9.710  0.00  0.00     0.062 A 
HETATM    4  C   UNK N   1      35.905  14.328   8.964  0.00  0.00     0.064 A 
HETATM    5  N   UNK N   1      32.925  16.351   9.471  0.00  0.00    -0.352 N 
ATOM      6  HN  UNK N   1      32.490  16.894  10.217  1.00  0.00     0.166 HD
HETATM    7  C   UNK N   1      35.912  15.143  11.245  0.00  0.00     0.061 A 
HETATM    8  C   UNK N   1      36.544  14.425  10.192  0.00  0.00     0.057 A 
HETATM    9  C   UNK N   1      34.690  15.787  10.979  0.00  0.00     0.063 A 
HETATM   10  C   UNK N   1      32.905  15.508   7.219  0.00  0.00     0.067 A 
HETATM   11  C   UNK N   1      32.328  16.284   8.258  0.00  0.00     0.060 A 
HETATM   12  C   UNK N   1      32.257  15.487   5.969  0.00  0.00     0.032 A 
HETATM   13  C   UNK N   1      31.143  16.995   8.037  0.00  0.00     0.032 A 
HETATM   14  C   UNK N   1      31.077  16.202   5.756  0.00  0.00     0.002 A 
HETATM   15  C   UNK N   1      30.521  16.955   6.789  0.00  0.00     0.002 A 
ENDROOT
BRANCH   7  16
HETATM   16  N   UNK N   1      36.505  15.305  12.538  0.00  0.00    -0.354 N 
HETATM   17  H   UNK N   1      37.096  16.078  12.681  0.00  0.00     0.166 HD
BRANCH  16  18
HETATM   18  C   UNK N   1      36.290  14.417  13.624  0.00  0.00     0.032 A 
HETATM   19  C   UNK N   1      35.380  13.367  13.474  0.00  0.00     0.031 A 
HETATM   20  C   UNK N   1      35.023  12.586  14.577  0.00  0.00     0.026 A 
HETATM   21  C   UNK N   1      35.578  12.850  15.832  0.00  0.00     0.034 A 
HETATM   22  C   UNK N   1      36.521  13.871  15.980  0.00  0.00     0.026 A 
HETATM   23 Cl   UNK N   1      35.066  11.922  17.224  0.00  0.00    -0.084 Cl
HETATM   24  C   UNK N   1      36.878  14.654  14.879  0.00  0.00     0.031 A 
ENDBRANCH  16  18
ENDBRANCH   7  16
BRANCH   8  25
HETATM   25  N   UNK N   1      37.718  13.911  10.334  0.00  0.00    -0.384 N 
ATOM     26  HN  UNK N   1      38.481  14.522  10.625  1.00  0.00     0.160 HD
BRANCH  25  27
HETATM   27  C   UNK N   1      38.010  12.513  10.103  0.00  0.00     0.073 C 
HETATM   28  C   UNK N   1      37.910  11.747  11.405  0.00  0.00     0.031 C 
HETATM   29  C   UNK N   1      39.405  12.370   9.533  0.00  0.00     0.031 C 
ENDBRANCH  25  27
ENDBRANCH   8  25
BRANCH   2  30
HETATM   30  C   UNK N   1      34.706  13.986   6.393  0.00  0.00     0.040 A 
HETATM   31  C   UNK N   1      34.332  12.633   6.232  0.00  0.00     0.031 A 
HETATM   32  C   UNK N   1      34.818  11.859   5.181  0.00  0.00     0.026 A 
HETATM   33  C   UNK N   1      35.690  12.421   4.254  0.00  0.00     0.034 A 
HETATM   34  C   UNK N   1      36.096  13.749   4.397  0.00  0.00     0.026 A 
HETATM   35 Cl   UNK N   1      36.261  11.462   2.907  0.00  0.00    -0.084 Cl
HETATM   36  C   UNK N   1      35.610  14.523   5.457  0.00  0.00     0.031 A 
ENDBRANCH   2  30
TORSDOF 5
ENDMDL
MODEL 5
REMARK VINA RESULT:      -7.6     13.219     15.662
REMARK  5 active torsions:
REMARK  status: ('A' for Active; 'I' for Inactive)
REMARK    1  A    between atoms: C_15  and  N_2 
REMARK    2  A    between atoms: N_14  and  C_7 
REMARK    3  A    between atoms: N_12  and  C_8 
REMARK    4  A    between atoms: N_12  and  C_23 
REMARK    5  A    between atoms: C_18  and  N_14 
ROOT
HETATM    1  C   UNK N   1      24.687  15.997   5.725  0.00  0.00     0.069 A 
HETATM    2  N   UNK N   1      23.328  15.819   5.933  0.00  0.00    -0.307 N 
HETATM    3  C   UNK N   1      25.635  15.167   6.361  0.00  0.00     0.062 A 
HETATM    4  C   UNK N   1      25.162  16.988   4.873  0.00  0.00     0.064 A 
HETATM    5  N   UNK N   1      25.216  14.205   7.214  0.00  0.00    -0.352 N 
ATOM      6  HN  UNK N   1      25.905  13.607   7.672  1.00  0.00     0.166 HD
HETATM    7  C   UNK N   1      27.467  16.341   5.240  0.00  0.00     0.061 A 
HETATM    8  C   UNK N   1      26.512  17.206   4.638  0.00  0.00     0.057 A 
HETATM    9  C   UNK N   1      27.007  15.334   6.107  0.00  0.00     0.063 A 
HETATM   10  C   UNK N   1      22.928  14.829   6.817  0.00  0.00     0.067 A 
HETATM   11  C   UNK N   1      23.899  14.024   7.469  0.00  0.00     0.060 A 
HETATM   12  C   UNK N   1      21.572  14.615   7.132  0.00  0.00     0.032 A 
HETATM   13  C   UNK N   1      23.507  13.044   8.388  0.00  0.00     0.032 A 
HETATM   14  C   UNK N   1      21.189  13.638   8.051  0.00  0.00     0.002 A 
HETATM   15  C   UNK N   1      22.156  12.853   8.679  0.00  0.00     0.002 A 
ENDROOT
BRANCH   7  16
HETATM   16  N   UNK N   1      28.879  16.501   5.064  0.00  0.00    -0.354 N 
HETATM   17  H   UNK N   1      29.207  16.767   4.175  0.00  0.00     0.166 HD
BRANCH  16  18
HETATM   18  C   UNK N   1      29.833  16.299   6.095  0.00  0.00     0.032 A 
HETATM   19  C   UNK N   1      29.966  17.263   7.098  0.00  0.00     0.031 A 
HETATM   20  C   UNK N   1      31.009  17.173   8.023  0.00  0.00     0.026 A 
HETATM   21  C   UNK N   1      31.921  16.117   7.951  0.00  0.00     0.034 A 
HETATM   22  C   UNK N   1      31.770  15.126   6.976  0.00  0.00     0.026 A 
HETATM   23 Cl   UNK N   1      33.273  16.054   9.061  0.00  0.00    -0.084 Cl
HETATM   24  C   UNK N   1      30.728  15.215   6.049  0.00  0.00     0.031 A 
ENDBRANCH  16  18
ENDBRANCH   7  16
BRANCH   8  25
HETATM   25  N   UNK N   1      26.873  18.220   3.927  0.00  0.00    -0.384 N 
ATOM     26  HN  UNK N   1      27.313  18.045   3.023  1.00  0.00     0.160 HD
BRANCH  25  27
HETATM   27  C   UNK N   1      26.687  19.593   4.344  0.00  0.00     0.073 C 
HETATM   28  C   UNK N   1      26.290  20.440   3.153  0.00  0.00     0.031 C 
HETATM   29  C   UNK N   1      27.972  20.123   4.941  0.00  0.00     0.031 C 
ENDBRANCH  25  27
ENDBRANCH   8  25
BRANCH   2  30
HETATM   30  C   UNK N   1      22.346  16.648   5.208  0.00  0.00     0.040 A 
HETATM   31  C   UNK N   1      21.975  17.929   5.676  0.00  0.00     0.031 A 
HETATM   32  C   UNK N   1      21.136  18.763   4.941  0.00  0.00     0.026 A 
HETATM   33  C   UNK N   1      20.647  18.341   3.709  0.00  0.00     0.034 A 
HETATM   34  C   UNK N   1      20.978  17.073   3.227  0.00  0.00     0.026 A 
HETATM   35 Cl   UNK N   1      19.634  19.410   2.766  0.00  0.00    -0.084 Cl
HETATM   36  C   UNK N   1      21.817  16.235   3.969  0.00  0.00     0.031 A 
ENDBRANCH   2  30
TORSDOF 5
ENDMDL
MODEL 6
REMARK VINA RESULT:      -7.5     12.155     13.617
REMARK  5 active torsions:
REMARK  status: ('A' for Active; 'I' for Inactive)
REMARK    1  A    between atoms: C_15  and  N_2 
REMARK    2  A    between atoms: N_14  and  C_7 
REMARK    3  A    between atoms: N_12  and  C_8 
REMARK    4  A    between atoms: N_12  and  C_23 
REMARK    5  A    between atoms: C_18  and  N_14 
ROOT
HETATM    1  C   UNK N   1      28.266  16.880   5.047  0.00  0.00     0.069 A 
HETATM    2  N   UNK N   1      29.587  16.846   5.469  0.00  0.00    -0.307 N 
HETATM    3  C   UNK N   1      27.270  17.506   5.826  0.00  0.00     0.062 A 
HETATM    4  C   UNK N   1      27.881  16.313   3.837  0.00  0.00     0.064 A 
HETATM    5  N   UNK N   1      27.599  18.051   7.020  0.00  0.00    -0.352 N 
ATOM      6  HN  UNK N   1      26.876  18.503   7.581  1.00  0.00     0.166 HD
HETATM    7  C   UNK N   1      25.575  16.991   4.137  0.00  0.00     0.061 A 
HETATM    8  C   UNK N   1      26.572  16.319   3.377  0.00  0.00     0.057 A 
HETATM    9  C   UNK N   1      25.944  17.569   5.366  0.00  0.00     0.063 A 
HETATM   10  C   UNK N   1      29.893  17.407   6.699  0.00  0.00     0.067 A 
HETATM   11  C   UNK N   1      28.870  18.006   7.481  0.00  0.00     0.060 A 
HETATM   12  C   UNK N   1      31.196  17.367   7.231  0.00  0.00     0.032 A 
HETATM   13  C   UNK N   1      29.164  18.546   8.738  0.00  0.00     0.032 A 
HETATM   14  C   UNK N   1      31.480  17.905   8.487  0.00  0.00     0.002 A 
HETATM   15  C   UNK N   1      30.465  18.494   9.239  0.00  0.00     0.002 A 
ENDROOT
BRANCH   7  16
HETATM   16  N   UNK N   1      24.198  17.036   3.746  0.00  0.00    -0.354 N 
HETATM   17  H   UNK N   1      23.993  17.088   2.785  0.00  0.00     0.166 HD
BRANCH  16  18
HETATM   18  C   UNK N   1      23.114  17.008   4.661  0.00  0.00     0.032 A 
HETATM   19  C   UNK N   1      22.433  18.195   4.944  0.00  0.00     0.031 A 
HETATM   20  C   UNK N   1      21.479  18.230   5.965  0.00  0.00     0.026 A 
HETATM   21  C   UNK N   1      21.201  17.077   6.704  0.00  0.00     0.034 A 
HETATM   22  C   UNK N   1      21.849  15.877   6.398  0.00  0.00     0.026 A 
HETATM   23 Cl   UNK N   1      20.067  17.146   8.034  0.00  0.00    -0.084 Cl
HETATM   24  C   UNK N   1      22.804  15.840   5.379  0.00  0.00     0.031 A 
ENDBRANCH  16  18
ENDBRANCH   7  16
BRANCH   8  25
HETATM   25  N   UNK N   1      26.278  15.670   2.302  0.00  0.00    -0.384 N 
ATOM     26  HN  UNK N   1      26.499  16.098   1.403  1.00  0.00     0.160 HD
BRANCH  25  27
HETATM   27  C   UNK N   1      25.651  14.366   2.305  0.00  0.00     0.073 C 
HETATM   28  C   UNK N   1      26.690  13.298   2.036  0.00  0.00     0.031 C 
HETATM   29  C   UNK N   1      24.578  14.314   1.239  0.00  0.00     0.031 C 
ENDBRANCH  25  27
ENDBRANCH   8  25
BRANCH   2  30
HETATM   30  C   UNK N   1      30.630  16.249   4.611  0.00  0.00     0.040 A 
HETATM   31  C   UNK N   1      31.426  17.046   3.757  0.00  0.00     0.031 A 
HETATM   32  C   UNK N   1      32.484  16.507   3.030  0.00  0.00     0.026 A 
HETATM   33  C   UNK N   1      32.783  15.153   3.143  0.00  0.00     0.034 A 
HETATM   34  C   UNK N   1      32.004  14.335   3.963  0.00  0.00     0.026 A 
HETATM   35 Cl   UNK N   1      34.144  14.490   2.267  0.00  0.00    -0.084 Cl
HETATM   36  C   UNK N   1      30.937  14.877   4.688  0.00  0.00     0.031 A 
ENDBRANCH   2  30
TORSDOF 5
ENDMDL
MODEL 7
REMARK VINA RESULT:      -7.5     14.463     18.734
REMARK  5 active torsions:
REMARK  status: ('A' for Active; 'I' for Inactive)
REMARK    1  A    between atoms: C_15  and  N_2 
REMARK    2  A    between atoms: N_14  and  C_7 
REMARK    3  A    between atoms: N_12  and  C_8 
REMARK    4  A    between atoms: N_12  and  C_23 
REMARK    5  A    between atoms: C_18  and  N_14 
ROOT
HETATM    1  C   UNK N   1      33.655  15.521   7.652  0.00  0.00     0.069 A 
HETATM    2  N   UNK N   1      32.655  15.695   6.707  0.00  0.00    -0.307 N 
HETATM    3  C   UNK N   1      33.536  16.070   8.947  0.00  0.00     0.062 A 
HETATM    4  C   UNK N   1      34.802  14.790   7.362  0.00  0.00     0.064 A 
HETATM    5  N   UNK N   1      32.447  16.807   9.263  0.00  0.00    -0.352 N 
ATOM      6  HN  UNK N   1      32.364  17.202  10.200  1.00  0.00     0.166 HD
HETATM    7  C   UNK N   1      35.689  15.103   9.594  0.00  0.00     0.061 A 
HETATM    8  C   UNK N   1      35.829  14.593   8.274  0.00  0.00     0.057 A 
HETATM    9  C   UNK N   1      34.539  15.850   9.906  0.00  0.00     0.063 A 
HETATM   10  C   UNK N   1      31.553  16.460   7.058  0.00  0.00     0.067 A 
HETATM   11  C   UNK N   1      31.467  17.028   8.356  0.00  0.00     0.060 A 
HETATM   12  C   UNK N   1      30.518  16.736   6.144  0.00  0.00     0.032 A 
HETATM   13  C   UNK N   1      30.374  17.828   8.708  0.00  0.00     0.032 A 
HETATM   14  C   UNK N   1      29.434  17.538   6.502  0.00  0.00     0.002 A 
HETATM   15  C   UNK N   1      29.362  18.084   7.783  0.00  0.00     0.002 A 
ENDROOT
BRANCH   7  16
HETATM   16  N   UNK N   1      36.705  14.960  10.593  0.00  0.00    -0.354 N 
HETATM   17  H   UNK N   1      37.515  15.511  10.511  0.00  0.00     0.166 HD
BRANCH  16  18
HETATM   18  C   UNK N   1      36.611  14.068  11.693  0.00  0.00     0.032 A 
HETATM   19  C   UNK N   1      36.052  14.522  12.891  0.00  0.00     0.031 A 
HETATM   20  C   UNK N   1      36.105  13.723  14.037  0.00  0.00     0.026 A 
HETATM   21  C   UNK N   1      36.713  12.466  13.987  0.00  0.00     0.034 A 
HETATM   22  C   UNK N   1      37.237  11.989  12.782  0.00  0.00     0.026 A 
HETATM   23 Cl   UNK N   1      36.849  11.505  15.443  0.00  0.00    -0.084 Cl
HETATM   24  C   UNK N   1      37.187  12.787  11.636  0.00  0.00     0.031 A 
ENDBRANCH  16  18
ENDBRANCH   7  16
BRANCH   8  25
HETATM   25  N   UNK N   1      36.909  14.002   7.889  0.00  0.00    -0.384 N 
ATOM     26  HN  UNK N   1      37.792  14.506   7.972  1.00  0.00     0.160 HD
BRANCH  25  27
HETATM   27  C   UNK N   1      36.934  12.662   7.345  0.00  0.00     0.073 C 
HETATM   28  C   UNK N   1      36.266  11.705   8.310  0.00  0.00     0.031 C 
HETATM   29  C   UNK N   1      38.366  12.232   7.111  0.00  0.00     0.031 C 
ENDBRANCH  25  27
ENDBRANCH   8  25
BRANCH   2  30
HETATM   30  C   UNK N   1      32.761  15.058   5.380  0.00  0.00     0.040 A 
HETATM   31  C   UNK N   1      33.414  15.701   4.305  0.00  0.00     0.031 A 
HETATM   32  C   UNK N   1      33.617  15.062   3.084  0.00  0.00     0.026 A 
HETATM   33  C   UNK N   1      33.177  13.754   2.906  0.00  0.00     0.034 A 
HETATM   34  C   UNK N   1      32.511  13.097   3.942  0.00  0.00     0.026 A 
HETATM   35 Cl   UNK N   1      33.477  12.937   1.389  0.00  0.00    -0.084 Cl
HETATM   36  C   UNK N   1      32.303  13.743   5.166  0.00  0.00     0.031 A 
ENDBRANCH   2  30
TORSDOF 5
ENDMDL
MODEL 8
REMARK VINA RESULT:      -7.4     13.623     17.556
REMARK  5 active torsions:
REMARK  status: ('A' for Active; 'I' for Inactive)
REMARK    1  A    between atoms: C_15  and  N_2 
REMARK    2  A    between atoms: N_14  and  C_7 
REMARK    3  A    between atoms: N_12  and  C_8 
REMARK    4  A    between atoms: N_12  and  C_23 
REMARK    5  A    between atoms: C_18  and  N_14 
ROOT
HETATM    1  C   UNK N   1      32.010  15.884   7.241  0.00  0.00     0.069 A 
HETATM    2  N   UNK N   1      30.816  16.192   6.607  0.00  0.00    -0.307 N 
HETATM    3  C   UNK N   1      32.329  16.434   8.500  0.00  0.00     0.062 A 
HETATM    4  C   UNK N   1      32.928  15.011   6.665  0.00  0.00     0.064 A 
HETATM    5  N   UNK N   1      31.474  17.304   9.085  0.00  0.00    -0.352 N 
ATOM      6  HN  UNK N   1      31.707  17.701   9.996  1.00  0.00     0.166 HD
HETATM    7  C   UNK N   1      34.437  15.193   8.550  0.00  0.00     0.061 A 
HETATM    8  C   UNK N   1      34.136  14.677   7.260  0.00  0.00     0.057 A 
HETATM    9  C   UNK N   1      33.524  16.080   9.148  0.00  0.00     0.063 A 
HETATM   10  C   UNK N   1      29.962  17.091   7.227  0.00  0.00     0.067 A 
HETATM   11  C   UNK N   1      30.315  17.657   8.481  0.00  0.00     0.060 A 
HETATM   12  C   UNK N   1      28.756  17.505   6.630  0.00  0.00     0.032 A 
HETATM   13  C   UNK N   1      29.475  18.589   9.099  0.00  0.00     0.032 A 
HETATM   14  C   UNK N   1      27.925  18.438   7.252  0.00  0.00     0.002 A 
HETATM   15  C   UNK N   1      28.284  18.980   8.485  0.00  0.00     0.002 A 
ENDROOT
BRANCH   7  16
HETATM   16  N   UNK N   1      35.665  14.912   9.231  0.00  0.00    -0.354 N 
HETATM   17  H   UNK N   1      36.508  15.074   8.750  0.00  0.00     0.166 HD
BRANCH  16  18
HETATM   18  C   UNK N   1      35.738  14.413  10.558  0.00  0.00     0.032 A 
HETATM   19  C   UNK N   1      35.262  13.127  10.828  0.00  0.00     0.031 A 
HETATM   20  C   UNK N   1      35.164  12.679  12.149  0.00  0.00     0.026 A 
HETATM   21  C   UNK N   1      35.544  13.515  13.202  0.00  0.00     0.034 A 
HETATM   22  C   UNK N   1      36.060  14.787  12.936  0.00  0.00     0.026 A 
HETATM   23 Cl   UNK N   1      35.341  12.980  14.856  0.00  0.00    -0.084 Cl
HETATM   24  C   UNK N   1      36.157  15.237  11.617  0.00  0.00     0.031 A 
ENDBRANCH  16  18
ENDBRANCH   7  16
BRANCH   8  25
HETATM   25  N   UNK N   1      34.981  13.954   6.607  0.00  0.00    -0.384 N 
ATOM     26  HN  UNK N   1      35.074  12.970   6.862  1.00  0.00     0.160 HD
BRANCH  25  27
HETATM   27  C   UNK N   1      35.804  14.464   5.532  0.00  0.00     0.073 C 
HETATM   28  C   UNK N   1      35.456  13.756   4.240  0.00  0.00     0.031 C 
HETATM   29  C   UNK N   1      37.265  14.241   5.859  0.00  0.00     0.031 C 
ENDBRANCH  25  27
ENDBRANCH   8  25
BRANCH   2  30
HETATM   30  C   UNK N   1      30.465  15.555   5.323  0.00  0.00     0.040 A 
HETATM   31  C   UNK N   1      29.792  14.313   5.277  0.00  0.00     0.031 A 
HETATM   32  C   UNK N   1      29.358  13.759   4.074  0.00  0.00     0.026 A 
HETATM   33  C   UNK N   1      29.580  14.438   2.881  0.00  0.00     0.034 A 
HETATM   34  C   UNK N   1      30.260  15.657   2.889  0.00  0.00     0.026 A 
HETATM   35 Cl   UNK N   1      28.990  13.765   1.378  0.00  0.00    -0.084 Cl
HETATM   36  C   UNK N   1      30.700  16.209   4.098  0.00  0.00     0.031 A 
ENDBRANCH   2  30
TORSDOF 5
ENDMDL
MODEL 9
REMARK VINA RESULT:      -7.4     11.783     15.601
REMARK  5 active torsions:
REMARK  status: ('A' for Active; 'I' for Inactive)
REMARK    1  A    between atoms: C_15  and  N_2 
REMARK    2  A    between atoms: N_14  and  C_7 
REMARK    3  A    between atoms: N_12  and  C_8 
REMARK    4  A    between atoms: N_12  and  C_23 
REMARK    5  A    between atoms: C_18  and  N_14 
ROOT
HETATM    1  C   UNK N   1      30.019  16.660   4.289  0.00  0.00     0.069 A 
HETATM    2  N   UNK N   1      28.699  17.082   4.227  0.00  0.00    -0.307 N 
HETATM    3  C   UNK N   1      30.461  15.544   3.548  0.00  0.00     0.062 A 
HETATM    4  C   UNK N   1      30.954  17.329   5.072  0.00  0.00     0.064 A 
HETATM    5  N   UNK N   1      29.579  14.851   2.791  0.00  0.00    -0.352 N 
ATOM      6  HN  UNK N   1      29.903  14.044   2.257  1.00  0.00     0.166 HD
HETATM    7  C   UNK N   1      32.741  15.847   4.385  0.00  0.00     0.061 A 
HETATM    8  C   UNK N   1      32.282  16.942   5.168  0.00  0.00     0.057 A 
HETATM    9  C   UNK N   1      31.811  15.154   3.589  0.00  0.00     0.063 A 
HETATM   10  C   UNK N   1      27.817  16.349   3.448  0.00  0.00     0.067 A 
HETATM   11  C   UNK N   1      28.276  15.212   2.733  0.00  0.00     0.060 A 
HETATM   12  C   UNK N   1      26.448  16.671   3.372  0.00  0.00     0.032 A 
HETATM   13  C   UNK N   1      27.386  14.447   1.971  0.00  0.00     0.032 A 
HETATM   14  C   UNK N   1      25.567  15.902   2.612  0.00  0.00     0.002 A 
HETATM   15  C   UNK N   1      26.035  14.791   1.912  0.00  0.00     0.002 A 
ENDROOT
BRANCH   7  16
HETATM   16  N   UNK N   1      34.091  15.370   4.433  0.00  0.00    -0.354 N 
HETATM   17  H   UNK N   1      34.692  15.608   3.691  0.00  0.00     0.166 HD
BRANCH  16  18
HETATM   18  C   UNK N   1      34.611  14.573   5.486  0.00  0.00     0.032 A 
HETATM   19  C   UNK N   1      33.862  13.490   5.954  0.00  0.00     0.031 A 
HETATM   20  C   UNK N   1      34.269  12.798   7.098  0.00  0.00     0.026 A 
HETATM   21  C   UNK N   1      35.428  13.185   7.775  0.00  0.00     0.034 A 
HETATM   22  C   UNK N   1      36.204  14.241   7.289  0.00  0.00     0.026 A 
HETATM   23 Cl   UNK N   1      35.888  12.368   9.253  0.00  0.00    -0.084 Cl
HETATM   24  C   UNK N   1      35.798  14.935   6.146  0.00  0.00     0.031 A 
ENDBRANCH  16  18
ENDBRANCH   7  16
BRANCH   8  25
HETATM   25  N   UNK N   1      33.056  17.544   6.005  0.00  0.00    -0.384 N 
ATOM     26  HN  UNK N   1      33.905  17.985   5.649  1.00  0.00     0.160 HD
BRANCH  25  27
HETATM   27  C   UNK N   1      32.784  17.629   7.423  0.00  0.00     0.073 C 
HETATM   28  C   UNK N   1      33.945  18.297   8.129  0.00  0.00     0.031 C 
HETATM   29  C   UNK N   1      32.577  16.239   7.987  0.00  0.00     0.031 C 
ENDBRANCH  25  27
ENDBRANCH   8  25
BRANCH   2  30
HETATM   30  C   UNK N   1      28.266  18.292   4.953  0.00  0.00     0.040 A 
HETATM   31  C   UNK N   1      27.955  19.489   4.269  0.00  0.00     0.031 A 
HETATM   32  C   UNK N   1      27.440  20.599   4.934  0.00  0.00     0.026 A 
HETATM   33  C   UNK N   1      27.214  20.541   6.305  0.00  0.00     0.034 A 
HETATM   34  C   UNK N   1      27.529  19.380   7.014  0.00  0.00     0.026 A 
HETATM   35 Cl   UNK N   1      26.520  21.919   7.129  0.00  0.00    -0.084 Cl
HETATM   36  C   UNK N   1      28.053  18.268   6.345  0.00  0.00     0.031 A 
ENDBRANCH   2  30
TORSDOF 5
ENDMDL
