MODEL 1
REMARK VINA RESULT:      -6.7      0.000      0.000
REMARK  7 active torsions:
REMARK  status: ('A' for Active; 'I' for Inactive)
REMARK    1  A    between atoms: C_4  and  S_5 
REMARK    2  A    between atoms: C_6  and  S_5 
REMARK    3  A    between atoms: C_9  and  C_11 
REMARK       I    between atoms: C_11  and  N_13 
REMARK    4  A    between atoms: C_16  and  C_24 
REMARK    5  A    between atoms: C_20  and  C_21 
REMARK    6  A    between atoms: C_21  and  O_23 
REMARK    7  A    between atoms: C_24  and  O_25 
ROOT
HETATM    1  C   UNK N   1      34.128  14.733   9.643  0.00  0.00     0.095 A 
HETATM    2  C   UNK N   1      34.368  14.458   8.132  0.00  0.00     0.043 A 
HETATM    3  C   UNK N   1      35.688  13.761   7.847  0.00  0.00     0.017 C 
HETATM    4  C   UNK N   1      34.310  15.829   7.486  0.00  0.00     0.013 A 
HETATM    5  C   UNK N   1      34.198  16.769   8.419  0.00  0.00     0.105 A 
HETATM    6  N   UNK N   1      34.141  16.159   9.682  0.00  0.00    -0.206 NA
HETATM    7  C   UNK N   1      35.106  16.251  10.568  0.00  0.00     0.213 A 
HETATM    8  O   UNK N   1      35.953  17.132  10.578  0.00  0.00    -0.279 OA
HETATM    9  C   UNK N   1      35.341  14.781  10.702  0.00  0.00     0.120 A 
ENDROOT
BRANCH   4  10
HETATM   10  S   UNK N   1      34.403  16.063   5.691  0.00  0.00    -0.125 SA
BRANCH  10  11
HETATM   11  C   UNK N   1      32.784  16.899   5.683  0.00  0.00     0.072 C 
HETATM   12  C   UNK N   1      32.354  17.550   4.386  0.00  0.00     0.130 C 
HETATM   13  N   UNK N   1      30.885  17.606   4.433  0.00  0.00    -0.408 N 
HETATM   14  C   UNK N   1      30.532  16.922   5.678  0.00  0.00     0.170 C 
HETATM   15  H   UNK N   1      30.254  18.026   3.751  0.00  0.00     0.154 HD
HETATM   16  C   UNK N   1      31.649  15.969   5.947  0.00  0.00     0.051 C 
BRANCH  14  17
HETATM   17  C   UNK N   1      29.168  16.258   5.798  0.00  0.00     0.241 C 
HETATM   18  O   UNK N   1      29.036  15.170   5.252  0.00  0.00    -0.271 OA
HETATM   19  N   UNK N   1      28.110  16.786   6.489  0.00  0.00    -0.359 N 
HETATM   20  C   UNK N   1      26.866  16.058   6.558  0.00  0.00     0.152 C 
HETATM   21  C   UNK N   1      28.187  18.039   7.192  0.00  0.00     0.152 C 
ENDBRANCH  14  17
ENDBRANCH  10  11
ENDBRANCH   4  10
BRANCH   5  22
HETATM   22  C   UNK N   1      34.162  18.238   8.221  0.00  0.00     0.189 C 
HETATM   23  O   UNK N   1      33.099  18.838   8.180  0.00  0.00    -0.645 OA
BRANCH  22  24
HETATM   24  O   UNK N   1      35.313  18.923   8.083  0.00  0.00    -0.772 OA
HETATM   25  H   UNK N   1      36.166  18.536   8.054  0.00  0.00     0.167 HD
ENDBRANCH  22  24
ENDBRANCH   5  22
BRANCH   9  26
HETATM   26  C   UNK N   1      34.952  14.190  12.051  0.00  0.00     0.128 C 
HETATM   27  C   UNK N   1      36.129  14.238  13.004  0.00  0.00     0.040 C 
BRANCH  26  28
HETATM   28  O   UNK N   1      34.562  12.862  11.875  0.00  0.00    -0.395 OA
HETATM   29  H   UNK N   1      34.394  12.299  12.646  0.00  0.00     0.210 HD
ENDBRANCH  26  28
ENDBRANCH   9  26
TORSDOF 7
ENDMDL
MODEL 2
REMARK VINA RESULT:      -6.6     12.836     15.430
REMARK  7 active torsions:
REMARK  status: ('A' for Active; 'I' for Inactive)
REMARK    1  A    between atoms: C_4  and  S_5 
REMARK    2  A    between atoms: C_6  and  S_5 
REMARK    3  A    between atoms: C_9  and  C_11 
REMARK       I    between atoms: C_11  and  N_13 
REMARK    4  A    between atoms: C_16  and  C_24 
REMARK    5  A    between atoms: C_20  and  C_21 
REMARK    6  A    between atoms: C_21  and  O_23 
REMARK    7  A    between atoms: C_24  and  O_25 
ROOT
HETATM    1  C   UNK N   1      31.037  21.291  -5.083  0.00  0.00     0.095 A 
HETATM    2  C   UNK N   1      30.579  22.657  -5.666  0.00  0.00     0.043 A 
HETATM    3  C   UNK N   1      31.730  23.523  -6.151  0.00  0.00     0.017 C 
HETATM    4  C   UNK N   1      29.825  23.318  -4.527  0.00  0.00     0.013 A 
HETATM    5  C   UNK N   1      29.918  22.577  -3.427  0.00  0.00     0.105 A 
HETATM    6  N   UNK N   1      30.660  21.420  -3.713  0.00  0.00    -0.206 NA
HETATM    7  C   UNK N   1      31.862  21.200  -3.231  0.00  0.00     0.213 A 
HETATM    8  O   UNK N   1      32.313  21.738  -2.231  0.00  0.00    -0.279 OA
HETATM    9  C   UNK N   1      32.540  21.052  -4.554  0.00  0.00     0.120 A 
ENDROOT
BRANCH   4  10
HETATM   10  S   UNK N   1      28.962  24.900  -4.721  0.00  0.00    -0.125 SA
BRANCH  10  11
HETATM   11  C   UNK N   1      27.426  24.042  -5.192  0.00  0.00     0.072 C 
HETATM   12  C   UNK N   1      26.135  24.821  -5.059  0.00  0.00     0.130 C 
HETATM   13  N   UNK N   1      25.192  24.201  -6.002  0.00  0.00    -0.408 N 
HETATM   14  C   UNK N   1      25.981  23.176  -6.688  0.00  0.00     0.170 C 
HETATM   15  H   UNK N   1      24.210  24.433  -6.147  0.00  0.00     0.154 HD
HETATM   16  C   UNK N   1      27.396  23.648  -6.629  0.00  0.00     0.051 C 
BRANCH  14  17
HETATM   17  C   UNK N   1      25.576  22.743  -8.089  0.00  0.00     0.241 C 
HETATM   18  O   UNK N   1      24.701  23.401  -8.636  0.00  0.00    -0.271 OA
HETATM   19  N   UNK N   1      26.141  21.697  -8.768  0.00  0.00    -0.359 N 
HETATM   20  C   UNK N   1      25.697  21.388 -10.105  0.00  0.00     0.152 C 
HETATM   21  C   UNK N   1      27.201  20.894  -8.219  0.00  0.00     0.152 C 
ENDBRANCH  14  17
ENDBRANCH  10  11
ENDBRANCH   4  10
BRANCH   5  22
HETATM   22  C   UNK N   1      29.372  22.884  -2.083  0.00  0.00     0.189 C 
HETATM   23  O   UNK N   1      28.168  22.958  -1.899  0.00  0.00    -0.645 OA
BRANCH  22  24
HETATM   24  O   UNK N   1      30.212  23.086  -1.050  0.00  0.00    -0.772 OA
HETATM   25  H   UNK N   1      31.012  22.618  -0.911  0.00  0.00     0.167 HD
ENDBRANCH  22  24
ENDBRANCH   5  22
BRANCH   9  26
HETATM   26  C   UNK N   1      33.043  19.649  -4.863  0.00  0.00     0.128 C 
HETATM   27  C   UNK N   1      34.328  19.374  -4.108  0.00  0.00     0.040 C 
BRANCH  26  28
HETATM   28  O   UNK N   1      33.289  19.540  -6.232  0.00  0.00    -0.395 OA
HETATM   29  H   UNK N   1      34.037  19.012  -6.551  0.00  0.00     0.210 HD
ENDBRANCH  26  28
ENDBRANCH   9  26
TORSDOF 7
ENDMDL
MODEL 3
REMARK VINA RESULT:      -6.5      8.572     11.710
REMARK  7 active torsions:
REMARK  status: ('A' for Active; 'I' for Inactive)
REMARK    1  A    between atoms: C_4  and  S_5 
REMARK    2  A    between atoms: C_6  and  S_5 
REMARK    3  A    between atoms: C_9  and  C_11 
REMARK       I    between atoms: C_11  and  N_13 
REMARK    4  A    between atoms: C_16  and  C_24 
REMARK    5  A    between atoms: C_20  and  C_21 
REMARK    6  A    between atoms: C_21  and  O_23 
REMARK    7  A    between atoms: C_24  and  O_25 
ROOT
HETATM    1  C   UNK N   1      24.736  19.124   4.632  0.00  0.00     0.095 A 
HETATM    2  C   UNK N   1      23.966  17.786   4.455  0.00  0.00     0.043 A 
HETATM    3  C   UNK N   1      24.714  16.765   3.614  0.00  0.00     0.017 C 
HETATM    4  C   UNK N   1      22.655  18.190   3.806  0.00  0.00     0.013 A 
HETATM    5  C   UNK N   1      22.670  19.487   3.515  0.00  0.00     0.105 A 
HETATM    6  N   UNK N   1      23.889  20.040   3.940  0.00  0.00    -0.206 NA
HETATM    7  C   UNK N   1      24.813  20.463   3.109  0.00  0.00     0.213 A 
HETATM    8  O   UNK N   1      24.605  20.778   1.946  0.00  0.00    -0.279 OA
HETATM    9  C   UNK N   1      25.903  19.575   3.616  0.00  0.00     0.120 A 
ENDROOT
BRANCH   4  10
HETATM   10  S   UNK N   1      21.319  17.005   3.495  0.00  0.00    -0.125 SA
BRANCH  10  11
HETATM   11  C   UNK N   1      21.394  16.418   5.218  0.00  0.00     0.072 C 
HETATM   12  C   UNK N   1      20.115  16.486   6.024  0.00  0.00     0.130 C 
HETATM   13  N   UNK N   1      20.250  15.470   7.079  0.00  0.00    -0.408 N 
HETATM   14  C   UNK N   1      21.526  14.813   6.793  0.00  0.00     0.170 C 
HETATM   15  H   UNK N   1      19.600  15.268   7.839  0.00  0.00     0.154 HD
HETATM   16  C   UNK N   1      21.744  14.972   5.325  0.00  0.00     0.051 C 
BRANCH  14  17
HETATM   17  C   UNK N   1      21.741  13.379   7.255  0.00  0.00     0.241 C 
HETATM   18  O   UNK N   1      20.768  12.636   7.212  0.00  0.00    -0.271 OA
HETATM   19  N   UNK N   1      22.941  12.876   7.682  0.00  0.00    -0.359 N 
HETATM   20  C   UNK N   1      23.037  11.491   8.074  0.00  0.00     0.152 C 
HETATM   21  C   UNK N   1      24.143  13.665   7.728  0.00  0.00     0.152 C 
ENDBRANCH  14  17
ENDBRANCH  10  11
ENDBRANCH   4  10
BRANCH   5  22
HETATM   22  C   UNK N   1      21.614  20.270   2.830  0.00  0.00     0.189 C 
HETATM   23  O   UNK N   1      20.658  20.708   3.450  0.00  0.00    -0.645 OA
BRANCH  22  24
HETATM   24  O   UNK N   1      21.705  20.503   1.507  0.00  0.00    -0.772 OA
HETATM   25  H   UNK N   1      21.065  20.962   0.999  0.00  0.00     0.167 HD
ENDBRANCH  22  24
ENDBRANCH   5  22
BRANCH   9  26
HETATM   26  C   UNK N   1      27.039  20.298   4.328  0.00  0.00     0.128 C 
HETATM   27  C   UNK N   1      28.178  19.339   4.607  0.00  0.00     0.040 C 
BRANCH  26  28
HETATM   28  O   UNK N   1      26.570  20.811   5.538  0.00  0.00    -0.395 OA
HETATM   29  H   UNK N   1      25.632  21.040   5.638  0.00  0.00     0.210 HD
ENDBRANCH  26  28
ENDBRANCH   9  26
TORSDOF 7
ENDMDL
MODEL 4
REMARK VINA RESULT:      -6.4      2.175      2.698
REMARK  7 active torsions:
REMARK  status: ('A' for Active; 'I' for Inactive)
REMARK    1  A    between atoms: C_4  and  S_5 
REMARK    2  A    between atoms: C_6  and  S_5 
REMARK    3  A    between atoms: C_9  and  C_11 
REMARK       I    between atoms: C_11  and  N_13 
REMARK    4  A    between atoms: C_16  and  C_24 
REMARK    5  A    between atoms: C_20  and  C_21 
REMARK    6  A    between atoms: C_21  and  O_23 
REMARK    7  A    between atoms: C_24  and  O_25 
ROOT
HETATM    1  C   UNK N   1      34.355  14.729   9.829  0.00  0.00     0.095 A 
HETATM    2  C   UNK N   1      34.577  14.420   8.322  0.00  0.00     0.043 A 
HETATM    3  C   UNK N   1      35.935  13.805   8.025  0.00  0.00     0.017 C 
HETATM    4  C   UNK N   1      34.409  15.761   7.634  0.00  0.00     0.013 A 
HETATM    5  C   UNK N   1      34.255  16.722   8.539  0.00  0.00     0.105 A 
HETATM    6  N   UNK N   1      34.270  16.153   9.822  0.00  0.00    -0.206 NA
HETATM    7  C   UNK N   1      35.248  16.340  10.679  0.00  0.00     0.213 A 
HETATM    8  O   UNK N   1      36.031  17.277  10.639  0.00  0.00    -0.279 OA
HETATM    9  C   UNK N   1      35.586  14.895  10.854  0.00  0.00     0.120 A 
ENDROOT
BRANCH   4  10
HETATM   10  S   UNK N   1      34.443  15.940   5.830  0.00  0.00    -0.125 SA
BRANCH  10  11
HETATM   11  C   UNK N   1      32.833  15.099   5.684  0.00  0.00     0.072 C 
HETATM   12  C   UNK N   1      31.631  15.812   6.266  0.00  0.00     0.130 C 
HETATM   13  N   UNK N   1      30.464  15.289   5.540  0.00  0.00    -0.408 N 
HETATM   14  C   UNK N   1      31.031  14.388   4.534  0.00  0.00     0.170 C 
HETATM   15  H   UNK N   1      29.480  15.505   5.700  0.00  0.00     0.154 HD
HETATM   16  C   UNK N   1      32.410  14.896   4.269  0.00  0.00     0.051 C 
BRANCH  14  17
HETATM   17  C   UNK N   1      30.257  14.128   3.251  0.00  0.00     0.241 C 
HETATM   18  O   UNK N   1      29.768  15.105   2.696  0.00  0.00    -0.271 OA
HETATM   19  N   UNK N   1      30.100  12.894   2.680  0.00  0.00    -0.359 N 
HETATM   20  C   UNK N   1      29.365  12.765   1.445  0.00  0.00     0.152 C 
HETATM   21  C   UNK N   1      30.671  11.699   3.240  0.00  0.00     0.152 C 
ENDBRANCH  14  17
ENDBRANCH  10  11
ENDBRANCH   4  10
BRANCH   5  22
HETATM   22  C   UNK N   1      34.112  18.178   8.295  0.00  0.00     0.189 C 
HETATM   23  O   UNK N   1      33.027  18.663   8.020  0.00  0.00    -0.645 OA
BRANCH  22  24
HETATM   24  O   UNK N   1      35.192  18.979   8.375  0.00  0.00    -0.772 OA
HETATM   25  H   UNK N   1      35.166  19.915   8.367  0.00  0.00     0.167 HD
ENDBRANCH  22  24
ENDBRANCH   5  22
BRANCH   9  26
HETATM   26  C   UNK N   1      35.271  14.325  12.230  0.00  0.00     0.128 C 
HETATM   27  C   UNK N   1      36.527  13.762  12.865  0.00  0.00     0.040 C 
BRANCH  26  28
HETATM   28  O   UNK N   1      34.330  13.303  12.100  0.00  0.00    -0.395 OA
HETATM   29  H   UNK N   1      34.610  12.376  12.149  0.00  0.00     0.210 HD
ENDBRANCH  26  28
ENDBRANCH   9  26
TORSDOF 7
ENDMDL
MODEL 5
REMARK VINA RESULT:      -6.2      2.643      4.449
REMARK  7 active torsions:
REMARK  status: ('A' for Active; 'I' for Inactive)
REMARK    1  A    between atoms: C_4  and  S_5 
REMARK    2  A    between atoms: C_6  and  S_5 
REMARK    3  A    between atoms: C_9  and  C_11 
REMARK       I    between atoms: C_11  and  N_13 
REMARK    4  A    between atoms: C_16  and  C_24 
REMARK    5  A    between atoms: C_20  and  C_21 
REMARK    6  A    between atoms: C_21  and  O_23 
REMARK    7  A    between atoms: C_24  and  O_25 
ROOT
HETATM    1  C   UNK N   1      34.784  12.459  12.832  0.00  0.00     0.095 A 
HETATM    2  C   UNK N   1      35.393  11.932  11.503  0.00  0.00     0.043 A 
HETATM    3  C   UNK N   1      36.586  11.012  11.708  0.00  0.00     0.017 C 
HETATM    4  C   UNK N   1      35.780  13.186  10.743  0.00  0.00     0.013 A 
HETATM    5  C   UNK N   1      35.581  14.260  11.502  0.00  0.00     0.105 A 
HETATM    6  N   UNK N   1      35.050  13.857  12.738  0.00  0.00    -0.206 NA
HETATM    7  C   UNK N   1      35.719  13.934  13.866  0.00  0.00     0.213 A 
HETATM    8  O   UNK N   1      36.676  14.671  14.052  0.00  0.00    -0.279 OA
HETATM    9  C   UNK N   1      35.627  12.481  14.204  0.00  0.00     0.120 A 
ENDROOT
BRANCH   4  10
HETATM   10  S   UNK N   1      36.428  13.137   9.050  0.00  0.00    -0.125 SA
BRANCH  10  11
HETATM   11  C   UNK N   1      34.739  13.192   8.368  0.00  0.00     0.072 C 
HETATM   12  C   UNK N   1      33.650  12.519   9.176  0.00  0.00     0.130 C 
HETATM   13  N   UNK N   1      32.394  13.176   8.782  0.00  0.00    -0.408 N 
HETATM   14  C   UNK N   1      32.808  14.232   7.857  0.00  0.00     0.170 C 
HETATM   15  H   UNK N   1      31.448  12.947   9.086  0.00  0.00     0.154 HD
HETATM   16  C   UNK N   1      34.208  14.579   8.239  0.00  0.00     0.051 C 
BRANCH  14  17
HETATM   17  C   UNK N   1      31.931  15.465   7.702  0.00  0.00     0.241 C 
HETATM   18  O   UNK N   1      32.065  16.345   8.544  0.00  0.00    -0.271 OA
HETATM   19  N   UNK N   1      31.038  15.656   6.682  0.00  0.00    -0.359 N 
HETATM   20  C   UNK N   1      30.274  16.877   6.618  0.00  0.00     0.152 C 
HETATM   21  C   UNK N   1      30.843  14.695   5.629  0.00  0.00     0.152 C 
ENDBRANCH  14  17
ENDBRANCH  10  11
ENDBRANCH   4  10
BRANCH   5  22
HETATM   22  C   UNK N   1      35.877  15.672  11.163  0.00  0.00     0.189 C 
HETATM   23  O   UNK N   1      34.991  16.512  11.148  0.00  0.00    -0.645 OA
BRANCH  22  24
HETATM   24  O   UNK N   1      37.139  16.039  10.866  0.00  0.00    -0.772 OA
HETATM   25  H   UNK N   1      37.647  15.685  10.162  0.00  0.00     0.167 HD
ENDBRANCH  22  24
ENDBRANCH   5  22
BRANCH   9  26
HETATM   26  C   UNK N   1      34.764  12.160  15.417  0.00  0.00     0.128 C 
HETATM   27  C   UNK N   1      35.561  12.346  16.693  0.00  0.00     0.040 C 
BRANCH  26  28
HETATM   28  O   UNK N   1      34.336  10.834  15.337  0.00  0.00    -0.395 OA
HETATM   29  H   UNK N   1      33.460  10.586  15.672  0.00  0.00     0.210 HD
ENDBRANCH  26  28
ENDBRANCH   9  26
TORSDOF 7
ENDMDL
MODEL 6
REMARK VINA RESULT:      -6.0      3.404      7.970
REMARK  7 active torsions:
REMARK  status: ('A' for Active; 'I' for Inactive)
REMARK    1  A    between atoms: C_4  and  S_5 
REMARK    2  A    between atoms: C_6  and  S_5 
REMARK    3  A    between atoms: C_9  and  C_11 
REMARK       I    between atoms: C_11  and  N_13 
REMARK    4  A    between atoms: C_16  and  C_24 
REMARK    5  A    between atoms: C_20  and  C_21 
REMARK    6  A    between atoms: C_21  and  O_23 
REMARK    7  A    between atoms: C_24  and  O_25 
ROOT
HETATM    1  C   UNK N   1      34.500  15.392   5.566  0.00  0.00     0.095 A 
HETATM    2  C   UNK N   1      34.507  14.217   6.583  0.00  0.00     0.043 A 
HETATM    3  C   UNK N   1      33.324  13.276   6.426  0.00  0.00     0.017 C 
HETATM    4  C   UNK N   1      34.505  14.894   7.941  0.00  0.00     0.013 A 
HETATM    5  C   UNK N   1      34.382  16.210   7.795  0.00  0.00     0.105 A 
HETATM    6  N   UNK N   1      34.326  16.517   6.426  0.00  0.00    -0.206 NA
HETATM    7  C   UNK N   1      33.241  16.962   5.834  0.00  0.00     0.213 A 
HETATM    8  O   UNK N   1      32.311  17.503   6.412  0.00  0.00    -0.279 OA
HETATM    9  C   UNK N   1      33.152  15.865   4.822  0.00  0.00     0.120 A 
ENDROOT
BRANCH   4  10
HETATM   10  S   UNK N   1      34.642  13.964   9.491  0.00  0.00    -0.125 SA
BRANCH  10  11
HETATM   11  C   UNK N   1      36.447  14.213   9.520  0.00  0.00     0.072 C 
HETATM   12  C   UNK N   1      37.138  14.068  10.858  0.00  0.00     0.130 C 
HETATM   13  N   UNK N   1      38.535  13.721  10.552  0.00  0.00    -0.408 N 
HETATM   14  C   UNK N   1      38.570  13.594   9.094  0.00  0.00     0.170 C 
HETATM   15  H   UNK N   1      39.305  13.596  11.208  0.00  0.00     0.154 HD
HETATM   16  C   UNK N   1      37.184  13.220   8.687  0.00  0.00     0.051 C 
BRANCH  14  17
HETATM   17  C   UNK N   1      39.620  12.699   8.454  0.00  0.00     0.241 C 
HETATM   18  O   UNK N   1      39.751  11.578   8.930  0.00  0.00    -0.271 OA
HETATM   19  N   UNK N   1      40.391  13.057   7.381  0.00  0.00    -0.359 N 
HETATM   20  C   UNK N   1      41.341  12.118   6.836  0.00  0.00     0.152 C 
HETATM   21  C   UNK N   1      40.277  14.337   6.733  0.00  0.00     0.152 C 
ENDBRANCH  14  17
ENDBRANCH  10  11
ENDBRANCH   4  10
BRANCH   5  22
HETATM   22  C   UNK N   1      34.285  17.231   8.865  0.00  0.00     0.189 C 
HETATM   23  O   UNK N   1      35.288  17.662   9.411  0.00  0.00    -0.645 OA
BRANCH  22  24
HETATM   24  O   UNK N   1      33.077  17.692   9.243  0.00  0.00    -0.772 OA
HETATM   25  H   UNK N   1      32.635  17.448  10.032  0.00  0.00     0.167 HD
ENDBRANCH  22  24
ENDBRANCH   5  22
BRANCH   9  26
HETATM   26  C   UNK N   1      33.408  16.298   3.385  0.00  0.00     0.128 C 
HETATM   27  C   UNK N   1      32.221  17.072   2.849  0.00  0.00     0.040 C 
BRANCH  26  28
HETATM   28  O   UNK N   1      33.608  15.166   2.593  0.00  0.00    -0.395 OA
HETATM   29  H   UNK N   1      33.880  14.329   3.002  0.00  0.00     0.210 HD
ENDBRANCH  26  28
ENDBRANCH   9  26
TORSDOF 7
ENDMDL
MODEL 7
REMARK VINA RESULT:      -6.0      2.588      4.034
REMARK  7 active torsions:
REMARK  status: ('A' for Active; 'I' for Inactive)
REMARK    1  A    between atoms: C_4  and  S_5 
REMARK    2  A    between atoms: C_6  and  S_5 
REMARK    3  A    between atoms: C_9  and  C_11 
REMARK       I    between atoms: C_11  and  N_13 
REMARK    4  A    between atoms: C_16  and  C_24 
REMARK    5  A    between atoms: C_20  and  C_21 
REMARK    6  A    between atoms: C_21  and  O_23 
REMARK    7  A    between atoms: C_24  and  O_25 
ROOT
HETATM    1  C   UNK N   1      34.687  12.523  12.734  0.00  0.00     0.095 A 
HETATM    2  C   UNK N   1      35.261  11.988  11.392  0.00  0.00     0.043 A 
HETATM    3  C   UNK N   1      36.419  11.020  11.574  0.00  0.00     0.017 C 
HETATM    4  C   UNK N   1      35.689  13.235  10.642  0.00  0.00     0.013 A 
HETATM    5  C   UNK N   1      35.540  14.306  11.415  0.00  0.00     0.105 A 
HETATM    6  N   UNK N   1      35.006  13.911  12.652  0.00  0.00    -0.206 NA
HETATM    7  C   UNK N   1      35.689  13.948  13.774  0.00  0.00     0.213 A 
HETATM    8  O   UNK N   1      36.675  14.646  13.958  0.00  0.00    -0.279 OA
HETATM    9  C   UNK N   1      35.544  12.496  14.097  0.00  0.00     0.120 A 
ENDROOT
BRANCH   4  10
HETATM   10  S   UNK N   1      36.318  13.180   8.943  0.00  0.00    -0.125 SA
BRANCH  10  11
HETATM   11  C   UNK N   1      34.963  14.257   8.373  0.00  0.00     0.072 C 
HETATM   12  C   UNK N   1      35.314  15.323   7.357  0.00  0.00     0.130 C 
HETATM   13  N   UNK N   1      34.064  15.625   6.643  0.00  0.00    -0.408 N 
HETATM   14  C   UNK N   1      33.090  14.683   7.197  0.00  0.00     0.170 C 
HETATM   15  H   UNK N   1      33.911  16.330   5.923  0.00  0.00     0.154 HD
HETATM   16  C   UNK N   1      33.883  13.510   7.667  0.00  0.00     0.051 C 
BRANCH  14  17
HETATM   17  C   UNK N   1      31.896  14.269   6.350  0.00  0.00     0.241 C 
HETATM   18  O   UNK N   1      31.916  13.134   5.889  0.00  0.00    -0.271 OA
HETATM   19  N   UNK N   1      30.812  15.066   6.100  0.00  0.00    -0.359 N 
HETATM   20  C   UNK N   1      29.721  14.562   5.302  0.00  0.00     0.152 C 
HETATM   21  C   UNK N   1      30.685  16.397   6.632  0.00  0.00     0.152 C 
ENDBRANCH  14  17
ENDBRANCH  10  11
ENDBRANCH   4  10
BRANCH   5  22
HETATM   22  C   UNK N   1      35.888  15.710  11.089  0.00  0.00     0.189 C 
HETATM   23  O   UNK N   1      35.017  16.556  10.954  0.00  0.00    -0.645 OA
BRANCH  22  24
HETATM   24  O   UNK N   1      37.179  16.062  10.937  0.00  0.00    -0.772 OA
HETATM   25  H   UNK N   1      37.794  15.615  10.390  0.00  0.00     0.167 HD
ENDBRANCH  22  24
ENDBRANCH   5  22
BRANCH   9  26
HETATM   26  C   UNK N   1      34.681  12.195  15.315  0.00  0.00     0.128 C 
HETATM   27  C   UNK N   1      35.388  12.635  16.581  0.00  0.00     0.040 C 
BRANCH  26  28
HETATM   28  O   UNK N   1      34.443  10.821  15.380  0.00  0.00    -0.395 OA
HETATM   29  H   UNK N   1      33.921  10.385  14.689  0.00  0.00     0.210 HD
ENDBRANCH  26  28
ENDBRANCH   9  26
TORSDOF 7
ENDMDL
MODEL 8
REMARK VINA RESULT:      -6.0      3.244      7.666
REMARK  7 active torsions:
REMARK  status: ('A' for Active; 'I' for Inactive)
REMARK    1  A    between atoms: C_4  and  S_5 
REMARK    2  A    between atoms: C_6  and  S_5 
REMARK    3  A    between atoms: C_9  and  C_11 
REMARK       I    between atoms: C_11  and  N_13 
REMARK    4  A    between atoms: C_16  and  C_24 
REMARK    5  A    between atoms: C_20  and  C_21 
REMARK    6  A    between atoms: C_21  and  O_23 
REMARK    7  A    between atoms: C_24  and  O_25 
ROOT
HETATM    1  C   UNK N   1      34.914  15.075   6.177  0.00  0.00     0.095 A 
HETATM    2  C   UNK N   1      34.654  14.501   7.598  0.00  0.00     0.043 A 
HETATM    3  C   UNK N   1      33.457  13.567   7.662  0.00  0.00     0.017 C 
HETATM    4  C   UNK N   1      34.451  15.728   8.468  0.00  0.00     0.013 A 
HETATM    5  C   UNK N   1      34.448  16.825   7.716  0.00  0.00     0.105 A 
HETATM    6  N   UNK N   1      34.665  16.466   6.377  0.00  0.00    -0.206 NA
HETATM    7  C   UNK N   1      33.740  16.561   5.449  0.00  0.00     0.213 A 
HETATM    8  O   UNK N   1      32.760  17.287   5.524  0.00  0.00    -0.279 OA
HETATM    9  C   UNK N   1      33.762  15.120   5.054  0.00  0.00     0.120 A 
ENDROOT
BRANCH   4  10
HETATM   10  S   UNK N   1      34.237  15.621  10.265  0.00  0.00    -0.125 SA
BRANCH  10  11
HETATM   11  C   UNK N   1      35.554  14.368  10.380  0.00  0.00     0.072 C 
HETATM   12  C   UNK N   1      36.971  14.874  10.540  0.00  0.00     0.130 C 
HETATM   13  N   UNK N   1      37.717  13.782  11.185  0.00  0.00    -0.408 N 
HETATM   14  C   UNK N   1      36.708  12.754  11.447  0.00  0.00     0.170 C 
HETATM   15  H   UNK N   1      38.713  13.750  11.402  0.00  0.00     0.154 HD
HETATM   16  C   UNK N   1      35.412  13.483  11.571  0.00  0.00     0.051 C 
BRANCH  14  17
HETATM   17  C   UNK N   1      36.930  11.773  12.588  0.00  0.00     0.241 C 
HETATM   18  O   UNK N   1      37.215  12.253  13.678  0.00  0.00    -0.271 OA
HETATM   19  N   UNK N   1      36.805  10.415  12.474  0.00  0.00    -0.359 N 
HETATM   20  C   UNK N   1      37.014   9.577  13.630  0.00  0.00     0.152 C 
HETATM   21  C   UNK N   1      36.436   9.767  11.243  0.00  0.00     0.152 C 
ENDBRANCH  14  17
ENDBRANCH  10  11
ENDBRANCH   4  10
BRANCH   5  22
HETATM   22  C   UNK N   1      34.229  18.222   8.161  0.00  0.00     0.189 C 
HETATM   23  O   UNK N   1      33.100  18.661   8.314  0.00  0.00    -0.645 OA
BRANCH  22  24
HETATM   24  O   UNK N   1      35.286  19.023   8.398  0.00  0.00    -0.772 OA
HETATM   25  H   UNK N   1      35.260  19.959   8.389  0.00  0.00     0.167 HD
ENDBRANCH  22  24
ENDBRANCH   5  22
BRANCH   9  26
HETATM   26  C   UNK N   1      34.306  14.848   3.658  0.00  0.00     0.128 C 
HETATM   27  C   UNK N   1      33.170  14.548   2.700  0.00  0.00     0.040 C 
BRANCH  26  28
HETATM   28  O   UNK N   1      35.163  13.747   3.706  0.00  0.00    -0.395 OA
HETATM   29  H   UNK N   1      35.486  13.346   2.884  0.00  0.00     0.210 HD
ENDBRANCH  26  28
ENDBRANCH   9  26
TORSDOF 7
ENDMDL
MODEL 9
REMARK VINA RESULT:      -6.0      3.359      5.681
REMARK  7 active torsions:
REMARK  status: ('A' for Active; 'I' for Inactive)
REMARK    1  A    between atoms: C_4  and  S_5 
REMARK    2  A    between atoms: C_6  and  S_5 
REMARK    3  A    between atoms: C_9  and  C_11 
REMARK       I    between atoms: C_11  and  N_13 
REMARK    4  A    between atoms: C_16  and  C_24 
REMARK    5  A    between atoms: C_20  and  C_21 
REMARK    6  A    between atoms: C_21  and  O_23 
REMARK    7  A    between atoms: C_24  and  O_25 
ROOT
HETATM    1  C   UNK N   1      34.316  10.949  10.425  0.00  0.00     0.095 A 
HETATM    2  C   UNK N   1      35.165  11.928   9.567  0.00  0.00     0.043 A 
HETATM    3  C   UNK N   1      36.224  11.232   8.728  0.00  0.00     0.017 C 
HETATM    4  C   UNK N   1      35.786  12.874  10.578  0.00  0.00     0.013 A 
HETATM    5  C   UNK N   1      35.494  12.477  11.813  0.00  0.00     0.105 A 
HETATM    6  N   UNK N   1      34.683  11.333  11.749  0.00  0.00    -0.206 NA
HETATM    7  C   UNK N   1      35.095  10.140  12.116  0.00  0.00     0.213 A 
HETATM    8  O   UNK N   1      36.032   9.935  12.873  0.00  0.00    -0.279 OA
HETATM    9  C   UNK N   1      34.841   9.474  10.802  0.00  0.00     0.120 A 
ENDROOT
BRANCH   4  10
HETATM   10  S   UNK N   1      36.781  14.307  10.086  0.00  0.00    -0.125 SA
BRANCH  10  11
HETATM   11  C   UNK N   1      35.277  15.271   9.731  0.00  0.00     0.072 C 
HETATM   12  C   UNK N   1      35.174  16.641  10.366  0.00  0.00     0.130 C 
HETATM   13  N   UNK N   1      34.258  17.412   9.512  0.00  0.00    -0.408 N 
HETATM   14  C   UNK N   1      33.949  16.511   8.400  0.00  0.00     0.170 C 
HETATM   15  H   UNK N   1      33.915  18.361   9.660  0.00  0.00     0.154 HD
HETATM   16  C   UNK N   1      35.121  15.595   8.284  0.00  0.00     0.051 C 
BRANCH  14  17
HETATM   17  C   UNK N   1      33.546  17.103   7.058  0.00  0.00     0.241 C 
HETATM   18  O   UNK N   1      34.316  17.915   6.561  0.00  0.00    -0.271 OA
HETATM   19  N   UNK N   1      32.408  16.767   6.376  0.00  0.00    -0.359 N 
HETATM   20  C   UNK N   1      32.135  17.373   5.095  0.00  0.00     0.152 C 
HETATM   21  C   UNK N   1      31.466  15.795   6.864  0.00  0.00     0.152 C 
ENDBRANCH  14  17
ENDBRANCH  10  11
ENDBRANCH   4  10
BRANCH   5  22
HETATM   22  C   UNK N   1      35.945  13.087  13.087  0.00  0.00     0.189 C 
HETATM   23  O   UNK N   1      35.202  13.810  13.732  0.00  0.00    -0.645 OA
BRANCH  22  24
HETATM   24  O   UNK N   1      37.190  12.845  13.541  0.00  0.00    -0.772 OA
HETATM   25  H   UNK N   1      37.958  13.309  13.271  0.00  0.00     0.167 HD
ENDBRANCH  22  24
ENDBRANCH   5  22
BRANCH   9  26
HETATM   26  C   UNK N   1      33.716   8.447  10.812  0.00  0.00     0.128 C 
HETATM   27  C   UNK N   1      34.219   7.122  11.349  0.00  0.00     0.040 C 
BRANCH  26  28
HETATM   28  O   UNK N   1      33.251   8.263   9.509  0.00  0.00    -0.395 OA
HETATM   29  H   UNK N   1      32.734   7.473   9.285  0.00  0.00     0.210 HD
ENDBRANCH  26  28
ENDBRANCH   9  26
TORSDOF 7
ENDMDL
