MODEL 1
REMARK VINA RESULT:      -7.2      0.000      0.000
REMARK  7 active torsions:
REMARK  status: ('A' for Active; 'I' for Inactive)
REMARK    1  A    between atoms: O_2  and  C_16 
REMARK    2  A    between atoms: O_2  and  C_17 
REMARK    3  A    between atoms: N_5  and  C_13 
REMARK    4  A    between atoms: N_5  and  C_21 
REMARK    5  A    between atoms: C_9  and  C_10 
REMARK    6  A    between atoms: C_10  and  C_11 
REMARK    7  A    between atoms: C_13  and  C_16 
ROOT
HETATM    1  C   UNK N   1      35.131  12.514  17.341  0.00  0.00    -0.056 A 
HETATM    2  C   UNK N   1      35.199  13.200  18.559  0.00  0.00     0.010 A 
HETATM    3  C   UNK N   1      35.274  11.123  17.317  0.00  0.00     0.010 A 
HETATM    4  C   UNK N   1      35.490  11.116  19.741  0.00  0.00     0.068 A 
HETATM    5  C   UNK N   1      35.357  12.503  19.751  0.00  0.00     0.037 A 
HETATM    6  C   UNK N   1      35.463  10.425  18.514  0.00  0.00     0.037 A 
ENDROOT
BRANCH   4   7
HETATM    7  O   UNK N   1      35.652  10.482  20.925  0.00  0.00    -0.350 OA
BRANCH   7   8
HETATM    8  C   UNK N   1      34.687   9.710  21.531  0.00  0.00     0.195 C 
BRANCH   8   9
HETATM    9  C   UNK N   1      33.422  10.472  21.898  0.00  0.00     0.150 C 
BRANCH   9  10
HETATM   10  N   UNK N   1      32.519   9.562  22.561  0.00  0.00    -0.370 N 
HETATM   11  C   UNK N   1      32.161   9.827  23.931  0.00  0.00     0.151 C 
BRANCH  10  12
HETATM   12  C   UNK N   1      31.932   8.462  21.864  0.00  0.00     0.102 A 
HETATM   13  N   UNK N   1      31.963   7.211  22.409  0.00  0.00    -0.352 N 
HETATM   14  C   UNK N   1      31.402   6.143  21.781  0.00  0.00     0.089 A 
ATOM     15  HN  UNK N   1      32.418   7.074  23.311  1.00  0.00     0.166 HD
HETATM   16  C   UNK N   1      30.774   6.305  20.545  0.00  0.00     0.017 A 
HETATM   17  C   UNK N   1      30.729   7.570  19.963  0.00  0.00     0.005 A 
HETATM   18  C   UNK N   1      31.308   8.653  20.620  0.00  0.00     0.048 A 
ENDBRANCH  10  12
ENDBRANCH   9  10
ENDBRANCH   8   9
ENDBRANCH   7   8
ENDBRANCH   4   7
BRANCH   1  19
HETATM   19  C   UNK N   1      34.898  13.281  16.083  0.00  0.00     0.063 C 
BRANCH  19  20
HETATM   20  C   UNK N   1      35.964  13.052  14.992  0.00  0.00     0.153 C 
HETATM   21  S   UNK N   1      35.278  12.811  13.286  0.00  0.00    -0.054 SA
HETATM   22  C   UNK N   1      35.945  14.399  12.842  0.00  0.00     0.287 C 
HETATM   23  O   UNK N   1      35.723  14.925  11.764  0.00  0.00    -0.260 OA
HETATM   24  N   UNK N   1      36.724  14.983  13.758  0.00  0.00    -0.287 N 
HETATM   25  C   UNK N   1      36.799  14.292  14.904  0.00  0.00     0.239 C 
HETATM   26  H   UNK N   1      37.194  15.835  13.607  0.00  0.00     0.172 HD
HETATM   27  O   UNK N   1      37.481  14.689  15.837  0.00  0.00    -0.272 OA
ENDBRANCH  19  20
ENDBRANCH   1  19
TORSDOF 7
ENDMDL
MODEL 2
REMARK VINA RESULT:      -7.2     28.422     30.286
REMARK  7 active torsions:
REMARK  status: ('A' for Active; 'I' for Inactive)
REMARK    1  A    between atoms: O_2  and  C_16 
REMARK    2  A    between atoms: O_2  and  C_17 
REMARK    3  A    between atoms: N_5  and  C_13 
REMARK    4  A    between atoms: N_5  and  C_21 
REMARK    5  A    between atoms: C_9  and  C_10 
REMARK    6  A    between atoms: C_10  and  C_11 
REMARK    7  A    between atoms: C_13  and  C_16 
ROOT
HETATM    1  C   UNK N   1      25.788  25.014  -5.132  0.00  0.00    -0.056 A 
HETATM    2  C   UNK N   1      25.184  26.126  -5.729  0.00  0.00     0.010 A 
HETATM    3  C   UNK N   1      26.440  25.153  -3.903  0.00  0.00     0.010 A 
HETATM    4  C   UNK N   1      25.821  27.506  -3.855  0.00  0.00     0.068 A 
HETATM    5  C   UNK N   1      25.183  27.357  -5.085  0.00  0.00     0.037 A 
HETATM    6  C   UNK N   1      26.466  26.399  -3.269  0.00  0.00     0.037 A 
ENDROOT
BRANCH   4   7
HETATM    7  O   UNK N   1      25.804  28.726  -3.270  0.00  0.00    -0.350 OA
BRANCH   7   8
HETATM    8  C   UNK N   1      26.476  29.827  -3.752  0.00  0.00     0.195 C 
BRANCH   8   9
HETATM    9  C   UNK N   1      27.954  29.859  -3.393  0.00  0.00     0.150 C 
BRANCH   9  10
HETATM   10  N   UNK N   1      28.719  29.876  -4.618  0.00  0.00    -0.370 N 
HETATM   11  C   UNK N   1      29.603  30.988  -4.857  0.00  0.00     0.151 C 
BRANCH  10  12
HETATM   12  C   UNK N   1      28.661  28.790  -5.543  0.00  0.00     0.102 A 
HETATM   13  N   UNK N   1      29.203  27.582  -5.216  0.00  0.00    -0.352 N 
HETATM   14  C   UNK N   1      29.154  26.522  -6.067  0.00  0.00     0.089 A 
ATOM     15  HN  UNK N   1      29.657  27.471  -4.310  1.00  0.00     0.166 HD
HETATM   16  C   UNK N   1      28.538  26.649  -7.314  0.00  0.00     0.017 A 
HETATM   17  C   UNK N   1      27.978  27.872  -7.676  0.00  0.00     0.005 A 
HETATM   18  C   UNK N   1      28.037  28.947  -6.792  0.00  0.00     0.048 A 
ENDBRANCH  10  12
ENDBRANCH   9  10
ENDBRANCH   8   9
ENDBRANCH   7   8
ENDBRANCH   4   7
BRANCH   1  19
HETATM   19  C   UNK N   1      25.719  23.689  -5.815  0.00  0.00     0.063 C 
BRANCH  19  20
HETATM   20  C   UNK N   1      26.457  23.633  -7.168  0.00  0.00     0.153 C 
HETATM   21  S   UNK N   1      28.089  22.752  -7.117  0.00  0.00    -0.054 SA
HETATM   22  C   UNK N   1      27.361  21.442  -8.074  0.00  0.00     0.287 C 
HETATM   23  O   UNK N   1      27.950  20.401  -8.315  0.00  0.00    -0.260 OA
HETATM   24  N   UNK N   1      26.126  21.670  -8.534  0.00  0.00    -0.287 N 
HETATM   25  C   UNK N   1      25.614  22.835  -8.114  0.00  0.00     0.239 C 
HETATM   26  H   UNK N   1      25.643  21.045  -9.121  0.00  0.00     0.172 HD
HETATM   27  O   UNK N   1      24.498  23.194  -8.458  0.00  0.00    -0.272 OA
ENDBRANCH  19  20
ENDBRANCH   1  19
TORSDOF 7
ENDMDL
MODEL 3
REMARK VINA RESULT:      -7.1      1.491      2.229
REMARK  7 active torsions:
REMARK  status: ('A' for Active; 'I' for Inactive)
REMARK    1  A    between atoms: O_2  and  C_16 
REMARK    2  A    between atoms: O_2  and  C_17 
REMARK    3  A    between atoms: N_5  and  C_13 
REMARK    4  A    between atoms: N_5  and  C_21 
REMARK    5  A    between atoms: C_9  and  C_10 
REMARK    6  A    between atoms: C_10  and  C_11 
REMARK    7  A    between atoms: C_13  and  C_16 
ROOT
HETATM    1  C   UNK N   1      35.092  12.517  17.243  0.00  0.00    -0.056 A 
HETATM    2  C   UNK N   1      35.290  11.132  17.214  0.00  0.00     0.010 A 
HETATM    3  C   UNK N   1      35.140  13.201  18.461  0.00  0.00     0.010 A 
HETATM    4  C   UNK N   1      35.645  11.111  19.601  0.00  0.00     0.068 A 
HETATM    5  C   UNK N   1      35.584  10.438  18.382  0.00  0.00     0.037 A 
HETATM    6  C   UNK N   1      35.406  12.498  19.641  0.00  0.00     0.037 A 
ENDROOT
BRANCH   4   7
HETATM    7  O   UNK N   1      35.924  10.393  20.713  0.00  0.00    -0.350 OA
BRANCH   7   8
HETATM    8  C   UNK N   1      36.484   9.135  20.704  0.00  0.00     0.195 C 
BRANCH   8   9
HETATM    9  C   UNK N   1      35.583   8.050  21.273  0.00  0.00     0.150 C 
BRANCH   9  10
HETATM   10  N   UNK N   1      34.848   7.452  20.183  0.00  0.00    -0.370 N 
HETATM   11  C   UNK N   1      35.577   6.691  19.201  0.00  0.00     0.151 C 
BRANCH  10  12
HETATM   12  C   UNK N   1      33.425   7.548  20.108  0.00  0.00     0.102 A 
HETATM   13  N   UNK N   1      32.687   6.473  19.707  0.00  0.00    -0.352 N 
HETATM   14  C   UNK N   1      31.329   6.523  19.637  0.00  0.00     0.089 A 
ATOM     15  HN  UNK N   1      33.165   5.609  19.453  1.00  0.00     0.166 HD
HETATM   16  C   UNK N   1      30.651   7.695  19.979  0.00  0.00     0.017 A 
HETATM   17  C   UNK N   1      31.379   8.809  20.391  0.00  0.00     0.005 A 
HETATM   18  C   UNK N   1      32.769   8.740  20.457  0.00  0.00     0.048 A 
ENDBRANCH  10  12
ENDBRANCH   9  10
ENDBRANCH   8   9
ENDBRANCH   7   8
ENDBRANCH   4   7
BRANCH   1  19
HETATM   19  C   UNK N   1      34.840  13.246  15.966  0.00  0.00     0.063 C 
BRANCH  19  20
HETATM   20  C   UNK N   1      35.918  13.027  14.885  0.00  0.00     0.153 C 
HETATM   21  S   UNK N   1      35.251  12.819  13.166  0.00  0.00    -0.054 SA
HETATM   22  C   UNK N   1      35.935  14.409  12.757  0.00  0.00     0.287 C 
HETATM   23  O   UNK N   1      35.731  14.954  11.685  0.00  0.00    -0.260 OA
HETATM   24  N   UNK N   1      36.707  14.972  13.692  0.00  0.00    -0.287 N 
HETATM   25  C   UNK N   1      36.763  14.262  14.828  0.00  0.00     0.239 C 
HETATM   26  H   UNK N   1      37.186  15.822  13.561  0.00  0.00     0.172 HD
HETATM   27  O   UNK N   1      37.437  14.638  15.775  0.00  0.00    -0.272 OA
ENDBRANCH  19  20
ENDBRANCH   1  19
TORSDOF 7
ENDMDL
MODEL 4
REMARK VINA RESULT:      -6.9     27.846     30.068
REMARK  7 active torsions:
REMARK  status: ('A' for Active; 'I' for Inactive)
REMARK    1  A    between atoms: O_2  and  C_16 
REMARK    2  A    between atoms: O_2  and  C_17 
REMARK    3  A    between atoms: N_5  and  C_13 
REMARK    4  A    between atoms: N_5  and  C_21 
REMARK    5  A    between atoms: C_9  and  C_10 
REMARK    6  A    between atoms: C_10  and  C_11 
REMARK    7  A    between atoms: C_13  and  C_16 
ROOT
HETATM    1  C   UNK N   1      27.208  28.031  -6.392  0.00  0.00    -0.056 A 
HETATM    2  C   UNK N   1      28.057  27.827  -7.485  0.00  0.00     0.010 A 
HETATM    3  C   UNK N   1      25.977  27.370  -6.334  0.00  0.00     0.010 A 
HETATM    4  C   UNK N   1      26.489  26.259  -8.438  0.00  0.00     0.068 A 
HETATM    5  C   UNK N   1      27.708  26.932  -8.490  0.00  0.00     0.037 A 
HETATM    6  C   UNK N   1      25.613  26.492  -7.360  0.00  0.00     0.037 A 
ENDROOT
BRANCH   4   7
HETATM    7  O   UNK N   1      26.188  25.406  -9.444  0.00  0.00    -0.350 OA
BRANCH   7   8
HETATM    8  C   UNK N   1      25.398  24.287  -9.302  0.00  0.00     0.195 C 
BRANCH   8   9
HETATM    9  C   UNK N   1      26.168  23.026  -8.939  0.00  0.00     0.150 C 
BRANCH   9  10
HETATM   10  N   UNK N   1      25.791  22.633  -7.602  0.00  0.00    -0.370 N 
HETATM   11  C   UNK N   1      24.893  21.517  -7.444  0.00  0.00     0.151 C 
BRANCH  10  12
HETATM   12  C   UNK N   1      26.342  23.280  -6.455  0.00  0.00     0.102 A 
HETATM   13  N   UNK N   1      25.530  23.659  -5.426  0.00  0.00    -0.352 N 
HETATM   14  C   UNK N   1      26.023  24.265  -4.312  0.00  0.00     0.089 A 
ATOM     15  HN  UNK N   1      24.528  23.482  -5.493  1.00  0.00     0.166 HD
HETATM   16  C   UNK N   1      27.391  24.518  -4.197  0.00  0.00     0.017 A 
HETATM   17  C   UNK N   1      28.244  24.145  -5.232  0.00  0.00     0.005 A 
HETATM   18  C   UNK N   1      27.723  23.524  -6.366  0.00  0.00     0.048 A 
ENDBRANCH  10  12
ENDBRANCH   9  10
ENDBRANCH   8   9
ENDBRANCH   7   8
ENDBRANCH   4   7
BRANCH   1  19
HETATM   19  C   UNK N   1      27.635  28.949  -5.296  0.00  0.00     0.063 C 
BRANCH  19  20
HETATM   20  C   UNK N   1      28.097  28.233  -4.010  0.00  0.00     0.153 C 
HETATM   21  S   UNK N   1      29.754  28.778  -3.380  0.00  0.00    -0.054 SA
HETATM   22  C   UNK N   1      28.928  29.550  -2.007  0.00  0.00     0.287 C 
HETATM   23  O   UNK N   1      29.517  30.244  -1.195  0.00  0.00    -0.260 OA
HETATM   24  N   UNK N   1      27.616  29.311  -1.904  0.00  0.00    -0.287 N 
HETATM   25  C   UNK N   1      27.131  28.585  -2.921  0.00  0.00     0.239 C 
HETATM   26  H   UNK N   1      27.064  29.636  -1.157  0.00  0.00     0.172 HD
HETATM   27  O   UNK N   1      25.951  28.273  -2.966  0.00  0.00    -0.272 OA
ENDBRANCH  19  20
ENDBRANCH   1  19
TORSDOF 7
ENDMDL
MODEL 5
REMARK VINA RESULT:      -6.7     11.137     15.093
REMARK  7 active torsions:
REMARK  status: ('A' for Active; 'I' for Inactive)
REMARK    1  A    between atoms: O_2  and  C_16 
REMARK    2  A    between atoms: O_2  and  C_17 
REMARK    3  A    between atoms: N_5  and  C_13 
REMARK    4  A    between atoms: N_5  and  C_21 
REMARK    5  A    between atoms: C_9  and  C_10 
REMARK    6  A    between atoms: C_10  and  C_11 
REMARK    7  A    between atoms: C_13  and  C_16 
ROOT
HETATM    1  C   UNK N   1      33.234  16.396   5.625  0.00  0.00    -0.056 A 
HETATM    2  C   UNK N   1      32.507  15.207   5.495  0.00  0.00     0.010 A 
HETATM    3  C   UNK N   1      32.914  17.497   4.826  0.00  0.00     0.010 A 
HETATM    4  C   UNK N   1      31.100  16.224   3.819  0.00  0.00     0.068 A 
HETATM    5  C   UNK N   1      31.436  15.129   4.613  0.00  0.00     0.037 A 
HETATM    6  C   UNK N   1      31.855  17.409   3.916  0.00  0.00     0.037 A 
ENDROOT
BRANCH   4   7
HETATM    7  O   UNK N   1      30.057  16.099   2.968  0.00  0.00    -0.350 OA
BRANCH   7   8
HETATM    8  C   UNK N   1      28.821  16.673   3.165  0.00  0.00     0.195 C 
BRANCH   8   9
HETATM    9  C   UNK N   1      27.920  15.897   4.114  0.00  0.00     0.150 C 
BRANCH   9  10
HETATM   10  N   UNK N   1      27.247  16.840   4.975  0.00  0.00    -0.370 N 
HETATM   11  C   UNK N   1      25.862  17.139   4.712  0.00  0.00     0.151 C 
BRANCH  10  12
HETATM   12  C   UNK N   1      27.906  17.415   6.103  0.00  0.00     0.102 A 
HETATM   13  N   UNK N   1      27.463  18.594   6.627  0.00  0.00    -0.352 N 
HETATM   14  C   UNK N   1      28.057  19.164   7.710  0.00  0.00     0.089 A 
ATOM     15  HN  UNK N   1      26.665  19.061   6.196  1.00  0.00     0.166 HD
HETATM   16  C   UNK N   1      29.152  18.545   8.318  0.00  0.00     0.017 A 
HETATM   17  C   UNK N   1      29.628  17.342   7.803  0.00  0.00     0.005 A 
HETATM   18  C   UNK N   1      29.006  16.772   6.694  0.00  0.00     0.048 A 
ENDBRANCH  10  12
ENDBRANCH   9  10
ENDBRANCH   8   9
ENDBRANCH   7   8
ENDBRANCH   4   7
BRANCH   1  19
HETATM   19  C   UNK N   1      34.339  16.472   6.624  0.00  0.00     0.063 C 
BRANCH  19  20
HETATM   20  C   UNK N   1      33.961  15.963   8.031  0.00  0.00     0.153 C 
HETATM   21  S   UNK N   1      35.286  14.974   8.872  0.00  0.00    -0.054 SA
HETATM   22  C   UNK N   1      35.507  16.322  10.010  0.00  0.00     0.287 C 
HETATM   23  O   UNK N   1      36.402  16.340  10.840  0.00  0.00    -0.260 OA
HETATM   24  N   UNK N   1      34.620  17.319   9.917  0.00  0.00    -0.287 N 
HETATM   25  C   UNK N   1      33.753  17.160   8.907  0.00  0.00     0.239 C 
HETATM   26  H   UNK N   1      34.605  18.090  10.528  0.00  0.00     0.172 HD
HETATM   27  O   UNK N   1      32.872  17.979   8.696  0.00  0.00    -0.272 OA
ENDBRANCH  19  20
ENDBRANCH   1  19
TORSDOF 7
ENDMDL
MODEL 6
REMARK VINA RESULT:      -6.6      6.821     11.584
REMARK  7 active torsions:
REMARK  status: ('A' for Active; 'I' for Inactive)
REMARK    1  A    between atoms: O_2  and  C_16 
REMARK    2  A    between atoms: O_2  and  C_17 
REMARK    3  A    between atoms: N_5  and  C_13 
REMARK    4  A    between atoms: N_5  and  C_21 
REMARK    5  A    between atoms: C_9  and  C_10 
REMARK    6  A    between atoms: C_10  and  C_11 
REMARK    7  A    between atoms: C_13  and  C_16 
ROOT
HETATM    1  C   UNK N   1      33.620  17.021   6.609  0.00  0.00    -0.056 A 
HETATM    2  C   UNK N   1      34.187  15.770   6.877  0.00  0.00     0.010 A 
HETATM    3  C   UNK N   1      33.768  18.063   7.529  0.00  0.00     0.010 A 
HETATM    4  C   UNK N   1      35.105  16.605   8.947  0.00  0.00     0.068 A 
HETATM    5  C   UNK N   1      34.941  15.571   8.027  0.00  0.00     0.037 A 
HETATM    6  C   UNK N   1      34.501  17.854   8.701  0.00  0.00     0.037 A 
ENDROOT
BRANCH   4   7
HETATM    7  O   UNK N   1      35.838  16.362  10.057  0.00  0.00    -0.350 OA
BRANCH   7   8
HETATM    8  C   UNK N   1      35.303  16.064  11.290  0.00  0.00     0.195 C 
BRANCH   8   9
HETATM    9  C   UNK N   1      34.847  14.620  11.438  0.00  0.00     0.150 C 
BRANCH   9  10
HETATM   10  N   UNK N   1      35.892  13.879  12.105  0.00  0.00    -0.370 N 
HETATM   11  C   UNK N   1      36.925  13.277  11.301  0.00  0.00     0.151 C 
BRANCH  10  12
HETATM   12  C   UNK N   1      35.948  13.798  13.529  0.00  0.00     0.102 A 
HETATM   13  N   UNK N   1      36.805  14.597  14.227  0.00  0.00    -0.352 N 
HETATM   14  C   UNK N   1      36.876  14.556  15.585  0.00  0.00     0.089 A 
ATOM     15  HN  UNK N   1      37.409  15.242  13.718  1.00  0.00     0.166 HD
HETATM   16  C   UNK N   1      36.060  13.681  16.306  0.00  0.00     0.017 A 
HETATM   17  C   UNK N   1      35.177  12.852  15.619  0.00  0.00     0.005 A 
HETATM   18  C   UNK N   1      35.117  12.907  14.228  0.00  0.00     0.048 A 
ENDBRANCH  10  12
ENDBRANCH   9  10
ENDBRANCH   8   9
ENDBRANCH   7   8
ENDBRANCH   4   7
BRANCH   1  19
HETATM   19  C   UNK N   1      32.868  17.225   5.336  0.00  0.00     0.063 C 
BRANCH  19  20
HETATM   20  C   UNK N   1      31.515  16.488   5.271  0.00  0.00     0.153 C 
HETATM   21  S   UNK N   1      30.323  16.951   6.615  0.00  0.00    -0.054 SA
HETATM   22  C   UNK N   1      29.325  17.763   5.387  0.00  0.00     0.287 C 
HETATM   23  O   UNK N   1      28.343  18.428   5.676  0.00  0.00    -0.260 OA
HETATM   24  N   UNK N   1      29.703  17.590   4.117  0.00  0.00    -0.287 N 
HETATM   25  C   UNK N   1      30.839  16.888   3.996  0.00  0.00     0.239 C 
HETATM   26  H   UNK N   1      29.199  17.942   3.348  0.00  0.00     0.172 HD
HETATM   27  O   UNK N   1      31.310  16.634   2.899  0.00  0.00    -0.272 OA
ENDBRANCH  19  20
ENDBRANCH   1  19
TORSDOF 7
ENDMDL
MODEL 7
REMARK VINA RESULT:      -6.6      9.826     15.326
REMARK  7 active torsions:
REMARK  status: ('A' for Active; 'I' for Inactive)
REMARK    1  A    between atoms: O_2  and  C_16 
REMARK    2  A    between atoms: O_2  and  C_17 
REMARK    3  A    between atoms: N_5  and  C_13 
REMARK    4  A    between atoms: N_5  and  C_21 
REMARK    5  A    between atoms: C_9  and  C_10 
REMARK    6  A    between atoms: C_10  and  C_11 
REMARK    7  A    between atoms: C_13  and  C_16 
ROOT
HETATM    1  C   UNK N   1      32.826  16.118   7.884  0.00  0.00    -0.056 A 
HETATM    2  C   UNK N   1      32.103  17.198   8.403  0.00  0.00     0.010 A 
HETATM    3  C   UNK N   1      32.250  15.300   6.907  0.00  0.00     0.010 A 
HETATM    4  C   UNK N   1      30.254  16.693   6.937  0.00  0.00     0.068 A 
HETATM    5  C   UNK N   1      30.835  17.494   7.918  0.00  0.00     0.037 A 
HETATM    6  C   UNK N   1      30.962  15.580   6.441  0.00  0.00     0.037 A 
ENDROOT
BRANCH   4   7
HETATM    7  O   UNK N   1      29.014  17.014   6.503  0.00  0.00    -0.350 OA
BRANCH   7   8
HETATM    8  C   UNK N   1      28.663  18.245   5.998  0.00  0.00     0.195 C 
BRANCH   8   9
HETATM    9  C   UNK N   1      27.850  19.101   6.957  0.00  0.00     0.150 C 
BRANCH   9  10
HETATM   10  N   UNK N   1      27.234  20.169   6.204  0.00  0.00    -0.370 N 
HETATM   11  C   UNK N   1      27.670  21.520   6.450  0.00  0.00     0.151 C 
BRANCH  10  12
HETATM   12  C   UNK N   1      26.267  19.898   5.189  0.00  0.00     0.102 A 
HETATM   13  N   UNK N   1      25.178  19.126   5.470  0.00  0.00    -0.352 N 
HETATM   14  C   UNK N   1      24.229  18.858   4.533  0.00  0.00     0.089 A 
ATOM     15  HN  UNK N   1      25.072  18.738   6.408  1.00  0.00     0.166 HD
HETATM   16  C   UNK N   1      24.351  19.377   3.242  0.00  0.00     0.017 A 
HETATM   17  C   UNK N   1      25.454  20.167   2.925  0.00  0.00     0.005 A 
HETATM   18  C   UNK N   1      26.416  20.431   3.898  0.00  0.00     0.048 A 
ENDBRANCH  10  12
ENDBRANCH   9  10
ENDBRANCH   8   9
ENDBRANCH   7   8
ENDBRANCH   4   7
BRANCH   1  19
HETATM   19  C   UNK N   1      34.210  15.860   8.378  0.00  0.00     0.063 C 
BRANCH  19  20
HETATM   20  C   UNK N   1      34.315  15.669   9.905  0.00  0.00     0.153 C 
HETATM   21  S   UNK N   1      34.661  13.926  10.439  0.00  0.00    -0.054 SA
HETATM   22  C   UNK N   1      36.286  14.449  10.937  0.00  0.00     0.287 C 
HETATM   23  O   UNK N   1      37.139  13.664  11.317  0.00  0.00    -0.260 OA
HETATM   24  N   UNK N   1      36.518  15.765  10.888  0.00  0.00    -0.287 N 
HETATM   25  C   UNK N   1      35.491  16.463  10.383  0.00  0.00     0.239 C 
HETATM   26  H   UNK N   1      37.358  16.179  11.191  0.00  0.00     0.172 HD
HETATM   27  O   UNK N   1      35.543  17.679  10.283  0.00  0.00    -0.272 OA
ENDBRANCH  19  20
ENDBRANCH   1  19
TORSDOF 7
ENDMDL
MODEL 8
REMARK VINA RESULT:      -6.5      1.725      2.364
REMARK  7 active torsions:
REMARK  status: ('A' for Active; 'I' for Inactive)
REMARK    1  A    between atoms: O_2  and  C_16 
REMARK    2  A    between atoms: O_2  and  C_17 
REMARK    3  A    between atoms: N_5  and  C_13 
REMARK    4  A    between atoms: N_5  and  C_21 
REMARK    5  A    between atoms: C_9  and  C_10 
REMARK    6  A    between atoms: C_10  and  C_11 
REMARK    7  A    between atoms: C_13  and  C_16 
ROOT
HETATM    1  C   UNK N   1      36.272  12.865  15.673  0.00  0.00    -0.056 A 
HETATM    2  C   UNK N   1      36.464  11.482  15.751  0.00  0.00     0.010 A 
HETATM    3  C   UNK N   1      35.571  13.529  16.684  0.00  0.00     0.010 A 
HETATM    4  C   UNK N   1      35.315  11.421  17.873  0.00  0.00     0.068 A 
HETATM    5  C   UNK N   1      36.007  10.769  16.854  0.00  0.00     0.037 A 
HETATM    6  C   UNK N   1      35.084  12.807  17.778  0.00  0.00     0.037 A 
ENDROOT
BRANCH   4   7
HETATM    7  O   UNK N   1      34.880  10.684  18.920  0.00  0.00    -0.350 OA
BRANCH   7   8
HETATM    8  C   UNK N   1      35.226  10.920  20.232  0.00  0.00     0.195 C 
BRANCH   8   9
HETATM    9  C   UNK N   1      34.976   9.742  21.162  0.00  0.00     0.150 C 
BRANCH   9  10
HETATM   10  N   UNK N   1      33.554   9.628  21.380  0.00  0.00    -0.370 N 
HETATM   11  C   UNK N   1      32.901  10.632  22.181  0.00  0.00     0.151 C 
BRANCH  10  12
HETATM   12  C   UNK N   1      32.790   8.590  20.765  0.00  0.00     0.102 A 
HETATM   13  N   UNK N   1      33.388   7.412  20.423  0.00  0.00    -0.352 N 
HETATM   14  C   UNK N   1      32.689   6.396  19.849  0.00  0.00     0.089 A 
ATOM     15  HN  UNK N   1      34.384   7.290  20.603  1.00  0.00     0.166 HD
HETATM   16  C   UNK N   1      31.323   6.539  19.593  0.00  0.00     0.017 A 
HETATM   17  C   UNK N   1      30.687   7.731  19.929  0.00  0.00     0.005 A 
HETATM   18  C   UNK N   1      31.418   8.761  20.517  0.00  0.00     0.048 A 
ENDBRANCH  10  12
ENDBRANCH   9  10
ENDBRANCH   8   9
ENDBRANCH   7   8
ENDBRANCH   4   7
BRANCH   1  19
HETATM   19  C   UNK N   1      36.829  13.616  14.509  0.00  0.00     0.063 C 
BRANCH  19  20
HETATM   20  C   UNK N   1      36.160  13.283  13.160  0.00  0.00     0.153 C 
HETATM   21  S   UNK N   1      35.447  14.748  12.274  0.00  0.00    -0.054 SA
HETATM   22  C   UNK N   1      36.736  14.585  11.060  0.00  0.00     0.287 C 
HETATM   23  O   UNK N   1      36.903  15.402  10.169  0.00  0.00    -0.260 OA
HETATM   24  N   UNK N   1      37.509  13.500  11.168  0.00  0.00    -0.287 N 
HETATM   25  C   UNK N   1      37.221  12.754  12.244  0.00  0.00     0.239 C 
HETATM   26  H   UNK N   1      38.217  13.271  10.524  0.00  0.00     0.172 HD
HETATM   27  O   UNK N   1      37.831  11.722  12.478  0.00  0.00    -0.272 OA
ENDBRANCH  19  20
ENDBRANCH   1  19
TORSDOF 7
ENDMDL
MODEL 9
REMARK VINA RESULT:      -6.5     12.060     16.133
REMARK  7 active torsions:
REMARK  status: ('A' for Active; 'I' for Inactive)
REMARK    1  A    between atoms: O_2  and  C_16 
REMARK    2  A    between atoms: O_2  and  C_17 
REMARK    3  A    between atoms: N_5  and  C_13 
REMARK    4  A    between atoms: N_5  and  C_21 
REMARK    5  A    between atoms: C_9  and  C_10 
REMARK    6  A    between atoms: C_10  and  C_11 
REMARK    7  A    between atoms: C_13  and  C_16 
ROOT
HETATM    1  C   UNK N   1      30.422  16.714   6.193  0.00  0.00    -0.056 A 
HETATM    2  C   UNK N   1      30.089  15.627   5.377  0.00  0.00     0.010 A 
HETATM    3  C   UNK N   1      29.437  17.324   6.975  0.00  0.00     0.010 A 
HETATM    4  C   UNK N   1      27.808  15.711   6.160  0.00  0.00     0.068 A 
HETATM    5  C   UNK N   1      28.796  15.117   5.377  0.00  0.00     0.037 A 
HETATM    6  C   UNK N   1      28.129  16.830   6.952  0.00  0.00     0.037 A 
ENDROOT
BRANCH   4   7
HETATM    7  O   UNK N   1      26.561  15.187   6.120  0.00  0.00    -0.350 OA
BRANCH   7   8
HETATM    8  C   UNK N   1      25.429  15.902   5.801  0.00  0.00     0.195 C 
BRANCH   8   9
HETATM    9  C   UNK N   1      25.395  16.403   4.365  0.00  0.00     0.150 C 
BRANCH   9  10
HETATM   10  N   UNK N   1      25.010  17.795   4.378  0.00  0.00    -0.370 N 
HETATM   11  C   UNK N   1      23.651  18.133   4.037  0.00  0.00     0.151 C 
BRANCH  10  12
HETATM   12  C   UNK N   1      25.925  18.813   4.784  0.00  0.00     0.102 A 
HETATM   13  N   UNK N   1      25.580  19.689   5.771  0.00  0.00    -0.352 N 
HETATM   14  C   UNK N   1      26.431  20.663   6.193  0.00  0.00     0.089 A 
ATOM     15  HN  UNK N   1      24.660  19.613   6.203  1.00  0.00     0.166 HD
HETATM   16  C   UNK N   1      27.696  20.789   5.615  0.00  0.00     0.017 A 
HETATM   17  C   UNK N   1      28.075  19.909   4.604  0.00  0.00     0.005 A 
HETATM   18  C   UNK N   1      27.191  18.918   4.184  0.00  0.00     0.048 A 
ENDBRANCH  10  12
ENDBRANCH   9  10
ENDBRANCH   8   9
ENDBRANCH   7   8
ENDBRANCH   4   7
BRANCH   1  19
HETATM   19  C   UNK N   1      31.832  17.201   6.222  0.00  0.00     0.063 C 
BRANCH  19  20
HETATM   20  C   UNK N   1      32.490  17.164   7.617  0.00  0.00     0.153 C 
HETATM   21  S   UNK N   1      32.221  15.585   8.551  0.00  0.00    -0.054 SA
HETATM   22  C   UNK N   1      33.944  15.210   8.324  0.00  0.00     0.287 C 
HETATM   23  O   UNK N   1      34.431  14.141   8.654  0.00  0.00    -0.260 OA
HETATM   24  N   UNK N   1      34.688  16.181   7.783  0.00  0.00    -0.287 N 
HETATM   25  C   UNK N   1      33.972  17.255   7.424  0.00  0.00     0.239 C 
HETATM   26  H   UNK N   1      35.662  16.113   7.661  0.00  0.00     0.172 HD
HETATM   27  O   UNK N   1      34.508  18.232   6.925  0.00  0.00    -0.272 OA
ENDBRANCH  19  20
ENDBRANCH   1  19
TORSDOF 7
ENDMDL
