REMARK  13 active torsions:
REMARK  status: ('A' for Active; 'I' for Inactive)
REMARK    1  A    between atoms: C_16  and  C_3 
REMARK    2  A    between atoms: C_25  and  C_4 
REMARK    3  A    between atoms: C_17  and  C_15 
REMARK    4  A    between atoms: C_21  and  C_15 
REMARK    5  A    between atoms: C_30  and  C_16 
REMARK    6  A    between atoms: C_30  and  C_17 
REMARK    7  A    between atoms: C_25  and  C_22 
REMARK    8  A    between atoms: C_31  and  C_23 
REMARK    9  A    between atoms: N_37  and  C_24 
REMARK   10  A    between atoms: C_25  and  C_28 
REMARK   11  A    between atoms: O_38  and  C_26 
REMARK   12  A    between atoms: S_43  and  C_27 
REMARK   13  A    between atoms: S_43  and  N_37 
ROOT
HETATM    1  C   UNK N   1      -4.030   8.266   0.097  0.00  0.00     0.060 C 
ENDROOT
BRANCH   1   2
HETATM    2  C   UNK N   1      -4.037   9.527  -0.799  0.00  0.00     0.010 C 
HETATM    3  C   UNK N   1      -3.214  10.674  -0.229  0.00  0.00     0.006 C 
ENDBRANCH   1   2
BRANCH   1   4
HETATM    4  C   UNK N   1      -5.488   7.787   0.283  0.00  0.00    -0.047 A 
HETATM    5  C   UNK N   1      -5.787   6.674   1.078  0.00  0.00     0.008 A 
HETATM    6  C   UNK N   1      -7.094   6.270   1.326  0.00  0.00     0.003 A 
HETATM    7  C   UNK N   1      -8.148   7.048   0.875  0.00  0.00     0.030 A 
HETATM    8  C   UNK N   1      -7.898   8.224   0.170  0.00  0.00     0.043 A 
HETATM    9  C   UNK N   1      -6.577   8.584  -0.145  0.00  0.00     0.038 A 
BRANCH   8  10
HETATM   10  N   UNK N   1      -8.993   9.072  -0.101  0.00  0.00    -0.279 N 
HETATM   11  H   UNK N   1      -9.894   8.691   0.008  0.00  0.00     0.179 HD
BRANCH  10  12
HETATM   12  S   UNK N   1      -8.889  10.748  -0.616  0.00  0.00     0.278 S 
HETATM   13  O   UNK N   1      -9.087  10.660  -2.134  0.00  0.00    -0.199 OA
HETATM   14  O   UNK N   1     -10.252  11.328  -0.211  0.00  0.00    -0.199 OA
BRANCH  12  15
HETATM   15  C   UNK N   1      -7.591  11.945  -0.280  0.00  0.00     0.149 A 
HETATM   16  C   UNK N   1      -7.702  13.192  -0.892  0.00  0.00     0.044 A 
HETATM   17  C   UNK N   1      -6.659  14.103  -0.804  0.00  0.00     0.020 A 
HETATM   18  C   UNK N   1      -5.500  13.768  -0.106  0.00  0.00     0.063 A 
HETATM   19  C   UNK N   1      -5.441  12.525   0.546  0.00  0.00     0.105 A 
HETATM   20  N   UNK N   1      -6.476  11.637   0.441  0.00  0.00    -0.355 N 
ATOM     21  HN  UNK N   1      -6.412  10.733   0.909  1.00  0.00     0.166 HD
BRANCH  18  22
HETATM   22  C   UNK N   1      -4.319  14.701  -0.122  0.00  0.00     0.418 C 
HETATM   23  F   UNK N   1      -3.974  15.068   1.164  0.00  0.00    -0.166 F 
HETATM   24  F   UNK N   1      -3.245  14.065  -0.719  0.00  0.00    -0.166 F 
HETATM   25  F   UNK N   1      -4.605  15.845  -0.852  0.00  0.00    -0.166 F 
ENDBRANCH  18  22
ENDBRANCH  12  15
ENDBRANCH  10  12
ENDBRANCH   8  10
ENDBRANCH   1   4
BRANCH   1  26
HETATM   26  C   UNK N   1      -2.853   7.257  -0.220  0.00  0.00     0.055 C 
HETATM   27  C   UNK N   1      -1.686   7.655  -0.816  0.00  0.00     0.059 C 
HETATM   28  C   UNK N   1      -0.575   6.669  -1.049  0.00  0.00     0.103 C 
HETATM   29  C   UNK N   1      -0.419   5.672   0.107  0.00  0.00     0.077 C 
HETATM   30  O   UNK N   1      -1.652   5.209   0.511  0.00  0.00    -0.306 OA
HETATM   31  C   UNK N   1      -2.836   5.833   0.290  0.00  0.00     0.293 C 
HETATM   32  O   UNK N   1      -3.844   5.216   0.527  0.00  0.00    -0.259 OA
BRANCH  27  33
HETATM   33  O   UNK N   1      -1.476   8.910  -1.245  0.00  0.00    -0.364 OA
HETATM   34  H   UNK N   1      -0.645   9.221  -1.544  0.00  0.00     0.217 HD
ENDBRANCH  27  33
BRANCH  29  35
HETATM   35  C   UNK N   1       0.281   6.298   1.326  0.00  0.00     0.038 C 
BRANCH  35  36
HETATM   36  C   UNK N   1       1.778   6.556   1.155  0.00  0.00    -0.002 C 
HETATM   37  C   UNK N   1       2.040   7.801   0.334  0.00  0.00     0.005 C 
ENDBRANCH  35  36
ENDBRANCH  29  35
BRANCH  29  38
HETATM   38  C   UNK N   1       0.380   4.468  -0.399  0.00  0.00     0.043 C 
BRANCH  38  39
HETATM   39  C   UNK N   1      -0.421   3.644  -1.409  0.00  0.00     0.041 C 
BRANCH  39  40
HETATM   40  C   UNK N   1      -1.005   2.438  -0.749  0.00  0.00    -0.058 A 
HETATM   41  C   UNK N   1      -0.168   1.397  -0.331  0.00  0.00     0.007 A 
HETATM   42  C   UNK N   1      -0.711   0.262   0.278  0.00  0.00     0.001 A 
HETATM   43  C   UNK N   1      -2.092   0.166   0.473  0.00  0.00     0.000 A 
HETATM   44  C   UNK N   1      -2.931   1.205   0.057  0.00  0.00     0.001 A 
HETATM   45  C   UNK N   1      -2.389   2.338  -0.559  0.00  0.00     0.007 A 
ENDBRANCH  39  40
ENDBRANCH  38  39
ENDBRANCH  29  38
ENDBRANCH   1  26
TORSDOF 13
