MODEL 1
REMARK VINA RESULT:      -8.0      0.000      0.000
REMARK  10 active torsions:
REMARK  status: ('A' for Active; 'I' for Inactive)
REMARK    1  A    between atoms: C_1  and  C_12 
REMARK    2  A    between atoms: C_3  and  C_2 
REMARK    3  A    between atoms: C_6  and  O_10 
REMARK    4  A    between atoms: C_7  and  O_9 
REMARK    5  A    between atoms: C_15  and  O_53 
REMARK    6  A    between atoms: C_18  and  C_55 
REMARK    7  A    between atoms: C_26  and  O_34 
REMARK    8  A    between atoms: C_28  and  O_33 
REMARK    9  A    between atoms: C_31  and  O_37 
REMARK   10  A    between atoms: C_55  and  C_56 
ROOT
HETATM    1  C   UNK N   1      30.416  16.134   3.951  0.00  0.00     0.166 C 
HETATM    2  C   UNK N   1      31.393  15.195   3.177  0.00  0.00     0.044 C 
HETATM    3  C   UNK N   1      31.557  13.767   3.689  0.00  0.00     0.131 C 
HETATM    4  C   UNK N   1      30.279  13.026   3.301  0.00  0.00     0.111 C 
HETATM    5  C   UNK N   1      29.827  11.888   4.152  0.00  0.00     0.137 C 
HETATM    6  C   UNK N   1      28.494  11.278   3.838  0.00  0.00     0.081 C 
HETATM    7  C   UNK N   1      27.502  11.652   4.896  0.00  0.00    -0.012 C 
HETATM    8  C   UNK N   1      26.361  12.294   4.603  0.00  0.00    -0.086 C 
HETATM    9  C   UNK N   1      25.493  12.721   5.740  0.00  0.00     0.043 C 
HETATM   10  C   UNK N   1      25.960  12.545   3.160  0.00  0.00     0.037 C 
HETATM   11  C   UNK N   1      25.014  13.723   2.931  0.00  0.00    -0.012 C 
HETATM   12  C   UNK N   1      25.591  14.588   1.825  0.00  0.00     0.010 C 
HETATM   13  C   UNK N   1      23.590  13.317   2.542  0.00  0.00     0.039 C 
HETATM   14  C   UNK N   1      22.667  12.901   3.700  0.00  0.00     0.152 C 
HETATM   15  C   UNK N   1      22.022  13.972   4.612  0.00  0.00     0.183 C 
HETATM   16  C   UNK N   1      20.532  14.325   4.479  0.00  0.00     0.153 C 
HETATM   17  C   UNK N   1      20.334  15.682   3.823  0.00  0.00     0.044 C 
HETATM   18  C   UNK N   1      21.243  16.722   4.473  0.00  0.00     0.055 C 
HETATM   19  C   UNK N   1      22.699  16.202   4.392  0.00  0.00     0.238 C 
HETATM   20  O   UNK N   1      22.841  14.996   5.139  0.00  0.00    -0.338 OA
HETATM   21  C   UNK N   1      23.740  17.173   4.899  0.00  0.00     0.278 C 
HETATM   22  C   UNK N   1      25.172  16.770   4.775  0.00  0.00     0.296 C 
HETATM   23  N   UNK N   1      26.192  17.661   4.638  0.00  0.00    -0.331 N 
HETATM   24  C   UNK N   1      25.882  19.084   4.597  0.00  0.00     0.127 C 
HETATM   25  C   UNK N   1      27.569  17.248   4.277  0.00  0.00     0.187 C 
HETATM   26  C   UNK N   1      28.497  18.444   4.399  0.00  0.00     0.035 C 
HETATM   27  C   UNK N   1      28.156  19.204   5.681  0.00  0.00     0.004 C 
HETATM   28  C   UNK N   1      26.778  19.854   5.558  0.00  0.00     0.020 C 
HETATM   29  O   UNK N   1      25.412  15.579   4.727  0.00  0.00    -0.264 OA
HETATM   30  O   UNK N   1      23.422  18.286   5.300  0.00  0.00    -0.281 OA
HETATM   31  C   UNK N   1      21.052  18.029   3.713  0.00  0.00     0.016 C 
HETATM   32  C   UNK N   1      28.183  16.016   4.959  0.00  0.00     0.282 C 
HETATM   33  O   UNK N   1      27.617  15.481   5.898  0.00  0.00    -0.263 OA
HETATM   34  O   UNK N   1      29.338  15.450   4.497  0.00  0.00    -0.309 OA
HETATM   35  C   UNK N   1      32.739  15.840   2.875  0.00  0.00     0.015 C 
HETATM   36  O   UNK N   1      30.469  11.522   5.127  0.00  0.00    -0.297 OA
ENDROOT
BRANCH   1  37
HETATM   37  C   UNK N   1      31.097  16.932   5.034  0.00  0.00    -0.058 C 
HETATM   38  C   UNK N   1      30.989  16.509   6.299  0.00  0.00    -0.017 C 
HETATM   39  C   UNK N   1      31.932  18.129   4.686  0.00  0.00     0.046 C 
BRANCH  38  40
HETATM   40  C   UNK N   1      31.646  17.201   7.450  0.00  0.00     0.011 C 
HETATM   41  C   UNK N   1      31.275  16.516   8.762  0.00  0.00     0.011 C 
HETATM   42  C   UNK N   1      31.965  15.154   8.889  0.00  0.00     0.035 C 
HETATM   43  C   UNK N   1      33.484  15.322   8.851  0.00  0.00     0.147 C 
HETATM   44  C   UNK N   1      33.925  15.981   7.545  0.00  0.00     0.150 C 
HETATM   45  C   UNK N   1      33.172  17.300   7.283  0.00  0.00     0.043 C 
BRANCH  43  46
HETATM   46  O   UNK N   1      33.909  16.090   9.936  0.00  0.00    -0.393 OA
HETATM   47  H   UNK N   1      33.560  16.849  10.429  0.00  0.00     0.210 HD
ENDBRANCH  43  46
BRANCH  44  48
HETATM   48  O   UNK N   1      33.805  15.084   6.481  0.00  0.00    -0.388 OA
HETATM   49  C   UNK N   1      34.977  15.262   5.740  0.00  0.00     0.202 C 
ENDBRANCH  44  48
ENDBRANCH  38  40
ENDBRANCH   1  37
BRANCH   3  50
HETATM   50  O   UNK N   1      31.806  13.765   5.064  0.00  0.00    -0.395 OA
HETATM   51  H   UNK N   1      31.787  13.672   6.030  0.00  0.00     0.210 HD
ENDBRANCH   3  50
BRANCH   6  52
HETATM   52  C   UNK N   1      28.512   9.790   3.464  0.00  0.00     0.042 C 
BRANCH  52  53
HETATM   53  C   UNK N   1      28.285   9.510   2.013  0.00  0.00    -0.036 C 
HETATM   54  C   UNK N   1      28.220  10.527   1.155  0.00  0.00     0.007 C 
ENDBRANCH  52  53
ENDBRANCH   6  52
BRANCH  19  55
HETATM   55  O   UNK N   1      23.010  15.988   3.043  0.00  0.00    -0.359 OA
HETATM   56  H   UNK N   1      23.217  15.528   2.215  0.00  0.00     0.213 HD
ENDBRANCH  19  55
BRANCH  16  57
HETATM   57  O   UNK N   1      19.842  13.337   3.772  0.00  0.00    -0.388 OA
HETATM   58  C   UNK N   1      19.336  13.986   2.645  0.00  0.00     0.202 C 
ENDBRANCH  16  57
BRANCH  14  59
HETATM   59  O   UNK N   1      23.173  11.826   4.428  0.00  0.00    -0.388 OA
HETATM   60  C   UNK N   1      22.669  10.696   3.785  0.00  0.00     0.202 C 
ENDBRANCH  14  59
TORSDOF 10
ENDMDL
MODEL 2
REMARK VINA RESULT:      -7.9      2.237      9.726
REMARK  10 active torsions:
REMARK  status: ('A' for Active; 'I' for Inactive)
REMARK    1  A    between atoms: C_1  and  C_12 
REMARK    2  A    between atoms: C_3  and  C_2 
REMARK    3  A    between atoms: C_6  and  O_10 
REMARK    4  A    between atoms: C_7  and  O_9 
REMARK    5  A    between atoms: C_15  and  O_53 
REMARK    6  A    between atoms: C_18  and  C_55 
REMARK    7  A    between atoms: C_26  and  O_34 
REMARK    8  A    between atoms: C_28  and  O_33 
REMARK    9  A    between atoms: C_31  and  O_37 
REMARK   10  A    between atoms: C_55  and  C_56 
ROOT
HETATM    1  C   UNK N   1      23.604  14.072   3.466  0.00  0.00     0.166 C 
HETATM    2  C   UNK N   1      22.886  15.278   2.786  0.00  0.00     0.044 C 
HETATM    3  C   UNK N   1      22.898  16.615   3.522  0.00  0.00     0.131 C 
HETATM    4  C   UNK N   1      24.315  17.168   3.378  0.00  0.00     0.111 C 
HETATM    5  C   UNK N   1      24.845  18.061   4.448  0.00  0.00     0.137 C 
HETATM    6  C   UNK N   1      26.287  18.464   4.359  0.00  0.00     0.081 C 
HETATM    7  C   UNK N   1      27.079  17.759   5.416  0.00  0.00    -0.012 C 
HETATM    8  C   UNK N   1      28.127  16.978   5.115  0.00  0.00    -0.086 C 
HETATM    9  C   UNK N   1      28.780  16.231   6.230  0.00  0.00     0.043 C 
HETATM   10  C   UNK N   1      28.642  16.887   3.689  0.00  0.00     0.037 C 
HETATM   11  C   UNK N   1      29.405  15.610   3.341  0.00  0.00    -0.012 C 
HETATM   12  C   UNK N   1      28.825  15.044   2.057  0.00  0.00     0.010 C 
HETATM   13  C   UNK N   1      30.911  15.811   3.151  0.00  0.00     0.039 C 
HETATM   14  C   UNK N   1      31.752  15.870   4.437  0.00  0.00     0.152 C 
HETATM   15  C   UNK N   1      32.108  14.572   5.201  0.00  0.00     0.183 C 
HETATM   16  C   UNK N   1      33.526  13.984   5.136  0.00  0.00     0.153 C 
HETATM   17  C   UNK N   1      33.575  12.733   4.274  0.00  0.00     0.044 C 
HETATM   18  C   UNK N   1      32.443  11.784   4.655  0.00  0.00     0.055 C 
HETATM   19  C   UNK N   1      31.108  12.560   4.543  0.00  0.00     0.238 C 
HETATM   20  O   UNK N   1      31.080  13.641   5.471  0.00  0.00    -0.338 OA
HETATM   21  C   UNK N   1      29.873  11.724   4.783  0.00  0.00     0.278 C 
HETATM   22  C   UNK N   1      28.549  12.390   4.610  0.00  0.00     0.296 C 
HETATM   23  N   UNK N   1      27.420  11.728   4.234  0.00  0.00    -0.331 N 
HETATM   24  C   UNK N   1      27.499  10.296   3.975  0.00  0.00     0.127 C 
HETATM   25  C   UNK N   1      26.178  12.431   3.835  0.00  0.00     0.187 C 
HETATM   26  C   UNK N   1      25.061  11.415   3.669  0.00  0.00     0.035 C 
HETATM   27  C   UNK N   1      25.128  10.416   4.825  0.00  0.00     0.004 C 
HETATM   28  C   UNK N   1      26.387   9.558   4.709  0.00  0.00     0.020 C 
HETATM   29  O   UNK N   1      28.511  13.598   4.748  0.00  0.00    -0.264 OA
HETATM   30  O   UNK N   1      29.959  10.524   5.011  0.00  0.00    -0.281 OA
HETATM   31  C   UNK N   1      32.504  10.598   3.700  0.00  0.00     0.016 C 
HETATM   32  C   UNK N   1      25.699  13.631   4.665  0.00  0.00     0.282 C 
HETATM   33  O   UNK N   1      26.233  13.903   5.727  0.00  0.00    -0.263 OA
HETATM   34  O   UNK N   1      24.710  14.459   4.212  0.00  0.00    -0.309 OA
HETATM   35  C   UNK N   1      21.497  14.939   2.264  0.00  0.00     0.015 C 
HETATM   36  O   UNK N   1      24.166  18.378   5.414  0.00  0.00    -0.297 OA
ENDROOT
BRANCH   1  37
HETATM   37  C   UNK N   1      22.685  13.249   4.333  0.00  0.00    -0.058 C 
HETATM   38  C   UNK N   1      22.605  13.545   5.636  0.00  0.00    -0.017 C 
HETATM   39  C   UNK N   1      21.832  12.173   3.730  0.00  0.00     0.046 C 
BRANCH  38  40
HETATM   40  C   UNK N   1      21.706  12.820   6.584  0.00  0.00     0.011 C 
HETATM   41  C   UNK N   1      22.506  12.281   7.767  0.00  0.00     0.011 C 
HETATM   42  C   UNK N   1      22.951  13.414   8.695  0.00  0.00     0.035 C 
HETATM   43  C   UNK N   1      21.735  14.161   9.243  0.00  0.00     0.147 C 
HETATM   44  C   UNK N   1      20.902  14.751   8.105  0.00  0.00     0.150 C 
HETATM   45  C   UNK N   1      20.526  13.687   7.056  0.00  0.00     0.043 C 
BRANCH  43  46
HETATM   46  O   UNK N   1      20.948  13.301  10.009  0.00  0.00    -0.393 OA
HETATM   47  H   UNK N   1      20.507  12.448   9.865  0.00  0.00     0.210 HD
ENDBRANCH  43  46
BRANCH  44  48
HETATM   48  O   UNK N   1      21.559  15.845   7.537  0.00  0.00    -0.388 OA
HETATM   49  C   UNK N   1      20.648  16.900   7.655  0.00  0.00     0.202 C 
ENDBRANCH  44  48
ENDBRANCH  38  40
ENDBRANCH   1  37
BRANCH   3  50
HETATM   50  O   UNK N   1      22.499  16.447   4.850  0.00  0.00    -0.395 OA
HETATM   51  H   UNK N   1      22.389  16.201   5.782  0.00  0.00     0.210 HD
ENDBRANCH   3  50
BRANCH   6  52
HETATM   52  C   UNK N   1      26.552  19.972   4.247  0.00  0.00     0.042 C 
BRANCH  52  53
HETATM   53  C   UNK N   1      27.372  20.544   5.359  0.00  0.00    -0.036 C 
HETATM   54  C   UNK N   1      26.815  21.416   6.198  0.00  0.00     0.007 C 
ENDBRANCH  52  53
ENDBRANCH   6  52
BRANCH  19  55
HETATM   55  O   UNK N   1      30.991  13.034   3.229  0.00  0.00    -0.359 OA
HETATM   56  H   UNK N   1      30.947  13.648   2.479  0.00  0.00     0.213 HD
ENDBRANCH  19  55
BRANCH  16  57
HETATM   57  O   UNK N   1      34.443  14.932   4.672  0.00  0.00    -0.388 OA
HETATM   58  C   UNK N   1      35.465  14.942   5.621  0.00  0.00     0.202 C 
ENDBRANCH  16  57
BRANCH  14  59
HETATM   59  O   UNK N   1      31.347  16.891   5.295  0.00  0.00    -0.388 OA
HETATM   60  C   UNK N   1      32.472  17.165   6.072  0.00  0.00     0.202 C 
ENDBRANCH  14  59
TORSDOF 10
ENDMDL
MODEL 3
REMARK VINA RESULT:      -7.8      2.564     10.015
REMARK  10 active torsions:
REMARK  status: ('A' for Active; 'I' for Inactive)
REMARK    1  A    between atoms: C_1  and  C_12 
REMARK    2  A    between atoms: C_3  and  C_2 
REMARK    3  A    between atoms: C_6  and  O_10 
REMARK    4  A    between atoms: C_7  and  O_9 
REMARK    5  A    between atoms: C_15  and  O_53 
REMARK    6  A    between atoms: C_18  and  C_55 
REMARK    7  A    between atoms: C_26  and  O_34 
REMARK    8  A    between atoms: C_28  and  O_33 
REMARK    9  A    between atoms: C_31  and  O_37 
REMARK   10  A    between atoms: C_55  and  C_56 
ROOT
HETATM    1  C   UNK N   1      27.119  16.566   4.748  0.00  0.00     0.166 C 
HETATM    2  C   UNK N   1      27.111  17.998   5.366  0.00  0.00     0.044 C 
HETATM    3  C   UNK N   1      27.668  18.163   6.778  0.00  0.00     0.131 C 
HETATM    4  C   UNK N   1      29.185  18.048   6.654  0.00  0.00     0.111 C 
HETATM    5  C   UNK N   1      29.960  17.527   7.817  0.00  0.00     0.137 C 
HETATM    6  C   UNK N   1      31.425  17.281   7.617  0.00  0.00     0.081 C 
HETATM    7  C   UNK N   1      31.692  15.809   7.573  0.00  0.00    -0.012 C 
HETATM    8  C   UNK N   1      32.284  15.225   6.520  0.00  0.00    -0.086 C 
HETATM    9  C   UNK N   1      32.403  13.738   6.526  0.00  0.00     0.043 C 
HETATM   10  C   UNK N   1      32.838  16.062   5.380  0.00  0.00     0.037 C 
HETATM   11  C   UNK N   1      32.954  15.351   4.033  0.00  0.00    -0.012 C 
HETATM   12  C   UNK N   1      32.308  16.228   2.975  0.00  0.00     0.010 C 
HETATM   13  C   UNK N   1      34.392  15.048   3.606  0.00  0.00     0.039 C 
HETATM   14  C   UNK N   1      35.034  13.798   4.232  0.00  0.00     0.152 C 
HETATM   15  C   UNK N   1      34.671  12.386   3.712  0.00  0.00     0.183 C 
HETATM   16  C   UNK N   1      35.655  11.593   2.838  0.00  0.00     0.153 C 
HETATM   17  C   UNK N   1      35.205  11.548   1.387  0.00  0.00     0.044 C 
HETATM   18  C   UNK N   1      33.731  11.164   1.302  0.00  0.00     0.055 C 
HETATM   19  C   UNK N   1      32.925  12.163   2.168  0.00  0.00     0.238 C 
HETATM   20  O   UNK N   1      33.308  12.057   3.537  0.00  0.00    -0.338 OA
HETATM   21  C   UNK N   1      31.427  11.984   2.102  0.00  0.00     0.278 C 
HETATM   22  C   UNK N   1      30.585  12.965   2.849  0.00  0.00     0.296 C 
HETATM   23  N   UNK N   1      29.321  13.306   2.474  0.00  0.00    -0.331 N 
HETATM   24  C   UNK N   1      28.754  12.697   1.277  0.00  0.00     0.127 C 
HETATM   25  C   UNK N   1      28.592  14.447   3.075  0.00  0.00     0.187 C 
HETATM   26  C   UNK N   1      27.154  14.435   2.585  0.00  0.00     0.035 C 
HETATM   27  C   UNK N   1      26.636  12.997   2.613  0.00  0.00     0.004 C 
HETATM   28  C   UNK N   1      27.360  12.154   1.564  0.00  0.00     0.020 C 
HETATM   29  O   UNK N   1      31.097  13.529   3.797  0.00  0.00    -0.264 OA
HETATM   30  O   UNK N   1      30.925  11.130   1.382  0.00  0.00    -0.281 OA
HETATM   31  C   UNK N   1      33.331  11.220  -0.168  0.00  0.00     0.016 C 
HETATM   32  C   UNK N   1      28.641  14.648   4.597  0.00  0.00     0.282 C 
HETATM   33  O   UNK N   1      29.133  13.796   5.319  0.00  0.00    -0.263 OA
HETATM   34  O   UNK N   1      28.199  15.804   5.177  0.00  0.00    -0.309 OA
HETATM   35  C   UNK N   1      25.782  18.721   5.200  0.00  0.00     0.015 C 
HETATM   36  O   UNK N   1      29.412  17.221   8.867  0.00  0.00    -0.297 OA
ENDROOT
BRANCH   1  37
HETATM   37  C   UNK N   1      25.842  15.805   5.004  0.00  0.00    -0.058 C 
HETATM   38  C   UNK N   1      24.739  16.173   4.341  0.00  0.00    -0.017 C 
HETATM   39  C   UNK N   1      25.832  14.623   5.927  0.00  0.00     0.046 C 
BRANCH  38  40
HETATM   40  C   UNK N   1      23.427  15.473   4.489  0.00  0.00     0.011 C 
HETATM   41  C   UNK N   1      22.890  15.648   5.907  0.00  0.00     0.011 C 
HETATM   42  C   UNK N   1      22.413  17.083   6.145  0.00  0.00     0.035 C 
HETATM   43  C   UNK N   1      21.295  17.441   5.164  0.00  0.00     0.147 C 
HETATM   44  C   UNK N   1      21.777  17.312   3.720  0.00  0.00     0.150 C 
HETATM   45  C   UNK N   1      22.396  15.927   3.442  0.00  0.00     0.043 C 
BRANCH  43  46
HETATM   46  O   UNK N   1      20.192  16.611   5.372  0.00  0.00    -0.393 OA
HETATM   47  H   UNK N   1      19.289  16.726   5.708  0.00  0.00     0.210 HD
ENDBRANCH  43  46
BRANCH  44  48
HETATM   48  O   UNK N   1      22.651  18.354   3.403  0.00  0.00    -0.388 OA
HETATM   49  C   UNK N   1      21.827  19.479   3.291  0.00  0.00     0.202 C 
ENDBRANCH  44  48
ENDBRANCH  38  40
ENDBRANCH   1  37
BRANCH   3  50
HETATM   50  O   UNK N   1      27.106  17.216   7.639  0.00  0.00    -0.395 OA
HETATM   51  H   UNK N   1      26.655  16.730   8.347  0.00  0.00     0.210 HD
ENDBRANCH   3  50
BRANCH   6  52
HETATM   52  C   UNK N   1      32.367  18.084   8.525  0.00  0.00     0.042 C 
BRANCH  52  53
HETATM   53  C   UNK N   1      33.719  18.347   7.942  0.00  0.00    -0.036 C 
HETATM   54  C   UNK N   1      34.781  17.726   8.454  0.00  0.00     0.007 C 
ENDBRANCH  52  53
ENDBRANCH   6  52
BRANCH  19  55
HETATM   55  O   UNK N   1      33.171  13.455   1.685  0.00  0.00    -0.359 OA
HETATM   56  H   UNK N   1      33.179  14.223   1.093  0.00  0.00     0.213 HD
ENDBRANCH  19  55
BRANCH  16  57
HETATM   57  O   UNK N   1      36.947  12.119   2.931  0.00  0.00    -0.388 OA
HETATM   58  C   UNK N   1      37.294  12.458   1.623  0.00  0.00     0.202 C 
ENDBRANCH  16  57
BRANCH  14  59
HETATM   59  O   UNK N   1      35.063  13.853   5.624  0.00  0.00    -0.388 OA
HETATM   60  C   UNK N   1      36.213  14.585   5.923  0.00  0.00     0.202 C 
ENDBRANCH  14  59
TORSDOF 10
ENDMDL
MODEL 4
REMARK VINA RESULT:      -7.7      2.148      9.594
REMARK  10 active torsions:
REMARK  status: ('A' for Active; 'I' for Inactive)
REMARK    1  A    between atoms: C_1  and  C_12 
REMARK    2  A    between atoms: C_3  and  C_2 
REMARK    3  A    between atoms: C_6  and  O_10 
REMARK    4  A    between atoms: C_7  and  O_9 
REMARK    5  A    between atoms: C_15  and  O_53 
REMARK    6  A    between atoms: C_18  and  C_55 
REMARK    7  A    between atoms: C_26  and  O_34 
REMARK    8  A    between atoms: C_28  and  O_33 
REMARK    9  A    between atoms: C_31  and  O_37 
REMARK   10  A    between atoms: C_55  and  C_56 
ROOT
HETATM    1  C   UNK N   1      25.194  12.718   1.593  0.00  0.00     0.166 C 
HETATM    2  C   UNK N   1      24.075  13.573   0.921  0.00  0.00     0.044 C 
HETATM    3  C   UNK N   1      23.053  14.244   1.835  0.00  0.00     0.131 C 
HETATM    4  C   UNK N   1      23.777  15.414   2.497  0.00  0.00     0.111 C 
HETATM    5  C   UNK N   1      23.332  15.857   3.850  0.00  0.00     0.137 C 
HETATM    6  C   UNK N   1      24.155  16.904   4.540  0.00  0.00     0.081 C 
HETATM    7  C   UNK N   1      24.916  16.288   5.673  0.00  0.00    -0.012 C 
HETATM    8  C   UNK N   1      26.253  16.354   5.748  0.00  0.00    -0.086 C 
HETATM    9  C   UNK N   1      26.923  15.613   6.857  0.00  0.00     0.043 C 
HETATM   10  C   UNK N   1      27.046  17.182   4.753  0.00  0.00     0.037 C 
HETATM   11  C   UNK N   1      28.501  16.760   4.550  0.00  0.00    -0.012 C 
HETATM   12  C   UNK N   1      28.756  16.635   3.059  0.00  0.00     0.010 C 
HETATM   13  C   UNK N   1      29.524  17.734   5.142  0.00  0.00     0.039 C 
HETATM   14  C   UNK N   1      29.780  17.608   6.653  0.00  0.00     0.152 C 
HETATM   15  C   UNK N   1      30.670  16.469   7.206  0.00  0.00     0.183 C 
HETATM   16  C   UNK N   1      32.097  16.754   7.700  0.00  0.00     0.153 C 
HETATM   17  C   UNK N   1      33.141  16.234   6.724  0.00  0.00     0.044 C 
HETATM   18  C   UNK N   1      32.817  14.800   6.317  0.00  0.00     0.055 C 
HETATM   19  C   UNK N   1      31.376  14.777   5.751  0.00  0.00     0.238 C 
HETATM   20  O   UNK N   1      30.438  15.149   6.757  0.00  0.00    -0.338 OA
HETATM   21  C   UNK N   1      30.940  13.440   5.198  0.00  0.00     0.278 C 
HETATM   22  C   UNK N   1      29.592  13.367   4.562  0.00  0.00     0.296 C 
HETATM   23  N   UNK N   1      29.279  12.490   3.569  0.00  0.00    -0.331 N 
HETATM   24  C   UNK N   1      30.308  11.578   3.086  0.00  0.00     0.127 C 
HETATM   25  C   UNK N   1      28.025  12.587   2.785  0.00  0.00     0.187 C 
HETATM   26  C   UNK N   1      27.891  11.357   1.903  0.00  0.00     0.035 C 
HETATM   27  C   UNK N   1      28.281  10.123   2.716  0.00  0.00     0.004 C 
HETATM   28  C   UNK N   1      29.776  10.151   3.035  0.00  0.00     0.020 C 
HETATM   29  O   UNK N   1      28.765  14.187   4.914  0.00  0.00    -0.264 OA
HETATM   30  O   UNK N   1      31.706  12.484   5.185  0.00  0.00    -0.281 OA
HETATM   31  C   UNK N   1      33.852  14.377   5.282  0.00  0.00     0.016 C 
HETATM   32  C   UNK N   1      26.705  12.872   3.518  0.00  0.00     0.282 C 
HETATM   33  O   UNK N   1      26.658  12.857   4.737  0.00  0.00    -0.263 OA
HETATM   34  O   UNK N   1      25.571  13.211   2.835  0.00  0.00    -0.309 OA
HETATM   35  C   UNK N   1      23.403  12.875  -0.253  0.00  0.00     0.015 C 
HETATM   36  O   UNK N   1      22.390  15.324   4.421  0.00  0.00    -0.297 OA
ENDROOT
BRANCH   1  37
HETATM   37  C   UNK N   1      24.823  11.262   1.728  0.00  0.00    -0.058 C 
HETATM   38  C   UNK N   1      24.303  10.844   2.889  0.00  0.00    -0.017 C 
HETATM   39  C   UNK N   1      24.971  10.327   0.565  0.00  0.00     0.046 C 
BRANCH  38  40
HETATM   40  C   UNK N   1      23.870   9.433   3.128  0.00  0.00     0.011 C 
HETATM   41  C   UNK N   1      24.657   8.826   4.286  0.00  0.00     0.011 C 
HETATM   42  C   UNK N   1      24.222   9.428   5.625  0.00  0.00     0.035 C 
HETATM   43  C   UNK N   1      22.736   9.167   5.868  0.00  0.00     0.147 C 
HETATM   44  C   UNK N   1      21.887   9.775   4.753  0.00  0.00     0.150 C 
HETATM   45  C   UNK N   1      22.354   9.314   3.358  0.00  0.00     0.043 C 
BRANCH  43  46
HETATM   46  O   UNK N   1      22.498   7.794   5.950  0.00  0.00    -0.393 OA
HETATM   47  H   UNK N   1      22.637   7.029   5.370  0.00  0.00     0.210 HD
ENDBRANCH  43  46
BRANCH  44  48
HETATM   48  O   UNK N   1      21.858  11.167   4.867  0.00  0.00    -0.388 OA
HETATM   49  C   UNK N   1      21.061  11.409   5.991  0.00  0.00     0.202 C 
ENDBRANCH  44  48
ENDBRANCH  38  40
ENDBRANCH   1  37
BRANCH   3  50
HETATM   50  O   UNK N   1      22.533  13.323   2.748  0.00  0.00    -0.395 OA
HETATM   51  H   UNK N   1      22.353  12.722   3.488  0.00  0.00     0.210 HD
ENDBRANCH   3  50
BRANCH   6  52
HETATM   52  C   UNK N   1      23.423  18.208   4.883  0.00  0.00     0.042 C 
BRANCH  52  53
HETATM   53  C   UNK N   1      23.472  19.250   3.812  0.00  0.00    -0.036 C 
HETATM   54  C   UNK N   1      24.650  19.743   3.435  0.00  0.00     0.007 C 
ENDBRANCH  52  53
ENDBRANCH   6  52
BRANCH  19  55
HETATM   55  O   UNK N   1      31.320  15.666   4.669  0.00  0.00    -0.359 OA
HETATM   56  H   UNK N   1      31.554  16.117   3.844  0.00  0.00     0.213 HD
ENDBRANCH  19  55
BRANCH  16  57
HETATM   57  O   UNK N   1      32.285  18.119   7.932  0.00  0.00    -0.388 OA
HETATM   58  C   UNK N   1      33.669  18.297   7.938  0.00  0.00     0.202 C 
ENDBRANCH  16  57
BRANCH  14  59
HETATM   59  O   UNK N   1      28.622  17.784   7.408  0.00  0.00    -0.388 OA
HETATM   60  C   UNK N   1      28.957  18.759   8.347  0.00  0.00     0.202 C 
ENDBRANCH  14  59
TORSDOF 10
ENDMDL
MODEL 5
REMARK VINA RESULT:      -7.5      6.419     12.177
REMARK  10 active torsions:
REMARK  status: ('A' for Active; 'I' for Inactive)
REMARK    1  A    between atoms: C_1  and  C_12 
REMARK    2  A    between atoms: C_3  and  C_2 
REMARK    3  A    between atoms: C_6  and  O_10 
REMARK    4  A    between atoms: C_7  and  O_9 
REMARK    5  A    between atoms: C_15  and  O_53 
REMARK    6  A    between atoms: C_18  and  C_55 
REMARK    7  A    between atoms: C_26  and  O_34 
REMARK    8  A    between atoms: C_28  and  O_33 
REMARK    9  A    between atoms: C_31  and  O_37 
REMARK   10  A    between atoms: C_55  and  C_56 
ROOT
HETATM    1  C   UNK N   1      33.713  12.213   6.630  0.00  0.00     0.166 C 
HETATM    2  C   UNK N   1      33.124  11.104   5.706  0.00  0.00     0.044 C 
HETATM    3  C   UNK N   1      34.063   9.993   5.245  0.00  0.00     0.131 C 
HETATM    4  C   UNK N   1      34.285   9.092   6.458  0.00  0.00     0.111 C 
HETATM    5  C   UNK N   1      35.571   8.345   6.568  0.00  0.00     0.137 C 
HETATM    6  C   UNK N   1      35.825   7.591   7.839  0.00  0.00     0.081 C 
HETATM    7  C   UNK N   1      36.878   8.288   8.643  0.00  0.00    -0.012 C 
HETATM    8  C   UNK N   1      36.653   8.706   9.898  0.00  0.00    -0.086 C 
HETATM    9  C   UNK N   1      37.729   9.490  10.573  0.00  0.00     0.043 C 
HETATM   10  C   UNK N   1      35.356   8.362  10.609  0.00  0.00     0.037 C 
HETATM   11  C   UNK N   1      34.947   9.308  11.736  0.00  0.00    -0.012 C 
HETATM   12  C   UNK N   1      33.500   9.712  11.517  0.00  0.00     0.010 C 
HETATM   13  C   UNK N   1      35.081   8.708  13.138  0.00  0.00     0.039 C 
HETATM   14  C   UNK N   1      36.494   8.719  13.746  0.00  0.00     0.152 C 
HETATM   15  C   UNK N   1      37.082  10.022  14.340  0.00  0.00     0.183 C 
HETATM   16  C   UNK N   1      37.188  10.216  15.860  0.00  0.00     0.153 C 
HETATM   17  C   UNK N   1      36.151  11.204  16.372  0.00  0.00     0.044 C 
HETATM   18  C   UNK N   1      36.146  12.461  15.507  0.00  0.00     0.055 C 
HETATM   19  C   UNK N   1      35.916  12.030  14.037  0.00  0.00     0.238 C 
HETATM   20  O   UNK N   1      36.992  11.213  13.584  0.00  0.00    -0.338 OA
HETATM   21  C   UNK N   1      35.774  13.175  13.063  0.00  0.00     0.278 C 
HETATM   22  C   UNK N   1      35.470  12.833  11.642  0.00  0.00     0.296 C 
HETATM   23  N   UNK N   1      34.781  13.657  10.805  0.00  0.00    -0.331 N 
HETATM   24  C   UNK N   1      34.303  14.937  11.312  0.00  0.00     0.127 C 
HETATM   25  C   UNK N   1      34.279  13.212   9.483  0.00  0.00     0.187 C 
HETATM   26  C   UNK N   1      33.736  14.412   8.725  0.00  0.00     0.035 C 
HETATM   27  C   UNK N   1      34.698  15.586   8.908  0.00  0.00     0.004 C 
HETATM   28  C   UNK N   1      34.679  16.064  10.359  0.00  0.00     0.020 C 
HETATM   29  O   UNK N   1      35.800  11.730  11.252  0.00  0.00    -0.264 OA
HETATM   30  O   UNK N   1      35.808  14.338  13.447  0.00  0.00    -0.281 OA
HETATM   31  C   UNK N   1      35.033  13.364  16.026  0.00  0.00     0.016 C 
HETATM   32  C   UNK N   1      35.194  12.372   8.580  0.00  0.00     0.282 C 
HETATM   33  O   UNK N   1      36.369  12.209   8.867  0.00  0.00    -0.263 OA
HETATM   34  O   UNK N   1      34.709  11.734   7.472  0.00  0.00    -0.309 OA
HETATM   35  C   UNK N   1      32.299  11.655   4.551  0.00  0.00     0.015 C 
HETATM   36  O   UNK N   1      36.431   8.418   5.701  0.00  0.00    -0.297 OA
ENDROOT
BRANCH   1  37
HETATM   37  C   UNK N   1      34.239  13.402   5.866  0.00  0.00    -0.058 C 
HETATM   38  C   UNK N   1      33.385  14.384   5.552  0.00  0.00    -0.017 C 
HETATM   39  C   UNK N   1      35.697  13.507   5.530  0.00  0.00     0.046 C 
BRANCH  38  40
HETATM   40  C   UNK N   1      33.799  15.623   4.825  0.00  0.00     0.011 C 
HETATM   41  C   UNK N   1      33.167  15.659   3.436  0.00  0.00     0.011 C 
HETATM   42  C   UNK N   1      31.663  15.935   3.521  0.00  0.00     0.035 C 
HETATM   43  C   UNK N   1      31.407  17.281   4.197  0.00  0.00     0.147 C 
HETATM   44  C   UNK N   1      31.994  17.302   5.607  0.00  0.00     0.150 C 
HETATM   45  C   UNK N   1      33.483  16.903   5.616  0.00  0.00     0.043 C 
BRANCH  43  46
HETATM   46  O   UNK N   1      31.962  18.312   3.438  0.00  0.00    -0.393 OA
HETATM   47  H   UNK N   1      32.281  18.411   2.526  0.00  0.00     0.210 HD
ENDBRANCH  43  46
BRANCH  44  48
HETATM   48  O   UNK N   1      31.229  16.509   6.465  0.00  0.00    -0.388 OA
HETATM   49  C   UNK N   1      31.371  17.112   7.719  0.00  0.00     0.202 C 
ENDBRANCH  44  48
ENDBRANCH  38  40
ENDBRANCH   1  37
BRANCH   3  50
HETATM   50  O   UNK N   1      35.245  10.533   4.730  0.00  0.00    -0.395 OA
HETATM   51  H   UNK N   1      36.153  10.818   4.544  0.00  0.00     0.210 HD
ENDBRANCH   3  50
BRANCH   6  52
HETATM   52  C   UNK N   1      36.022   6.076   7.688  0.00  0.00     0.042 C 
BRANCH  52  53
HETATM   53  C   UNK N   1      34.891   5.247   8.206  0.00  0.00    -0.036 C 
HETATM   54  C   UNK N   1      33.738   5.837   8.516  0.00  0.00     0.007 C 
ENDBRANCH  52  53
ENDBRANCH   6  52
BRANCH  19  55
HETATM   55  O   UNK N   1      34.703  11.331  13.974  0.00  0.00    -0.359 OA
HETATM   56  H   UNK N   1      33.810  11.073  13.699  0.00  0.00     0.213 HD
ENDBRANCH  19  55
BRANCH  16  57
HETATM   57  O   UNK N   1      37.071   8.996  16.532  0.00  0.00    -0.388 OA
HETATM   58  C   UNK N   1      36.113   9.219  17.522  0.00  0.00     0.202 C 
ENDBRANCH  16  57
BRANCH  14  59
HETATM   59  O   UNK N   1      37.420   8.036  12.959  0.00  0.00    -0.388 OA
HETATM   60  C   UNK N   1      37.394   6.728  13.441  0.00  0.00     0.202 C 
ENDBRANCH  14  59
TORSDOF 10
ENDMDL
MODEL 6
REMARK VINA RESULT:      -7.3      2.735      9.797
REMARK  10 active torsions:
REMARK  status: ('A' for Active; 'I' for Inactive)
REMARK    1  A    between atoms: C_1  and  C_12 
REMARK    2  A    between atoms: C_3  and  C_2 
REMARK    3  A    between atoms: C_6  and  O_10 
REMARK    4  A    between atoms: C_7  and  O_9 
REMARK    5  A    between atoms: C_15  and  O_53 
REMARK    6  A    between atoms: C_18  and  C_55 
REMARK    7  A    between atoms: C_26  and  O_34 
REMARK    8  A    between atoms: C_28  and  O_33 
REMARK    9  A    between atoms: C_31  and  O_37 
REMARK   10  A    between atoms: C_55  and  C_56 
ROOT
HETATM    1  C   UNK N   1      27.333  16.352   3.657  0.00  0.00     0.166 C 
HETATM    2  C   UNK N   1      27.176  17.810   4.189  0.00  0.00     0.044 C 
HETATM    3  C   UNK N   1      27.412  18.049   5.678  0.00  0.00     0.131 C 
HETATM    4  C   UNK N   1      28.922  17.961   5.890  0.00  0.00     0.111 C 
HETATM    5  C   UNK N   1      29.432  17.509   7.216  0.00  0.00     0.137 C 
HETATM    6  C   UNK N   1      30.909  17.285   7.349  0.00  0.00     0.081 C 
HETATM    7  C   UNK N   1      31.195  15.818   7.435  0.00  0.00    -0.012 C 
HETATM    8  C   UNK N   1      32.007  15.201   6.563  0.00  0.00    -0.086 C 
HETATM    9  C   UNK N   1      32.138  13.718   6.667  0.00  0.00     0.043 C 
HETATM   10  C   UNK N   1      32.785  15.997   5.530  0.00  0.00     0.037 C 
HETATM   11  C   UNK N   1      33.197  15.229   4.275  0.00  0.00    -0.012 C 
HETATM   12  C   UNK N   1      32.786  16.045   3.063  0.00  0.00     0.010 C 
HETATM   13  C   UNK N   1      34.697  14.937   4.183  0.00  0.00     0.039 C 
HETATM   14  C   UNK N   1      35.201  13.731   4.993  0.00  0.00     0.152 C 
HETATM   15  C   UNK N   1      34.975  12.290   4.475  0.00  0.00     0.183 C 
HETATM   16  C   UNK N   1      36.133  11.479   3.874  0.00  0.00     0.153 C 
HETATM   17  C   UNK N   1      36.008  11.359   2.363  0.00  0.00     0.044 C 
HETATM   18  C   UNK N   1      34.591  10.941   1.981  0.00  0.00     0.055 C 
HETATM   19  C   UNK N   1      33.606  11.961   2.604  0.00  0.00     0.238 C 
HETATM   20  O   UNK N   1      33.686  11.925   4.027  0.00  0.00    -0.338 OA
HETATM   21  C   UNK N   1      32.160  11.748   2.226  0.00  0.00     0.278 C 
HETATM   22  C   UNK N   1      31.166  12.743   2.725  0.00  0.00     0.296 C 
HETATM   23  N   UNK N   1      30.010  13.041   2.070  0.00  0.00    -0.331 N 
HETATM   24  C   UNK N   1      29.721  12.368   0.811  0.00  0.00     0.127 C 
HETATM   25  C   UNK N   1      29.155  14.192   2.445  0.00  0.00     0.187 C 
HETATM   26  C   UNK N   1      27.858  14.128   1.657  0.00  0.00     0.035 C 
HETATM   27  C   UNK N   1      27.362  12.682   1.643  0.00  0.00     0.004 C 
HETATM   28  C   UNK N   1      28.305  11.808   0.816  0.00  0.00     0.020 C 
HETATM   29  O   UNK N   1      31.454  13.360   3.733  0.00  0.00    -0.264 OA
HETATM   30  O   UNK N   1      31.835  10.852   1.456  0.00  0.00    -0.281 OA
HETATM   31  C   UNK N   1      34.519  10.924   0.459  0.00  0.00     0.016 C 
HETATM   32  C   UNK N   1      28.872  14.462   3.930  0.00  0.00     0.282 C 
HETATM   33  O   UNK N   1      29.205  13.654   4.781  0.00  0.00    -0.263 OA
HETATM   34  O   UNK N   1      28.302  15.634   4.344  0.00  0.00    -0.309 OA
HETATM   35  C   UNK N   1      25.906  18.497   3.706  0.00  0.00     0.015 C 
HETATM   36  O   UNK N   1      28.673  17.239   8.137  0.00  0.00    -0.297 OA
ENDROOT
BRANCH   1  37
HETATM   37  C   UNK N   1      26.039  15.577   3.668  0.00  0.00    -0.058 C 
HETATM   38  C   UNK N   1      25.697  14.927   4.787  0.00  0.00    -0.017 C 
HETATM   39  C   UNK N   1      25.130  15.596   2.476  0.00  0.00     0.046 C 
BRANCH  38  40
HETATM   40  C   UNK N   1      24.426  14.154   4.925  0.00  0.00     0.011 C 
HETATM   41  C   UNK N   1      24.701  12.657   4.815  0.00  0.00     0.011 C 
HETATM   42  C   UNK N   1      25.422  12.135   6.061  0.00  0.00     0.035 C 
HETATM   43  C   UNK N   1      24.570  12.373   7.308  0.00  0.00     0.147 C 
HETATM   44  C   UNK N   1      24.280  13.861   7.491  0.00  0.00     0.150 C 
HETATM   45  C   UNK N   1      23.670  14.489   6.222  0.00  0.00     0.043 C 
BRANCH  43  46
HETATM   46  O   UNK N   1      23.372  11.664   7.212  0.00  0.00    -0.393 OA
HETATM   47  H   UNK N   1      22.429  11.892   7.204  0.00  0.00     0.210 HD
ENDBRANCH  43  46
BRANCH  44  48
HETATM   48  O   UNK N   1      25.429  14.534   7.913  0.00  0.00    -0.388 OA
HETATM   49  C   UNK N   1      25.563  14.186   9.261  0.00  0.00     0.202 C 
ENDBRANCH  44  48
ENDBRANCH  38  40
ENDBRANCH   1  37
BRANCH   3  50
HETATM   50  O   UNK N   1      26.688  17.131   6.443  0.00  0.00    -0.395 OA
HETATM   51  H   UNK N   1      26.047  16.653   6.993  0.00  0.00     0.210 HD
ENDBRANCH   3  50
BRANCH   6  52
HETATM   52  C   UNK N   1      31.624  18.147   8.398  0.00  0.00     0.042 C 
BRANCH  52  53
HETATM   53  C   UNK N   1      33.039  17.750   8.672  0.00  0.00    -0.036 C 
HETATM   54  C   UNK N   1      34.021  18.312   7.969  0.00  0.00     0.007 C 
ENDBRANCH  52  53
ENDBRANCH   6  52
BRANCH  19  55
HETATM   55  O   UNK N   1      33.937  13.235   2.123  0.00  0.00    -0.359 OA
HETATM   56  H   UNK N   1      34.125  13.958   1.505  0.00  0.00     0.213 HD
ENDBRANCH  19  55
BRANCH  16  57
HETATM   57  O   UNK N   1      37.369  12.035   4.217  0.00  0.00    -0.388 OA
HETATM   58  C   UNK N   1      38.008  12.276   3.001  0.00  0.00     0.202 C 
ENDBRANCH  16  57
BRANCH  14  59
HETATM   59  O   UNK N   1      34.929  13.849   6.355  0.00  0.00    -0.388 OA
HETATM   60  C   UNK N   1      36.058  14.469   6.887  0.00  0.00     0.202 C 
ENDBRANCH  14  59
TORSDOF 10
ENDMDL
MODEL 7
REMARK VINA RESULT:      -7.3      2.501      5.958
REMARK  10 active torsions:
REMARK  status: ('A' for Active; 'I' for Inactive)
REMARK    1  A    between atoms: C_1  and  C_12 
REMARK    2  A    between atoms: C_3  and  C_2 
REMARK    3  A    between atoms: C_6  and  O_10 
REMARK    4  A    between atoms: C_7  and  O_9 
REMARK    5  A    between atoms: C_15  and  O_53 
REMARK    6  A    between atoms: C_18  and  C_55 
REMARK    7  A    between atoms: C_26  and  O_34 
REMARK    8  A    between atoms: C_28  and  O_33 
REMARK    9  A    between atoms: C_31  and  O_37 
REMARK   10  A    between atoms: C_55  and  C_56 
ROOT
HETATM    1  C   UNK N   1      30.009  15.703   5.758  0.00  0.00     0.166 C 
HETATM    2  C   UNK N   1      29.558  16.713   6.859  0.00  0.00     0.044 C 
HETATM    3  C   UNK N   1      28.840  17.981   6.405  0.00  0.00     0.131 C 
HETATM    4  C   UNK N   1      27.434  17.550   5.994  0.00  0.00     0.111 C 
HETATM    5  C   UNK N   1      26.721  18.340   4.949  0.00  0.00     0.137 C 
HETATM    6  C   UNK N   1      25.408  17.808   4.456  0.00  0.00     0.081 C 
HETATM    7  C   UNK N   1      25.565  17.276   3.066  0.00  0.00    -0.012 C 
HETATM    8  C   UNK N   1      25.266  16.006   2.754  0.00  0.00    -0.086 C 
HETATM    9  C   UNK N   1      25.563  15.544   1.366  0.00  0.00     0.043 C 
HETATM   10  C   UNK N   1      24.619  15.088   3.776  0.00  0.00     0.037 C 
HETATM   11  C   UNK N   1      24.839  13.593   3.555  0.00  0.00    -0.012 C 
HETATM   12  C   UNK N   1      25.319  12.985   4.861  0.00  0.00     0.010 C 
HETATM   13  C   UNK N   1      23.591  12.836   3.094  0.00  0.00     0.039 C 
HETATM   14  C   UNK N   1      23.261  12.930   1.594  0.00  0.00     0.152 C 
HETATM   15  C   UNK N   1      24.050  12.086   0.564  0.00  0.00     0.183 C 
HETATM   16  C   UNK N   1      23.416  10.848  -0.090  0.00  0.00     0.153 C 
HETATM   17  C   UNK N   1      24.003   9.559   0.462  0.00  0.00     0.044 C 
HETATM   18  C   UNK N   1      25.527   9.637   0.477  0.00  0.00     0.055 C 
HETATM   19  C   UNK N   1      25.934  10.896   1.281  0.00  0.00     0.238 C 
HETATM   20  O   UNK N   1      25.461  12.075   0.635  0.00  0.00    -0.338 OA
HETATM   21  C   UNK N   1      27.423  11.057   1.484  0.00  0.00     0.278 C 
HETATM   22  C   UNK N   1      27.881  12.205   2.319  0.00  0.00     0.296 C 
HETATM   23  N   UNK N   1      29.032  12.190   3.047  0.00  0.00    -0.331 N 
HETATM   24  C   UNK N   1      29.862  10.992   3.025  0.00  0.00     0.127 C 
HETATM   25  C   UNK N   1      29.354  13.230   4.052  0.00  0.00     0.187 C 
HETATM   26  C   UNK N   1      30.781  13.033   4.536  0.00  0.00     0.035 C 
HETATM   27  C   UNK N   1      31.670  12.723   3.332  0.00  0.00     0.004 C 
HETATM   28  C   UNK N   1      31.316  11.355   2.751  0.00  0.00     0.020 C 
HETATM   29  O   UNK N   1      27.142  13.168   2.397  0.00  0.00    -0.264 OA
HETATM   30  O   UNK N   1      28.211  10.219   1.061  0.00  0.00    -0.281 OA
HETATM   31  C   UNK N   1      26.040   8.352   1.117  0.00  0.00     0.016 C 
HETATM   32  C   UNK N   1      29.099  14.705   3.710  0.00  0.00     0.282 C 
HETATM   33  O   UNK N   1      28.793  15.035   2.576  0.00  0.00    -0.263 OA
HETATM   34  O   UNK N   1      29.145  15.677   4.671  0.00  0.00    -0.309 OA
HETATM   35  C   UNK N   1      30.646  17.020   7.879  0.00  0.00     0.015 C 
HETATM   36  O   UNK N   1      27.225  19.332   4.440  0.00  0.00    -0.297 OA
ENDROOT
BRANCH   1  37
HETATM   37  C   UNK N   1      31.414  15.950   5.269  0.00  0.00    -0.058 C 
HETATM   38  C   UNK N   1      32.429  15.405   5.951  0.00  0.00    -0.017 C 
HETATM   39  C   UNK N   1      31.656  16.729   4.011  0.00  0.00     0.046 C 
BRANCH  38  40
HETATM   40  C   UNK N   1      33.859  15.555   5.543  0.00  0.00     0.011 C 
HETATM   41  C   UNK N   1      34.684  16.114   6.699  0.00  0.00     0.011 C 
HETATM   42  C   UNK N   1      34.870  15.069   7.802  0.00  0.00     0.035 C 
HETATM   43  C   UNK N   1      35.591  13.838   7.253  0.00  0.00     0.147 C 
HETATM   44  C   UNK N   1      34.800  13.212   6.105  0.00  0.00     0.150 C 
HETATM   45  C   UNK N   1      34.460  14.244   5.011  0.00  0.00     0.043 C 
BRANCH  43  46
HETATM   46  O   UNK N   1      36.868  14.188   6.813  0.00  0.00    -0.393 OA
HETATM   47  H   UNK N   1      37.321  15.013   6.579  0.00  0.00     0.210 HD
ENDBRANCH  43  46
BRANCH  44  48
HETATM   48  O   UNK N   1      33.662  12.565   6.593  0.00  0.00    -0.388 OA
HETATM   49  C   UNK N   1      33.754  11.265   6.086  0.00  0.00     0.202 C 
ENDBRANCH  44  48
ENDBRANCH  38  40
ENDBRANCH   1  37
BRANCH   3  50
HETATM   50  O   UNK N   1      29.553  18.606   5.378  0.00  0.00    -0.395 OA
HETATM   51  H   UNK N   1      29.917  19.204   4.706  0.00  0.00     0.210 HD
ENDBRANCH   3  50
BRANCH   6  52
HETATM   52  C   UNK N   1      24.196  18.725   4.667  0.00  0.00     0.042 C 
BRANCH  52  53
HETATM   53  C   UNK N   1      23.669  19.357   3.419  0.00  0.00    -0.036 C 
HETATM   54  C   UNK N   1      24.111  20.562   3.063  0.00  0.00     0.007 C 
ENDBRANCH  52  53
ENDBRANCH   6  52
BRANCH  19  55
HETATM   55  O   UNK N   1      25.390  10.786   2.568  0.00  0.00    -0.359 OA
HETATM   56  H   UNK N   1      25.176  10.424   3.442  0.00  0.00     0.213 HD
ENDBRANCH  19  55
BRANCH  16  57
HETATM   57  O   UNK N   1      22.026  10.855   0.063  0.00  0.00    -0.388 OA
HETATM   58  C   UNK N   1      21.721   9.625   0.647  0.00  0.00     0.202 C 
ENDBRANCH  16  57
BRANCH  14  59
HETATM   59  O   UNK N   1      23.078  14.243   1.167  0.00  0.00    -0.388 OA
HETATM   60  C   UNK N   1      21.696  14.431   1.187  0.00  0.00     0.202 C 
ENDBRANCH  14  59
TORSDOF 10
ENDMDL
MODEL 8
REMARK VINA RESULT:      -7.1      3.099      5.814
REMARK  10 active torsions:
REMARK  status: ('A' for Active; 'I' for Inactive)
REMARK    1  A    between atoms: C_1  and  C_12 
REMARK    2  A    between atoms: C_3  and  C_2 
REMARK    3  A    between atoms: C_6  and  O_10 
REMARK    4  A    between atoms: C_7  and  O_9 
REMARK    5  A    between atoms: C_15  and  O_53 
REMARK    6  A    between atoms: C_18  and  C_55 
REMARK    7  A    between atoms: C_26  and  O_34 
REMARK    8  A    between atoms: C_28  and  O_33 
REMARK    9  A    between atoms: C_31  and  O_37 
REMARK   10  A    between atoms: C_55  and  C_56 
ROOT
HETATM    1  C   UNK N   1      35.456  13.851   5.079  0.00  0.00     0.166 C 
HETATM    2  C   UNK N   1      36.126  13.239   3.809  0.00  0.00     0.044 C 
HETATM    3  C   UNK N   1      35.534  11.949   3.249  0.00  0.00     0.131 C 
HETATM    4  C   UNK N   1      34.224  12.341   2.569  0.00  0.00     0.111 C 
HETATM    5  C   UNK N   1      33.126  11.334   2.500  0.00  0.00     0.137 C 
HETATM    6  C   UNK N   1      31.802  11.792   1.965  0.00  0.00     0.081 C 
HETATM    7  C   UNK N   1      30.807  11.884   3.080  0.00  0.00    -0.012 C 
HETATM    8  C   UNK N   1      30.164  13.027   3.365  0.00  0.00    -0.086 C 
HETATM    9  C   UNK N   1      29.278  13.044   4.565  0.00  0.00     0.043 C 
HETATM   10  C   UNK N   1      30.317  14.246   2.473  0.00  0.00     0.037 C 
HETATM   11  C   UNK N   1      30.049  15.593   3.140  0.00  0.00    -0.012 C 
HETATM   12  C   UNK N   1      31.212  16.518   2.829  0.00  0.00     0.010 C 
HETATM   13  C   UNK N   1      28.751  16.269   2.689  0.00  0.00     0.039 C 
HETATM   14  C   UNK N   1      27.460  15.769   3.358  0.00  0.00     0.152 C 
HETATM   15  C   UNK N   1      27.096  16.219   4.794  0.00  0.00     0.183 C 
HETATM   16  C   UNK N   1      25.987  17.254   5.036  0.00  0.00     0.153 C 
HETATM   17  C   UNK N   1      26.559  18.603   5.443  0.00  0.00     0.044 C 
HETATM   18  C   UNK N   1      27.601  18.425   6.544  0.00  0.00     0.055 C 
HETATM   19  C   UNK N   1      28.670  17.428   6.035  0.00  0.00     0.238 C 
HETATM   20  O   UNK N   1      28.087  16.149   5.798  0.00  0.00    -0.338 OA
HETATM   21  C   UNK N   1      29.838  17.227   6.972  0.00  0.00     0.278 C 
HETATM   22  C   UNK N   1      30.946  16.341   6.508  0.00  0.00     0.296 C 
HETATM   23  N   UNK N   1      32.239  16.486   6.911  0.00  0.00    -0.331 N 
HETATM   24  C   UNK N   1      32.572  17.563   7.833  0.00  0.00     0.127 C 
HETATM   25  C   UNK N   1      33.360  15.762   6.266  0.00  0.00     0.187 C 
HETATM   26  C   UNK N   1      34.629  15.990   7.070  0.00  0.00     0.035 C 
HETATM   27  C   UNK N   1      34.297  15.872   8.557  0.00  0.00     0.004 C 
HETATM   28  C   UNK N   1      33.405  17.034   8.993  0.00  0.00     0.020 C 
HETATM   29  O   UNK N   1      30.673  15.498   5.675  0.00  0.00    -0.264 OA
HETATM   30  O   UNK N   1      29.914  17.848   8.025  0.00  0.00    -0.281 OA
HETATM   31  C   UNK N   1      28.187  19.800   6.840  0.00  0.00     0.016 C 
HETATM   32  C   UNK N   1      33.194  14.273   5.929  0.00  0.00     0.282 C 
HETATM   33  O   UNK N   1      32.224  13.651   6.329  0.00  0.00    -0.263 OA
HETATM   34  O   UNK N   1      34.087  13.622   5.124  0.00  0.00    -0.309 OA
HETATM   35  C   UNK N   1      37.643  13.166   3.903  0.00  0.00     0.015 C 
HETATM   36  O   UNK N   1      33.263  10.204   2.948  0.00  0.00    -0.297 OA
ENDROOT
BRANCH   1  37
HETATM   37  C   UNK N   1      36.082  13.374   6.365  0.00  0.00    -0.058 C 
HETATM   38  C   UNK N   1      35.484  12.378   7.031  0.00  0.00    -0.017 C 
HETATM   39  C   UNK N   1      37.378  13.957   6.843  0.00  0.00     0.046 C 
BRANCH  38  40
HETATM   40  C   UNK N   1      36.029  11.802   8.298  0.00  0.00     0.011 C 
HETATM   41  C   UNK N   1      35.510  12.583   9.502  0.00  0.00     0.011 C 
HETATM   42  C   UNK N   1      34.025  12.302   9.744  0.00  0.00     0.035 C 
HETATM   43  C   UNK N   1      33.801  10.813  10.008  0.00  0.00     0.147 C 
HETATM   44  C   UNK N   1      34.277   9.973   8.824  0.00  0.00     0.150 C 
HETATM   45  C   UNK N   1      35.734  10.299   8.437  0.00  0.00     0.043 C 
BRANCH  43  46
HETATM   46  O   UNK N   1      34.476  10.425  11.167  0.00  0.00    -0.393 OA
HETATM   47  H   UNK N   1      34.571   9.604  11.674  0.00  0.00     0.210 HD
ENDBRANCH  43  46
BRANCH  44  48
HETATM   48  O   UNK N   1      33.401  10.109   7.746  0.00  0.00    -0.388 OA
HETATM   49  C   UNK N   1      33.708   9.033   6.907  0.00  0.00     0.202 C 
ENDBRANCH  44  48
ENDBRANCH  38  40
ENDBRANCH   1  37
BRANCH   3  50
HETATM   50  O   UNK N   1      35.372  11.003   4.265  0.00  0.00    -0.395 OA
HETATM   51  H   UNK N   1      35.472  10.334   4.962  0.00  0.00     0.210 HD
ENDBRANCH   3  50
BRANCH   6  52
HETATM   52  C   UNK N   1      31.302  11.065   0.709  0.00  0.00     0.042 C 
BRANCH  52  53
HETATM   53  C   UNK N   1      30.581  11.936  -0.269  0.00  0.00    -0.036 C 
HETATM   54  C   UNK N   1      30.063  11.391  -1.369  0.00  0.00     0.007 C 
ENDBRANCH  52  53
ENDBRANCH   6  52
BRANCH  19  55
HETATM   55  O   UNK N   1      29.221  17.946   4.855  0.00  0.00    -0.359 OA
HETATM   56  H   UNK N   1      29.863  18.142   4.155  0.00  0.00     0.213 HD
ENDBRANCH  19  55
BRANCH  16  57
HETATM   57  O   UNK N   1      25.172  17.391   3.909  0.00  0.00    -0.388 OA
HETATM   58  C   UNK N   1      24.929  18.761   3.803  0.00  0.00     0.202 C 
ENDBRANCH  16  57
BRANCH  14  59
HETATM   59  O   UNK N   1      27.253  14.404   3.167  0.00  0.00    -0.388 OA
HETATM   60  C   UNK N   1      26.230  14.332   2.223  0.00  0.00     0.202 C 
ENDBRANCH  14  59
TORSDOF 10
ENDMDL
MODEL 9
REMARK VINA RESULT:      -7.1      2.533      9.015
REMARK  10 active torsions:
REMARK  status: ('A' for Active; 'I' for Inactive)
REMARK    1  A    between atoms: C_1  and  C_12 
REMARK    2  A    between atoms: C_3  and  C_2 
REMARK    3  A    between atoms: C_6  and  O_10 
REMARK    4  A    between atoms: C_7  and  O_9 
REMARK    5  A    between atoms: C_15  and  O_53 
REMARK    6  A    between atoms: C_18  and  C_55 
REMARK    7  A    between atoms: C_26  and  O_34 
REMARK    8  A    between atoms: C_28  and  O_33 
REMARK    9  A    between atoms: C_31  and  O_37 
REMARK   10  A    between atoms: C_55  and  C_56 
ROOT
HETATM    1  C   UNK N   1      24.962  17.630   3.425  0.00  0.00     0.166 C 
HETATM    2  C   UNK N   1      25.759  18.971   3.469  0.00  0.00     0.044 C 
HETATM    3  C   UNK N   1      26.748  19.169   4.613  0.00  0.00     0.131 C 
HETATM    4  C   UNK N   1      27.948  18.278   4.300  0.00  0.00     0.111 C 
HETATM    5  C   UNK N   1      28.753  17.739   5.433  0.00  0.00     0.137 C 
HETATM    6  C   UNK N   1      29.829  16.746   5.106  0.00  0.00     0.081 C 
HETATM    7  C   UNK N   1      29.418  15.381   5.562  0.00  0.00    -0.012 C 
HETATM    8  C   UNK N   1      29.339  14.344   4.716  0.00  0.00    -0.086 C 
HETATM    9  C   UNK N   1      28.811  13.053   5.247  0.00  0.00     0.043 C 
HETATM   10  C   UNK N   1      29.801  14.480   3.276  0.00  0.00     0.037 C 
HETATM   11  C   UNK N   1      29.171  13.506   2.282  0.00  0.00    -0.012 C 
HETATM   12  C   UNK N   1      28.660  14.301   1.095  0.00  0.00     0.010 C 
HETATM   13  C   UNK N   1      30.128  12.425   1.772  0.00  0.00     0.039 C 
HETATM   14  C   UNK N   1      30.341  11.218   2.702  0.00  0.00     0.152 C 
HETATM   15  C   UNK N   1      29.270  10.105   2.799  0.00  0.00     0.183 C 
HETATM   16  C   UNK N   1      29.492   8.739   2.132  0.00  0.00     0.153 C 
HETATM   17  C   UNK N   1      28.630   8.576   0.890  0.00  0.00     0.044 C 
HETATM   18  C   UNK N   1      27.190   8.981   1.188  0.00  0.00     0.055 C 
HETATM   19  C   UNK N   1      27.204  10.426   1.745  0.00  0.00     0.238 C 
HETATM   20  O   UNK N   1      27.919  10.478   2.977  0.00  0.00    -0.338 OA
HETATM   21  C   UNK N   1      25.837  11.018   1.989  0.00  0.00     0.278 C 
HETATM   22  C   UNK N   1      25.775  12.436   2.449  0.00  0.00     0.296 C 
HETATM   23  N   UNK N   1      24.728  13.266   2.182  0.00  0.00    -0.331 N 
HETATM   24  C   UNK N   1      23.610  12.757   1.398  0.00  0.00     0.127 C 
HETATM   25  C   UNK N   1      24.783  14.725   2.432  0.00  0.00     0.187 C 
HETATM   26  C   UNK N   1      23.403  15.322   2.216  0.00  0.00     0.035 C 
HETATM   27  C   UNK N   1      22.363  14.398   2.852  0.00  0.00     0.004 C 
HETATM   28  C   UNK N   1      22.288  13.080   2.083  0.00  0.00     0.020 C 
HETATM   29  O   UNK N   1      26.749  12.876   3.030  0.00  0.00    -0.264 OA
HETATM   30  O   UNK N   1      24.820  10.388   1.722  0.00  0.00    -0.281 OA
HETATM   31  C   UNK N   1      26.409   8.872  -0.116  0.00  0.00     0.016 C 
HETATM   32  C   UNK N   1      25.393  15.236   3.746  0.00  0.00     0.282 C 
HETATM   33  O   UNK N   1      25.678  14.458   4.641  0.00  0.00    -0.263 OA
HETATM   34  O   UNK N   1      25.692  16.559   3.924  0.00  0.00    -0.309 OA
HETATM   35  C   UNK N   1      24.885  20.200   3.264  0.00  0.00     0.015 C 
HETATM   36  O   UNK N   1      28.491  18.017   6.595  0.00  0.00    -0.297 OA
ENDROOT
BRANCH   1  37
HETATM   37  C   UNK N   1      23.638  17.706   4.142  0.00  0.00    -0.058 C 
HETATM   38  C   UNK N   1      22.615  18.310   3.525  0.00  0.00    -0.017 C 
HETATM   39  C   UNK N   1      23.460  17.059   5.483  0.00  0.00     0.046 C 
BRANCH  38  40
HETATM   40  C   UNK N   1      21.249  18.417   4.124  0.00  0.00     0.011 C 
HETATM   41  C   UNK N   1      20.644  19.785   3.822  0.00  0.00     0.011 C 
HETATM   42  C   UNK N   1      20.256  19.904   2.346  0.00  0.00     0.035 C 
HETATM   43  C   UNK N   1      19.227  18.836   1.979  0.00  0.00     0.147 C 
HETATM   44  C   UNK N   1      19.783  17.435   2.233  0.00  0.00     0.150 C 
HETATM   45  C   UNK N   1      20.317  17.282   3.671  0.00  0.00     0.043 C 
BRANCH  43  46
HETATM   46  O   UNK N   1      18.057  19.023   2.717  0.00  0.00    -0.393 OA
HETATM   47  H   UNK N   1      17.152  18.677   2.684  0.00  0.00     0.210 HD
ENDBRANCH  43  46
BRANCH  44  48
HETATM   48  O   UNK N   1      20.745  17.111   1.275  0.00  0.00    -0.388 OA
HETATM   49  C   UNK N   1      20.117  16.169   0.454  0.00  0.00     0.202 C 
ENDBRANCH  44  48
ENDBRANCH  38  40
ENDBRANCH   1  37
BRANCH   3  50
HETATM   50  O   UNK N   1      26.144  18.878   5.839  0.00  0.00    -0.395 OA
HETATM   51  H   UNK N   1      25.842  18.838   6.761  0.00  0.00     0.210 HD
ENDBRANCH   3  50
BRANCH   6  52
HETATM   52  C   UNK N   1      31.256  17.157   5.493  0.00  0.00     0.042 C 
BRANCH  52  53
HETATM   53  C   UNK N   1      32.126  17.546   4.341  0.00  0.00    -0.036 C 
HETATM   54  C   UNK N   1      33.450  17.546   4.495  0.00  0.00     0.007 C 
ENDBRANCH  52  53
ENDBRANCH   6  52
BRANCH  19  55
HETATM   55  O   UNK N   1      27.807  11.255   0.789  0.00  0.00    -0.359 OA
HETATM   56  H   UNK N   1      28.398  11.553   0.081  0.00  0.00     0.213 HD
ENDBRANCH  19  55
BRANCH  16  57
HETATM   57  O   UNK N   1      30.840   8.545   1.818  0.00  0.00    -0.388 OA
HETATM   58  C   UNK N   1      30.861   8.306   0.444  0.00  0.00     0.202 C 
ENDBRANCH  16  57
BRANCH  14  59
HETATM   59  O   UNK N   1      30.831  11.587   3.953  0.00  0.00    -0.388 OA
HETATM   60  C   UNK N   1      32.141  11.110   3.972  0.00  0.00     0.202 C 
ENDBRANCH  14  59
TORSDOF 10
ENDMDL
