MODEL 1
REMARK VINA RESULT:      -4.9      0.000      0.000
REMARK  3 active torsions:
REMARK  status: ('A' for Active; 'I' for Inactive)
REMARK    1  A    between atoms: C_4  and  C_7 
REMARK    2  A    between atoms: C_5  and  N_10 
REMARK       I    between atoms: C_7  and  N_9 
REMARK    3  A    between atoms: N_12  and  N_14 
ROOT
HETATM    1  C   UNK N   1      30.272  17.115   8.015  0.00  0.00     0.182 A 
HETATM    2  N   UNK N   1      31.006  17.456   6.928  0.00  0.00    -0.345 N 
ATOM      3  HN  UNK N   1      30.660  17.758   6.017  1.00  0.00     0.167 HD
HETATM    4  C   UNK N   1      32.287  17.310   7.307  0.00  0.00     0.147 A 
HETATM    5  C   UNK N   1      32.311  16.886   8.608  0.00  0.00     0.155 A 
HETATM    6  N   UNK N   1      31.053  16.760   9.063  0.00  0.00    -0.335 N 
HETATM    7  H   UNK N   1      30.763  16.473   9.960  0.00  0.00     0.168 HD
ENDROOT
BRANCH   5   8
HETATM    8  N   UNK N   1      33.477  16.621   9.360  0.00  0.00    -0.269 N 
HETATM    9  N   UNK N   1      33.526  15.689  10.184  0.00  0.00    -0.244 N 
ATOM     10  HN  UNK N   1      32.707  15.097  10.327  1.00  0.00     0.208 HD
ATOM     11  HN  UNK N   1      34.301  17.208   9.224  1.00  0.00     0.190 HD
BRANCH   9  12
HETATM   12  N   UNK N   1      34.675  15.452  10.905  0.00  0.00    -0.322 N 
HETATM   13  C   UNK N   1      35.733  16.432  10.966  0.00  0.00     0.172 C 
HETATM   14  C   UNK N   1      34.829  14.210  11.609  0.00  0.00     0.172 C 
ENDBRANCH   9  12
ENDBRANCH   5   8
BRANCH   4  15
HETATM   15  C   UNK N   1      33.452  17.572   6.442  0.00  0.00     0.269 C 
HETATM   16  O   UNK N   1      34.492  17.997   6.922  0.00  0.00    -0.266 OA
HETATM   17  N   UNK N   1      33.376  17.343   5.117  0.00  0.00    -0.365 N 
HETATM   18  H   UNK N   1      34.155  17.519   4.541  0.00  0.00     0.159 HD
HETATM   19  H   UNK N   1      32.541  17.001   4.724  0.00  0.00     0.159 HD
ENDBRANCH   4  15
TORSDOF 3
ENDMDL
MODEL 2
REMARK VINA RESULT:      -4.8      4.689      6.395
REMARK  3 active torsions:
REMARK  status: ('A' for Active; 'I' for Inactive)
REMARK    1  A    between atoms: C_4  and  C_7 
REMARK    2  A    between atoms: C_5  and  N_10 
REMARK       I    between atoms: C_7  and  N_9 
REMARK    3  A    between atoms: N_12  and  N_14 
ROOT
HETATM    1  C   UNK N   1      38.043  13.591   9.587  0.00  0.00     0.182 A 
HETATM    2  N   UNK N   1      36.710  13.762   9.411  0.00  0.00    -0.345 N 
ATOM      3  HN  UNK N   1      36.212  13.882   8.529  1.00  0.00     0.167 HD
HETATM    4  C   UNK N   1      36.186  13.741  10.648  0.00  0.00     0.147 A 
HETATM    5  C   UNK N   1      37.199  13.559  11.549  0.00  0.00     0.155 A 
HETATM    6  N   UNK N   1      38.370  13.464  10.895  0.00  0.00    -0.335 N 
HETATM    7  H   UNK N   1      39.266  13.331  11.282  0.00  0.00     0.168 HD
ENDROOT
BRANCH   5   8
HETATM    8  N   UNK N   1      37.044  13.483  12.951  0.00  0.00    -0.269 N 
HETATM    9  N   UNK N   1      36.886  14.503  13.648  0.00  0.00    -0.244 N 
ATOM     10  HN  UNK N   1      36.868  15.422  13.203  1.00  0.00     0.208 HD
ATOM     11  HN  UNK N   1      37.060  12.570  13.405  1.00  0.00     0.190 HD
BRANCH   9  12
HETATM   12  N   UNK N   1      36.736  14.402  15.013  0.00  0.00    -0.322 N 
HETATM   13  C   UNK N   1      35.987  13.320  15.603  0.00  0.00     0.172 C 
HETATM   14  C   UNK N   1      37.334  15.388  15.869  0.00  0.00     0.172 C 
ENDBRANCH   9  12
ENDBRANCH   5   8
BRANCH   4  15
HETATM   15  C   UNK N   1      34.751  13.892  10.953  0.00  0.00     0.269 C 
HETATM   16  O   UNK N   1      34.394  14.374  12.018  0.00  0.00    -0.266 OA
HETATM   17  N   UNK N   1      33.824  13.500  10.058  0.00  0.00    -0.365 N 
HETATM   18  H   UNK N   1      32.867  13.601  10.263  0.00  0.00     0.159 HD
HETATM   19  H   UNK N   1      34.105  13.111   9.198  0.00  0.00     0.159 HD
ENDBRANCH   4  15
TORSDOF 3
ENDMDL
MODEL 3
REMARK VINA RESULT:      -4.8      9.780     12.141
REMARK  3 active torsions:
REMARK  status: ('A' for Active; 'I' for Inactive)
REMARK    1  A    between atoms: C_4  and  C_7 
REMARK    2  A    between atoms: C_5  and  N_10 
REMARK       I    between atoms: C_7  and  N_9 
REMARK    3  A    between atoms: N_12  and  N_14 
ROOT
HETATM    1  C   UNK N   1      22.607  11.645  12.624  0.00  0.00     0.182 A 
HETATM    2  N   UNK N   1      23.805  11.994  12.097  0.00  0.00    -0.345 N 
ATOM      3  HN  UNK N   1      24.726  11.875  12.519  1.00  0.00     0.167 HD
HETATM    4  C   UNK N   1      23.520  12.532  10.899  0.00  0.00     0.147 A 
HETATM    5  C   UNK N   1      22.164  12.501  10.719  0.00  0.00     0.155 A 
HETATM    6  N   UNK N   1      21.579  11.947  11.795  0.00  0.00    -0.335 N 
HETATM    7  H   UNK N   1      20.618  11.794  11.946  0.00  0.00     0.168 HD
ENDROOT
BRANCH   5   8
HETATM    8  N   UNK N   1      21.479  12.978   9.578  0.00  0.00    -0.269 N 
HETATM    9  N   UNK N   1      21.319  14.196   9.373  0.00  0.00    -0.244 N 
ATOM     10  HN  UNK N   1      21.689  14.873  10.041  1.00  0.00     0.208 HD
ATOM     11  HN  UNK N   1      21.107  12.308   8.906  1.00  0.00     0.190 HD
BRANCH   9  12
HETATM   12  N   UNK N   1      20.649  14.635   8.254  0.00  0.00    -0.322 N 
HETATM   13  C   UNK N   1      19.881  15.857   8.276  0.00  0.00     0.172 C 
HETATM   14  C   UNK N   1      20.710  13.868   7.041  0.00  0.00     0.172 C 
ENDBRANCH   9  12
ENDBRANCH   5   8
BRANCH   4  15
HETATM   15  C   UNK N   1      24.523  13.060   9.956  0.00  0.00     0.269 C 
HETATM   16  O   UNK N   1      24.301  13.058   8.755  0.00  0.00    -0.266 OA
HETATM   17  N   UNK N   1      25.692  13.546  10.415  0.00  0.00    -0.365 N 
HETATM   18  H   UNK N   1      26.361  13.898   9.784  0.00  0.00     0.159 HD
HETATM   19  H   UNK N   1      25.878  13.550  11.382  0.00  0.00     0.159 HD
ENDBRANCH   4  15
TORSDOF 3
ENDMDL
MODEL 4
REMARK VINA RESULT:      -4.8     12.967     14.568
REMARK  3 active torsions:
REMARK  status: ('A' for Active; 'I' for Inactive)
REMARK    1  A    between atoms: C_4  and  C_7 
REMARK    2  A    between atoms: C_5  and  N_10 
REMARK       I    between atoms: C_7  and  N_9 
REMARK    3  A    between atoms: N_12  and  N_14 
ROOT
HETATM    1  C   UNK N   1      44.413  21.639   4.174  0.00  0.00     0.182 A 
HETATM    2  N   UNK N   1      45.291  22.551   3.692  0.00  0.00    -0.345 N 
ATOM      3  HN  UNK N   1      46.289  22.614   3.889  1.00  0.00     0.167 HD
HETATM    4  C   UNK N   1      44.563  23.357   2.900  0.00  0.00     0.147 A 
HETATM    5  C   UNK N   1      43.265  22.924   2.913  0.00  0.00     0.155 A 
HETATM    6  N   UNK N   1      43.158  21.846   3.709  0.00  0.00    -0.335 N 
HETATM    7  H   UNK N   1      42.347  21.324   3.909  0.00  0.00     0.168 HD
ENDROOT
BRANCH   5   8
HETATM    8  N   UNK N   1      42.199  23.516   2.200  0.00  0.00    -0.269 N 
HETATM    9  N   UNK N   1      41.959  23.218   1.014  0.00  0.00    -0.244 N 
ATOM     10  HN  UNK N   1      42.544  22.530   0.538  1.00  0.00     0.208 HD
ATOM     11  HN  UNK N   1      41.610  24.205   2.667  1.00  0.00     0.190 HD
BRANCH   9  12
HETATM   12  N   UNK N   1      40.914  23.810   0.341  0.00  0.00    -0.322 N 
HETATM   13  C   UNK N   1      40.596  25.204   0.535  0.00  0.00     0.172 C 
HETATM   14  C   UNK N   1      40.124  23.032  -0.570  0.00  0.00     0.172 C 
ENDBRANCH   9  12
ENDBRANCH   5   8
BRANCH   4  15
HETATM   15  C   UNK N   1      45.102  24.508   2.153  0.00  0.00     0.269 C 
HETATM   16  O   UNK N   1      44.409  25.087   1.330  0.00  0.00    -0.266 OA
HETATM   17  N   UNK N   1      46.363  24.927   2.373  0.00  0.00    -0.365 N 
HETATM   18  H   UNK N   1      46.721  25.696   1.874  0.00  0.00     0.159 HD
HETATM   19  H   UNK N   1      46.926  24.465   3.035  0.00  0.00     0.159 HD
ENDBRANCH   4  15
TORSDOF 3
ENDMDL
MODEL 5
REMARK VINA RESULT:      -4.8     13.793     15.353
REMARK  3 active torsions:
REMARK  status: ('A' for Active; 'I' for Inactive)
REMARK    1  A    between atoms: C_4  and  C_7 
REMARK    2  A    between atoms: C_5  and  N_10 
REMARK       I    between atoms: C_7  and  N_9 
REMARK    3  A    between atoms: N_12  and  N_14 
ROOT
HETATM    1  C   UNK N   1      18.255  15.001  -0.172  0.00  0.00     0.182 A 
HETATM    2  N   UNK N   1      19.328  14.409   0.404  0.00  0.00    -0.345 N 
ATOM      3  HN  UNK N   1      19.497  13.409   0.519  1.00  0.00     0.167 HD
HETATM    4  C   UNK N   1      20.124  15.420   0.792  0.00  0.00     0.147 A 
HETATM    5  C   UNK N   1      19.526  16.602   0.447  0.00  0.00     0.155 A 
HETATM    6  N   UNK N   1      18.353  16.353  -0.159  0.00  0.00    -0.335 N 
HETATM    7  H   UNK N   1      17.708  17.007  -0.513  0.00  0.00     0.168 HD
ENDROOT
BRANCH   5   8
HETATM    8  N   UNK N   1      20.059  17.888   0.689  0.00  0.00    -0.269 N 
HETATM    9  N   UNK N   1      19.877  18.478   1.771  0.00  0.00    -0.244 N 
ATOM     10  HN  UNK N   1      19.331  18.028   2.507  1.00  0.00     0.208 HD
ATOM     11  HN  UNK N   1      20.605  18.346  -0.040  1.00  0.00     0.190 HD
BRANCH   9  12
HETATM   12  N   UNK N   1      20.406  19.731   1.982  0.00  0.00    -0.322 N 
HETATM   13  C   UNK N   1      20.513  20.281   3.312  0.00  0.00     0.172 C 
HETATM   14  C   UNK N   1      20.861  20.509   0.865  0.00  0.00     0.172 C 
ENDBRANCH   9  12
ENDBRANCH   5   8
BRANCH   4  15
HETATM   15  C   UNK N   1      21.421  15.253   1.473  0.00  0.00     0.269 C 
HETATM   16  O   UNK N   1      21.680  15.904   2.474  0.00  0.00    -0.266 OA
HETATM   17  N   UNK N   1      22.329  14.380   0.996  0.00  0.00    -0.365 N 
HETATM   18  H   UNK N   1      23.194  14.269   1.452  0.00  0.00     0.159 HD
HETATM   19  H   UNK N   1      22.126  13.852   0.190  0.00  0.00     0.159 HD
ENDBRANCH   4  15
TORSDOF 3
ENDMDL
MODEL 6
REMARK VINA RESULT:      -4.7      1.813      4.412
REMARK  3 active torsions:
REMARK  status: ('A' for Active; 'I' for Inactive)
REMARK    1  A    between atoms: C_4  and  C_7 
REMARK    2  A    between atoms: C_5  and  N_10 
REMARK       I    between atoms: C_7  and  N_9 
REMARK    3  A    between atoms: N_12  and  N_14 
ROOT
HETATM    1  C   UNK N   1      34.389  15.125  10.431  0.00  0.00     0.182 A 
HETATM    2  N   UNK N   1      35.095  16.077   9.776  0.00  0.00    -0.345 N 
ATOM      3  HN  UNK N   1      36.093  16.272   9.856  1.00  0.00     0.167 HD
HETATM    4  C   UNK N   1      34.199  16.711   9.001  0.00  0.00     0.147 A 
HETATM    5  C   UNK N   1      32.972  16.137   9.195  0.00  0.00     0.155 A 
HETATM    6  N   UNK N   1      33.077  15.140  10.090  0.00  0.00    -0.335 N 
HETATM    7  H   UNK N   1      32.361  14.553  10.424  0.00  0.00     0.168 HD
ENDROOT
BRANCH   5   8
HETATM    8  N   UNK N   1      31.775  16.530   8.554  0.00  0.00    -0.269 N 
HETATM    9  N   UNK N   1      31.002  17.361   9.065  0.00  0.00    -0.244 N 
ATOM     10  HN  UNK N   1      31.231  17.775   9.970  1.00  0.00     0.208 HD
ATOM     11  HN  UNK N   1      31.539  16.122   7.649  1.00  0.00     0.190 HD
BRANCH   9  12
HETATM   12  N   UNK N   1      29.842  17.727   8.421  0.00  0.00    -0.322 N 
HETATM   13  C   UNK N   1      28.788  18.424   9.119  0.00  0.00     0.172 C 
HETATM   14  C   UNK N   1      29.672  17.414   7.030  0.00  0.00     0.172 C 
ENDBRANCH   9  12
ENDBRANCH   5   8
BRANCH   4  15
HETATM   15  C   UNK N   1      34.515  17.834   8.100  0.00  0.00     0.269 C 
HETATM   16  O   UNK N   1      34.345  17.725   6.895  0.00  0.00    -0.266 OA
HETATM   17  N   UNK N   1      34.995  18.989   8.601  0.00  0.00    -0.365 N 
HETATM   18  H   UNK N   1      35.206  19.738   7.998  0.00  0.00     0.159 HD
HETATM   19  H   UNK N   1      35.135  19.084   9.571  0.00  0.00     0.159 HD
ENDBRANCH   4  15
TORSDOF 3
ENDMDL
MODEL 7
REMARK VINA RESULT:      -4.7     10.946     12.935
REMARK  3 active torsions:
REMARK  status: ('A' for Active; 'I' for Inactive)
REMARK    1  A    between atoms: C_4  and  C_7 
REMARK    2  A    between atoms: C_5  and  N_10 
REMARK       I    between atoms: C_7  and  N_9 
REMARK    3  A    between atoms: N_12  and  N_14 
ROOT
HETATM    1  C   UNK N   1      24.102  12.012  11.434  0.00  0.00     0.182 A 
HETATM    2  N   UNK N   1      22.860  11.684  11.863  0.00  0.00    -0.345 N 
ATOM      3  HN  UNK N   1      22.614  11.042  12.616  1.00  0.00     0.167 HD
HETATM    4  C   UNK N   1      22.020  12.386  11.084  0.00  0.00     0.147 A 
HETATM    5  C   UNK N   1      22.760  13.124  10.200  0.00  0.00     0.155 A 
HETATM    6  N   UNK N   1      24.068  12.898  10.410  0.00  0.00    -0.335 N 
HETATM    7  H   UNK N   1      24.832  13.290   9.927  0.00  0.00     0.168 HD
ENDROOT
BRANCH   5   8
HETATM    8  N   UNK N   1      22.233  13.992   9.217  0.00  0.00    -0.269 N 
HETATM    9  N   UNK N   1      21.852  13.570   8.109  0.00  0.00    -0.244 N 
ATOM     10  HN  UNK N   1      21.919  12.574   7.898  1.00  0.00     0.208 HD
ATOM     11  HN  UNK N   1      22.163  14.989   9.420  1.00  0.00     0.190 HD
BRANCH   9  12
HETATM   12  N   UNK N   1      21.343  14.436   7.168  0.00  0.00    -0.322 N 
HETATM   13  C   UNK N   1      20.744  13.945   5.950  0.00  0.00     0.172 C 
HETATM   14  C   UNK N   1      21.405  15.852   7.396  0.00  0.00     0.172 C 
ENDBRANCH   9  12
ENDBRANCH   5   8
BRANCH   4  15
HETATM   15  C   UNK N   1      20.550  12.347  11.187  0.00  0.00     0.269 C 
HETATM   16  O   UNK N   1      19.860  12.980  10.401  0.00  0.00    -0.266 OA
HETATM   17  N   UNK N   1      19.958  11.613  12.148  0.00  0.00    -0.365 N 
HETATM   18  H   UNK N   1      18.976  11.589  12.215  0.00  0.00     0.159 HD
HETATM   19  H   UNK N   1      20.508  11.101  12.784  0.00  0.00     0.159 HD
ENDBRANCH   4  15
TORSDOF 3
ENDMDL
MODEL 8
REMARK VINA RESULT:      -4.7     11.605     13.884
REMARK  3 active torsions:
REMARK  status: ('A' for Active; 'I' for Inactive)
REMARK    1  A    between atoms: C_4  and  C_7 
REMARK    2  A    between atoms: C_5  and  N_10 
REMARK       I    between atoms: C_7  and  N_9 
REMARK    3  A    between atoms: N_12  and  N_14 
ROOT
HETATM    1  C   UNK N   1      41.872  20.340   3.286  0.00  0.00     0.182 A 
HETATM    2  N   UNK N   1      43.090  20.780   3.683  0.00  0.00    -0.345 N 
ATOM      3  HN  UNK N   1      43.792  20.265   4.214  1.00  0.00     0.167 HD
HETATM    4  C   UNK N   1      43.176  22.042   3.228  0.00  0.00     0.147 A 
HETATM    5  C   UNK N   1      42.017  22.346   2.566  0.00  0.00     0.155 A 
HETATM    6  N   UNK N   1      41.191  21.286   2.596  0.00  0.00    -0.335 N 
HETATM    7  H   UNK N   1      40.291  21.214   2.203  0.00  0.00     0.168 HD
ENDROOT
BRANCH   5   8
HETATM    8  N   UNK N   1      41.730  23.583   1.946  0.00  0.00    -0.269 N 
HETATM    9  N   UNK N   1      41.994  23.789   0.747  0.00  0.00    -0.244 N 
ATOM     10  HN  UNK N   1      42.428  23.052   0.190  1.00  0.00     0.208 HD
ATOM     11  HN  UNK N   1      41.296  24.325   2.495  1.00  0.00     0.190 HD
BRANCH   9  12
HETATM   12  N   UNK N   1      41.704  25.003   0.166  0.00  0.00    -0.322 N 
HETATM   13  C   UNK N   1      42.698  25.722  -0.594  0.00  0.00     0.172 C 
HETATM   14  C   UNK N   1      40.393  25.569   0.315  0.00  0.00     0.172 C 
ENDBRANCH   9  12
ENDBRANCH   5   8
BRANCH   4  15
HETATM   15  C   UNK N   1      44.338  22.927   3.424  0.00  0.00     0.269 C 
HETATM   16  O   UNK N   1      44.292  24.094   3.065  0.00  0.00    -0.266 OA
HETATM   17  N   UNK N   1      45.460  22.454   4.001  0.00  0.00    -0.365 N 
HETATM   18  H   UNK N   1      46.235  23.046   4.131  0.00  0.00     0.159 HD
HETATM   19  H   UNK N   1      45.504  21.514   4.293  0.00  0.00     0.159 HD
ENDBRANCH   4  15
TORSDOF 3
ENDMDL
MODEL 9
REMARK VINA RESULT:      -4.6      2.294      4.849
REMARK  3 active torsions:
REMARK  status: ('A' for Active; 'I' for Inactive)
REMARK    1  A    between atoms: C_4  and  C_7 
REMARK    2  A    between atoms: C_5  and  N_10 
REMARK       I    between atoms: C_7  and  N_9 
REMARK    3  A    between atoms: N_12  and  N_14 
ROOT
HETATM    1  C   UNK N   1      35.276  16.053  10.186  0.00  0.00     0.182 A 
HETATM    2  N   UNK N   1      34.801  14.842   9.808  0.00  0.00    -0.345 N 
ATOM      3  HN  UNK N   1      35.245  13.934   9.941  1.00  0.00     0.167 HD
HETATM    4  C   UNK N   1      33.618  15.095   9.221  0.00  0.00     0.147 A 
HETATM    5  C   UNK N   1      33.396  16.444   9.251  0.00  0.00     0.155 A 
HETATM    6  N   UNK N   1      34.429  17.057   9.854  0.00  0.00    -0.335 N 
HETATM    7  H   UNK N   1      34.544  18.021  10.018  0.00  0.00     0.168 HD
ENDROOT
BRANCH   5   8
HETATM    8  N   UNK N   1      32.256  17.097   8.730  0.00  0.00    -0.269 N 
HETATM    9  N   UNK N   1      31.135  16.978   9.259  0.00  0.00    -0.244 N 
ATOM     10  HN  UNK N   1      31.028  16.396  10.090  1.00  0.00     0.208 HD
ATOM     11  HN  UNK N   1      32.354  17.681   7.899  1.00  0.00     0.190 HD
BRANCH   9  12
HETATM   12  N   UNK N   1      30.040  17.624   8.731  0.00  0.00    -0.322 N 
HETATM   13  C   UNK N   1      29.653  17.432   7.354  0.00  0.00     0.172 C 
HETATM   14  C   UNK N   1      29.267  18.506   9.559  0.00  0.00     0.172 C 
ENDBRANCH   9  12
ENDBRANCH   5   8
BRANCH   4  15
HETATM   15  C   UNK N   1      32.730  14.066   8.649  0.00  0.00     0.269 C 
HETATM   16  O   UNK N   1      32.030  14.326   7.681  0.00  0.00    -0.266 OA
HETATM   17  N   UNK N   1      32.685  12.834   9.189  0.00  0.00    -0.365 N 
HETATM   18  H   UNK N   1      32.092  12.149   8.806  0.00  0.00     0.159 HD
HETATM   19  H   UNK N   1      33.247  12.618   9.969  0.00  0.00     0.159 HD
ENDBRANCH   4  15
TORSDOF 3
ENDMDL
