REMARK  5 active torsions:
REMARK  status: ('A' for Active; 'I' for Inactive)
REMARK    1  A    between atoms: C_4  and  C_5 
REMARK    2  A    between atoms: S_11  and  C_5 
REMARK    3  A    between atoms: C_8  and  O_9 
REMARK    4  A    between atoms: S_11  and  C_12 
REMARK    5  A    between atoms: C_21  and  O_22 
ROOT
HETATM    1  O   UNK N   1      -0.200   1.798   0.180  0.00  0.00    -0.249 OA
HETATM    2  S   UNK N   1      -0.335   0.408   0.819  0.00  0.00     0.090 S 
ENDROOT
BRANCH   2   3
HETATM    3  C   UNK N   1       1.351  -0.077   0.451  0.00  0.00     0.176 A 
HETATM    4  N   UNK N   1       2.368   0.807   0.282  0.00  0.00    -0.333 N 
HETATM    5  C   UNK N   1       3.441   0.028   0.107  0.00  0.00     0.061 A 
HETATM    6  H   UNK N   1       2.325   1.791   0.288  0.00  0.00     0.168 HD
HETATM    7  C   UNK N   1       4.760   0.422  -0.080  0.00  0.00     0.035 A 
HETATM    8  C   UNK N   1       3.077  -1.281   0.170  0.00  0.00     0.063 A 
HETATM    9  C   UNK N   1       5.728  -0.592  -0.189  0.00  0.00     0.039 A 
HETATM   10  C   UNK N   1       5.356  -1.965  -0.113  0.00  0.00     0.070 A 
HETATM   11  C   UNK N   1       4.000  -2.314   0.060  0.00  0.00     0.068 A 
HETATM   12  N   UNK N   1       1.756  -1.371   0.387  0.00  0.00    -0.333 N 
ATOM     13  HN  UNK N   1       1.190  -2.214   0.483  1.00  0.00     0.168 HD
BRANCH  10  14
HETATM   14  O   UNK N   1       6.282  -2.950  -0.178  0.00  0.00    -0.356 OA
HETATM   15  C   UNK N   1       7.636  -2.706  -0.228  0.00  0.00     0.210 C 
ENDBRANCH  10  14
ENDBRANCH   2   3
BRANCH   2  16
HETATM   16  C   UNK N   1      -0.949  -0.313  -0.725  0.00  0.00     0.175 C 
BRANCH  16  17
HETATM   17  C   UNK N   1      -2.315  -0.851  -0.483  0.00  0.00     0.029 A 
HETATM   18  C   UNK N   1      -2.533  -2.233  -0.359  0.00  0.00    -0.005 A 
HETATM   19  C   UNK N   1      -3.828  -2.715  -0.104  0.00  0.00     0.083 A 
HETATM   20  C   UNK N   1      -1.389  -3.193  -0.483  0.00  0.00     0.053 C 
HETATM   21  C   UNK N   1      -4.890  -1.774   0.020  0.00  0.00    -0.013 A 
HETATM   22  C   UNK N   1      -4.615  -0.414  -0.116  0.00  0.00     0.097 A 
HETATM   23  C   UNK N   1      -6.303  -2.159   0.296  0.00  0.00     0.052 C 
HETATM   24  N   UNK N   1      -3.352   0.016  -0.358  0.00  0.00    -0.367 N 
ATOM     25  HN  UNK N   1      -3.177   1.017  -0.449  1.00  0.00     0.165 HD
BRANCH  19  26
HETATM   26  O   UNK N   1      -3.991  -4.063   0.015  0.00  0.00    -0.355 OA
HETATM   27  C   UNK N   1      -5.173  -4.730   0.236  0.00  0.00     0.210 C 
ENDBRANCH  19  26
ENDBRANCH  16  17
ENDBRANCH   2  16
TORSDOF 5
