REMARK  21 active torsions:
REMARK  status: ('A' for Active; 'I' for Inactive)
REMARK    1  A    between atoms: C_41  and  C_2 
REMARK    2  A    between atoms: C_12  and  C_24 
REMARK    3  A    between atoms: C_13  and  C_15 
REMARK    4  A    between atoms: C_14  and  N_17 
REMARK       I    between atoms: N_21  and  C_15 
REMARK    5  A    between atoms: C_16  and  C_24 
REMARK       I    between atoms: C_19  and  N_17 
REMARK    6  A    between atoms: C_18  and  C_37 
REMARK    7  A    between atoms: C_30  and  C_19 
REMARK    8  A    between atoms: C_26  and  N_21 
REMARK    9  A    between atoms: C_23  and  C_53 
REMARK   10  A    between atoms: C_43  and  C_26 
REMARK   11  A    between atoms: C_26  and  C_50 
REMARK   12  A    between atoms: C_30  and  C_42 
REMARK   13  A    between atoms: N_44  and  C_30 
REMARK   14  A    between atoms: C_45  and  C_37 
REMARK   15  A    between atoms: C_41  and  O_48 
REMARK   16  A    between atoms: C_46  and  C_42 
REMARK   17  A    between atoms: N_47  and  C_55 
REMARK   18  A    between atoms: O_51  and  C_50 
REMARK   19  A    between atoms: C_62  and  C_53 
REMARK   20  A    between atoms: C_55  and  C_63 
REMARK   21  A    between atoms: C_63  and  C_62 
ROOT
HETATM    1  C   UNK N   1       2.607  -7.385  -0.524  0.00  0.00     0.139 C 
HETATM    2  O   UNK N   1       2.432  -7.514   0.854  0.00  0.00    -0.394 OA
HETATM    3  C   UNK N   1       4.013  -6.912  -0.839  0.00  0.00     0.041 C 
HETATM    4  H   UNK N   1       2.294  -7.453   1.813  0.00  0.00     0.210 HD
ENDROOT
BRANCH   1   5
HETATM    5  C   UNK N   1       1.539  -6.489  -1.172  0.00  0.00     0.136 C 
BRANCH   5   6
HETATM    6  N   UNK N   1       1.751  -5.047  -1.122  0.00  0.00    -0.350 N 
HETATM    7  C   UNK N   1       2.061  -4.311  -0.020  0.00  0.00     0.241 C 
HETATM    8  O   UNK N   1       2.292  -4.854   1.049  0.00  0.00    -0.271 OA
HETATM    9  H   UNK N   1       1.661  -4.557  -1.971  0.00  0.00     0.163 HD
BRANCH   7  10
HETATM   10  C   UNK N   1       2.017  -2.796  -0.110  0.00  0.00     0.186 C 
HETATM   11  N   UNK N   1       2.166  -2.191   1.201  0.00  0.00    -0.345 N 
HETATM   12  C   UNK N   1       3.047  -1.219   1.552  0.00  0.00     0.243 C 
HETATM   13  H   UNK N   1       1.566  -2.519   1.909  0.00  0.00     0.163 HD
HETATM   14  C   UNK N   1       4.113  -0.685   0.619  0.00  0.00     0.205 C 
HETATM   15  O   UNK N   1       2.962  -0.740   2.671  0.00  0.00    -0.271 OA
HETATM   16  N   UNK N   1       3.515  -0.144  -0.590  0.00  0.00    -0.344 N 
HETATM   17  C   UNK N   1       2.868   1.053  -0.631  0.00  0.00     0.241 C 
HETATM   18  H   UNK N   1       3.581  -0.669  -1.420  0.00  0.00     0.163 HD
HETATM   19  C   UNK N   1       2.885   1.988   0.561  0.00  0.00     0.176 C 
HETATM   20  O   UNK N   1       2.357   1.414  -1.678  0.00  0.00    -0.271 OA
HETATM   21  N   UNK N   1       1.667   2.138   1.336  0.00  0.00    -0.346 N 
HETATM   22  C   UNK N   1       0.444   2.555   0.919  0.00  0.00     0.241 C 
HETATM   23  H   UNK N   1       1.737   1.908   2.291  0.00  0.00     0.163 HD
HETATM   24  C   UNK N   1       0.112   2.768  -0.537  0.00  0.00     0.181 C 
HETATM   25  O   UNK N   1      -0.412   2.766   1.761  0.00  0.00    -0.271 OA
HETATM   26  N   UNK N   1      -0.462   1.667  -1.268  0.00  0.00    -0.346 N 
HETATM   27  C   UNK N   1      -1.346   0.731  -0.845  0.00  0.00     0.241 C 
HETATM   28  H   UNK N   1      -0.172   1.582  -2.205  0.00  0.00     0.163 HD
HETATM   29  C   UNK N   1      -1.938   0.699   0.571  0.00  0.00     0.180 C 
HETATM   30  O   UNK N   1      -1.585  -0.192  -1.608  0.00  0.00    -0.271 OA
HETATM   31  N   UNK N   1      -2.457  -0.619   0.873  0.00  0.00    -0.346 N 
HETATM   32  C   UNK N   1      -3.519  -1.140   0.202  0.00  0.00     0.242 C 
HETATM   33  H   UNK N   1      -2.031  -1.152   1.583  0.00  0.00     0.163 HD
HETATM   34  O   UNK N   1      -4.059  -0.499  -0.687  0.00  0.00    -0.271 OA
HETATM   35  C   UNK N   1      -3.981  -2.532   0.474  0.00  0.00     0.186 C 
HETATM   36  C   UNK N   1      -3.095  -3.759   0.422  0.00  0.00     0.120 C 
HETATM   37  S   UNK N   1      -1.881  -3.692  -0.910  0.00  0.00    -0.095 SA
HETATM   38  S   UNK N   1      -0.587  -2.944   0.570  0.00  0.00    -0.095 SA
HETATM   39  C   UNK N   1       0.651  -2.385  -0.631  0.00  0.00     0.120 C 
BRANCH  14  40
HETATM   40  C   UNK N   1       5.183  -1.753   0.319  0.00  0.00     0.146 C 
HETATM   41  C   UNK N   1       6.411  -1.163  -0.341  0.00  0.00     0.042 C 
BRANCH  40  42
HETATM   42  O   UNK N   1       4.706  -2.792  -0.475  0.00  0.00    -0.393 OA
HETATM   43  H   UNK N   1       3.913  -2.867  -1.028  0.00  0.00     0.210 HD
ENDBRANCH  40  42
ENDBRANCH  14  40
BRANCH  19  44
HETATM   44  C   UNK N   1       3.560   3.324   0.307  0.00  0.00     0.035 C 
BRANCH  44  45
HETATM   45  C   UNK N   1       5.047   3.194   0.573  0.00  0.00     0.004 C 
BRANCH  45  46
HETATM   46  C   UNK N   1       5.798   2.905  -0.714  0.00  0.00     0.019 C 
BRANCH  46  47
HETATM   47  C   UNK N   1       6.883   1.867  -0.481  0.00  0.00     0.111 C 
BRANCH  47  48
HETATM   48  N   UNK N   1       7.843   2.331   0.506  0.00  0.00    -0.430 N 
HETATM   49  H   UNK N   1       8.462   1.909   1.199  0.00  0.00     0.149 HD
HETATM   50  H   UNK N   1       7.919   3.348   0.506  0.00  0.00     0.149 HD
ENDBRANCH  47  48
ENDBRANCH  46  47
ENDBRANCH  45  46
ENDBRANCH  44  45
ENDBRANCH  19  44
BRANCH  24  51
HETATM   51  C   UNK N   1      -0.398   4.115  -1.002  0.00  0.00     0.075 C 
BRANCH  51  52
HETATM   52  C   UNK N   1       0.759   5.035  -1.051  0.00  0.00    -0.028 A 
HETATM   53  C   UNK N   1       1.864   4.944  -1.889  0.00  0.00     0.096 A 
HETATM   54  N   UNK N   1       2.744   5.933  -1.579  0.00  0.00    -0.365 N 
HETATM   55  C   UNK N   1       2.186   6.616  -0.567  0.00  0.00     0.042 A 
HETATM   56  H   UNK N   1       3.612   6.112  -2.008  0.00  0.00     0.165 HD
HETATM   57  C   UNK N   1       0.971   6.099  -0.225  0.00  0.00    -0.002 A 
HETATM   58  C   UNK N   1       2.725   7.709   0.109  0.00  0.00     0.030 A 
HETATM   59  C   UNK N   1       0.196   6.621   0.802  0.00  0.00     0.014 A 
HETATM   60  C   UNK N   1       0.707   7.730   1.499  0.00  0.00     0.001 A 
HETATM   61  C   UNK N   1       1.969   8.268   1.156  0.00  0.00     0.002 A 
ENDBRANCH  51  52
ENDBRANCH  24  51
BRANCH  29  62
HETATM   62  C   UNK N   1      -3.048   1.689   0.981  0.00  0.00     0.073 C 
BRANCH  62  63
HETATM   63  C   UNK N   1      -3.233   3.030   0.364  0.00  0.00    -0.056 A 
HETATM   64  C   UNK N   1      -3.959   3.157  -0.825  0.00  0.00     0.007 A 
HETATM   65  C   UNK N   1      -4.300   4.428  -1.302  0.00  0.00     0.001 A 
HETATM   66  C   UNK N   1      -3.932   5.569  -0.582  0.00  0.00     0.000 A 
HETATM   67  C   UNK N   1      -3.227   5.441   0.618  0.00  0.00     0.001 A 
HETATM   68  C   UNK N   1      -2.897   4.172   1.099  0.00  0.00     0.007 A 
ENDBRANCH  62  63
ENDBRANCH  29  62
BRANCH  35  69
HETATM   69  N   UNK N   1      -5.296  -2.792   0.989  0.00  0.00    -0.345 N 
HETATM   70  C   UNK N   1      -6.441  -2.306   0.459  0.00  0.00     0.240 C 
HETATM   71  O   UNK N   1      -6.435  -1.354  -0.306  0.00  0.00    -0.271 OA
HETATM   72  H   UNK N   1      -5.369  -3.366   1.786  0.00  0.00     0.163 HD
BRANCH  70  73
HETATM   73  C   UNK N   1      -7.692  -3.092   0.675  0.00  0.00     0.171 C 
BRANCH  73  74
HETATM   74  C   UNK N   1      -7.695  -4.310  -0.271  0.00  0.00     0.072 C 
BRANCH  74  75
HETATM   75  C   UNK N   1      -6.428  -5.130  -0.300  0.00  0.00    -0.056 A 
HETATM   76  C   UNK N   1      -5.978  -5.803   0.845  0.00  0.00     0.007 A 
HETATM   77  C   UNK N   1      -4.802  -6.563   0.796  0.00  0.00     0.001 A 
HETATM   78  C   UNK N   1      -4.076  -6.659  -0.395  0.00  0.00     0.000 A 
HETATM   79  C   UNK N   1      -4.520  -5.987  -1.538  0.00  0.00     0.001 A 
HETATM   80  C   UNK N   1      -5.693  -5.224  -1.490  0.00  0.00     0.007 A 
ENDBRANCH  74  75
ENDBRANCH  73  74
BRANCH  73  81
HETATM   81  N   UNK N   1      -8.861  -2.277   0.385  0.00  0.00    -0.418 N 
HETATM   82  H   UNK N   1      -8.777  -1.281   0.181  0.00  0.00     0.150 HD
HETATM   83  H   UNK N   1      -9.784  -2.711   0.385  0.00  0.00     0.150 HD
ENDBRANCH  73  81
ENDBRANCH  70  73
ENDBRANCH  35  69
ENDBRANCH   7  10
ENDBRANCH   5   6
BRANCH   5  84
HETATM   84  C   UNK N   1       0.095  -6.886  -0.856  0.00  0.00     0.191 C 
BRANCH  84  85
HETATM   85  O   UNK N   1      -0.232  -6.604   0.471  0.00  0.00    -0.399 OA
HETATM   86  H   UNK N   1      -0.175  -6.309   1.394  0.00  0.00     0.209 HD
ENDBRANCH  84  85
ENDBRANCH   5  84
ENDBRANCH   1   5
TORSDOF 21
