REMARK  7 active torsions:
REMARK  status: ('A' for Active; 'I' for Inactive)
REMARK    1  A    between atoms: C_28  and  C_3 
REMARK    2  A    between atoms: C_7  and  O_22 
REMARK    3  A    between atoms: C_12  and  N_17 
REMARK       I    between atoms: N_18  and  C_20 
REMARK    4  A    between atoms: O_22  and  C_24 
REMARK    5  A    between atoms: C_25  and  C_24 
REMARK    6  A    between atoms: C_28  and  C_31 
REMARK    7  A    between atoms: C_31  and  N_35 
ROOT
HETATM    1  C   UNK N   1       1.551  -2.934   1.100  0.00  0.00     0.206 C 
HETATM    2  C   UNK N   1       2.316  -2.234   0.022  0.00  0.00     0.173 C 
HETATM    3  O   UNK N   1       0.284  -2.351   1.124  0.00  0.00    -0.347 OA
HETATM    4  O   UNK N   1       1.381  -1.483  -0.702  0.00  0.00    -0.340 OA
HETATM    5  C   UNK N   1       0.119  -1.790  -0.159  0.00  0.00     0.212 C 
ENDROOT
BRANCH   2   6
HETATM    6  C   UNK N   1       3.336  -1.347   0.716  0.00  0.00     0.209 C 
BRANCH   6   7
HETATM    7  O   UNK N   1       3.583  -0.187   0.018  0.00  0.00    -0.349 OA
BRANCH   7   8
HETATM    8  C   UNK N   1       4.803   0.389  -0.044  0.00  0.00     0.069 A 
HETATM    9  C   UNK N   1       5.963  -0.323   0.289  0.00  0.00     0.039 A 
HETATM   10  C   UNK N   1       7.205   0.306   0.251  0.00  0.00     0.032 A 
HETATM   11  C   UNK N   1       7.312   1.661  -0.104  0.00  0.00     0.030 A 
HETATM   12  C   UNK N   1       6.146   2.369  -0.443  0.00  0.00     0.032 A 
HETATM   13  C   UNK N   1       4.901   1.733  -0.419  0.00  0.00     0.039 A 
BRANCH  11  14
HETATM   14  N   UNK N   1       8.590   2.295  -0.128  0.00  0.00    -0.378 N 
HETATM   15  C   UNK N   1       9.775   1.520   0.222  0.00  0.00     0.143 C 
HETATM   16  C   UNK N   1      11.105   2.257   0.003  0.00  0.00     0.145 C 
HETATM   17  N   UNK N   1      11.023   3.696   0.184  0.00  0.00    -0.349 N 
HETATM   18  C   UNK N   1       9.749   4.315   0.495  0.00  0.00     0.145 C 
HETATM   19  C   UNK N   1      12.135   4.469   0.016  0.00  0.00     0.215 C 
HETATM   20  C   UNK N   1       8.701   3.712  -0.420  0.00  0.00     0.143 C 
HETATM   21  C   UNK N   1      13.456   3.849  -0.334  0.00  0.00     0.117 C 
HETATM   22  O   UNK N   1      12.074   5.680   0.149  0.00  0.00    -0.274 OA
ENDBRANCH  11  14
ENDBRANCH   7   8
ENDBRANCH   6   7
ENDBRANCH   2   6
BRANCH   5  23
HETATM   23  C   UNK N   1      -0.772  -0.552  -0.016  0.00  0.00     0.027 A 
HETATM   24  C   UNK N   1      -2.086  -0.774   0.443  0.00  0.00     0.016 A 
HETATM   25  C   UNK N   1      -2.994   0.274   0.587  0.00  0.00     0.024 A 
HETATM   26  C   UNK N   1      -2.606   1.575   0.286  0.00  0.00     0.035 A 
HETATM   27 Cl   UNK N   1      -3.745   2.893   0.456  0.00  0.00    -0.084 Cl
HETATM   28  C   UNK N   1      -1.311   1.829  -0.156  0.00  0.00     0.048 A 
HETATM   29  C   UNK N   1      -0.387   0.791  -0.315  0.00  0.00     0.047 A 
HETATM   30 Cl   UNK N   1       1.202   1.268  -0.881  0.00  0.00    -0.084 Cl
ENDBRANCH   5  23
BRANCH   5  31
HETATM   31  C   UNK N   1      -0.610  -2.774  -1.110  0.00  0.00     0.203 C 
BRANCH  31  32
HETATM   32  N   UNK N   1      -0.613  -4.150  -0.622  0.00  0.00    -0.346 N 
HETATM   33  C   UNK N   1      -1.625  -4.742   0.030  0.00  0.00     0.109 A 
HETATM   34  C   UNK N   1      -1.228  -6.029   0.332  0.00  0.00     0.106 A 
HETATM   35  N   UNK N   1       0.022  -6.217  -0.144  0.00  0.00    -0.361 N 
HETATM   36  C   UNK N   1       0.374  -5.054  -0.727  0.00  0.00     0.182 A 
ATOM     37  HN  UNK N   1       0.585  -7.065  -0.076  1.00  0.00     0.166 HD
ENDBRANCH  31  32
ENDBRANCH   5  31
TORSDOF 7
