MODEL 1
REMARK VINA RESULT:      -7.3      0.000      0.000
REMARK  7 active torsions:
REMARK  status: ('A' for Active; 'I' for Inactive)
REMARK    1  A    between atoms: C_1  and  N_19 
REMARK    2  A    between atoms: C_4  and  O_27 
REMARK    3  A    between atoms: C_12  and  O_29 
REMARK    4  A    between atoms: C_13  and  O_21 
REMARK    5  A    between atoms: C_15  and  N_20 
REMARK    6  A    between atoms: C_17  and  C_31 
REMARK    7  A    between atoms: C_18  and  O_26 
REMARK       I    between atoms: C_31  and  N_33 
ROOT
HETATM    1  C   UNK N   1      35.273   8.699  18.757  0.00  0.00     0.036 A 
HETATM    2  C   UNK N   1      35.626   8.768  20.115  0.00  0.00     0.033 A 
HETATM    3  C   UNK N   1      35.832   9.989  20.749  0.00  0.00     0.040 A 
HETATM    4  C   UNK N   1      35.723  11.182  20.042  0.00  0.00     0.080 A 
HETATM    5  C   UNK N   1      35.382  11.162  18.673  0.00  0.00     0.056 A 
HETATM    6  C   UNK N   1      35.129   9.921  18.041  0.00  0.00    -0.014 A 
HETATM    7  C   UNK N   1      34.625   9.945  16.635  0.00  0.00     0.051 C 
HETATM    8  C   UNK N   1      35.364  12.414  17.851  0.00  0.00     0.194 C 
HETATM    9  C   UNK N   1      35.497  12.284  16.364  0.00  0.00     0.030 C 
HETATM   10  C   UNK N   1      35.331  10.918  15.725  0.00  0.00     0.030 C 
HETATM   11  C   UNK N   1      34.437  11.044  14.486  0.00  0.00     0.021 C 
HETATM   12  C   UNK N   1      35.814  13.324  15.546  0.00  0.00     0.096 C 
HETATM   13  C   UNK N   1      36.016  13.035  14.053  0.00  0.00     0.177 C 
HETATM   14  C   UNK N   1      34.810  12.212  13.549  0.00  0.00     0.075 C 
HETATM   15  C   UNK N   1      35.019  11.764  12.076  0.00  0.00     0.286 C 
HETATM   16  C   UNK N   1      36.155  14.249  13.158  0.00  0.00     0.208 C 
HETATM   17  C   UNK N   1      35.842  14.142  11.689  0.00  0.00     0.112 C 
HETATM   18  C   UNK N   1      35.321  12.975  11.191  0.00  0.00     0.096 C 
HETATM   19  O   UNK N   1      35.425  13.511  18.388  0.00  0.00    -0.287 OA
HETATM   20  O   UNK N   1      36.539  15.312  13.625  0.00  0.00    -0.288 OA
ENDROOT
BRANCH  17  21
HETATM   21  C   UNK N   1      36.098  15.327  10.794  0.00  0.00     0.255 C 
HETATM   22  O   UNK N   1      36.915  15.246   9.888  0.00  0.00    -0.268 OA
HETATM   23  N   UNK N   1      35.445  16.493  10.967  0.00  0.00    -0.366 N 
HETATM   24  H   UNK N   1      35.778  17.326  10.559  0.00  0.00     0.159 HD
HETATM   25  H   UNK N   1      34.623  16.514  11.509  0.00  0.00     0.159 HD
ENDBRANCH  17  21
BRANCH  18  26
HETATM   26  O   UNK N   1      35.040  12.861   9.877  0.00  0.00    -0.362 OA
HETATM   27  H   UNK N   1      35.481  12.230   9.344  0.00  0.00     0.217 HD
ENDBRANCH  18  26
BRANCH  13  28
HETATM   28  O   UNK N   1      37.185  12.278  13.915  0.00  0.00    -0.374 OA
HETATM   29  H   UNK N   1      37.954  11.924  13.442  0.00  0.00     0.211 HD
ENDBRANCH  13  28
BRANCH  15  30
HETATM   30  N   UNK N   1      36.024  10.682  11.914  0.00  0.00     0.091 N 
HETATM   31  C   UNK N   1      37.037  11.024  10.924  0.00  0.00     0.310 C 
HETATM   32  C   UNK N   1      35.387   9.494  11.362  0.00  0.00     0.310 C 
ENDBRANCH  15  30
BRANCH  12  33
HETATM   33  O   UNK N   1      35.949  14.573  16.040  0.00  0.00    -0.361 OA
HETATM   34  H   UNK N   1      36.160  15.284  15.466  0.00  0.00     0.217 HD
ENDBRANCH  12  33
BRANCH   4  35
HETATM   35  O   UNK N   1      35.976  12.340  20.679  0.00  0.00    -0.360 OA
HETATM   36  H   UNK N   1      35.286  12.958  20.820  0.00  0.00     0.217 HD
ENDBRANCH   4  35
BRANCH   1  37
HETATM   37  N   UNK N   1      35.079   7.398  18.159  0.00  0.00    -0.389 N 
HETATM   38  C   UNK N   1      35.960   6.852  17.156  0.00  0.00     0.149 C 
HETATM   39  C   UNK N   1      34.033   6.532  18.640  0.00  0.00     0.149 C 
ENDBRANCH   1  37
TORSDOF 7
ENDMDL
MODEL 2
REMARK VINA RESULT:      -7.2      4.684     10.378
REMARK  7 active torsions:
REMARK  status: ('A' for Active; 'I' for Inactive)
REMARK    1  A    between atoms: C_1  and  N_19 
REMARK    2  A    between atoms: C_4  and  O_27 
REMARK    3  A    between atoms: C_12  and  O_29 
REMARK    4  A    between atoms: C_13  and  O_21 
REMARK    5  A    between atoms: C_15  and  N_20 
REMARK    6  A    between atoms: C_17  and  C_31 
REMARK    7  A    between atoms: C_18  and  O_26 
REMARK       I    between atoms: C_31  and  N_33 
ROOT
HETATM    1  C   UNK N   1      33.731  14.308   3.859  0.00  0.00     0.036 A 
HETATM    2  C   UNK N   1      33.070  15.231   3.032  0.00  0.00     0.033 A 
HETATM    3  C   UNK N   1      32.948  16.569   3.390  0.00  0.00     0.040 A 
HETATM    4  C   UNK N   1      33.456  17.028   4.602  0.00  0.00     0.080 A 
HETATM    5  C   UNK N   1      34.118  16.135   5.472  0.00  0.00     0.056 A 
HETATM    6  C   UNK N   1      34.280  14.783   5.085  0.00  0.00    -0.014 A 
HETATM    7  C   UNK N   1      35.114  13.904   5.956  0.00  0.00     0.051 C 
HETATM    8  C   UNK N   1      34.579  16.563   6.831  0.00  0.00     0.194 C 
HETATM    9  C   UNK N   1      34.800  15.502   7.867  0.00  0.00     0.030 C 
HETATM   10  C   UNK N   1      34.858  14.049   7.435  0.00  0.00     0.030 C 
HETATM   11  C   UNK N   1      36.040  13.361   8.127  0.00  0.00     0.021 C 
HETATM   12  C   UNK N   1      34.901  15.765   9.198  0.00  0.00     0.096 C 
HETATM   13  C   UNK N   1      35.028  14.578  10.162  0.00  0.00     0.177 C 
HETATM   14  C   UNK N   1      36.142  13.644   9.641  0.00  0.00     0.075 C 
HETATM   15  C   UNK N   1      36.228  12.348  10.494  0.00  0.00     0.286 C 
HETATM   16  C   UNK N   1      35.352  14.927  11.601  0.00  0.00     0.208 C 
HETATM   17  C   UNK N   1      35.995  13.903  12.497  0.00  0.00     0.112 C 
HETATM   18  C   UNK N   1      36.393  12.699  11.975  0.00  0.00     0.096 C 
HETATM   19  O   UNK N   1      34.596  17.746   7.138  0.00  0.00    -0.287 OA
HETATM   20  O   UNK N   1      35.072  16.033  12.038  0.00  0.00    -0.288 OA
ENDROOT
BRANCH  17  21
HETATM   21  C   UNK N   1      36.202  14.228  13.955  0.00  0.00     0.255 C 
HETATM   22  O   UNK N   1      35.642  13.565  14.815  0.00  0.00    -0.268 OA
HETATM   23  N   UNK N   1      36.997  15.245  14.342  0.00  0.00    -0.366 N 
HETATM   24  H   UNK N   1      36.940  15.612  15.255  0.00  0.00     0.159 HD
HETATM   25  H   UNK N   1      37.643  15.627  13.705  0.00  0.00     0.159 HD
ENDBRANCH  17  21
BRANCH  18  26
HETATM   26  O   UNK N   1      36.967  11.769  12.765  0.00  0.00    -0.362 OA
HETATM   27  H   UNK N   1      36.829  10.856  12.611  0.00  0.00     0.217 HD
ENDBRANCH  18  26
BRANCH  13  28
HETATM   28  O   UNK N   1      33.809  13.890  10.163  0.00  0.00    -0.374 OA
HETATM   29  H   UNK N   1      32.843  13.811  10.188  0.00  0.00     0.211 HD
ENDBRANCH  13  28
BRANCH  15  30
HETATM   30  N   UNK N   1      35.108  11.400  10.260  0.00  0.00     0.091 N 
HETATM   31  C   UNK N   1      34.510  10.946  11.509  0.00  0.00     0.310 C 
HETATM   32  C   UNK N   1      35.615  10.177   9.654  0.00  0.00     0.310 C 
ENDBRANCH  15  30
BRANCH  12  33
HETATM   33  O   UNK N   1      34.888  17.035   9.653  0.00  0.00    -0.361 OA
HETATM   34  H   UNK N   1      34.587  17.219  10.522  0.00  0.00     0.217 HD
ENDBRANCH  12  33
BRANCH   4  35
HETATM   35  O   UNK N   1      33.276  18.318   4.935  0.00  0.00    -0.360 OA
HETATM   36  H   UNK N   1      33.888  18.745   5.502  0.00  0.00     0.217 HD
ENDBRANCH   4  35
BRANCH   1  37
HETATM   37  N   UNK N   1      33.817  12.932   3.429  0.00  0.00    -0.389 N 
HETATM   38  C   UNK N   1      32.842  11.932   3.785  0.00  0.00     0.149 C 
HETATM   39  C   UNK N   1      34.851  12.527   2.511  0.00  0.00     0.149 C 
ENDBRANCH   1  37
TORSDOF 7
ENDMDL
MODEL 3
REMARK VINA RESULT:      -7.0      5.324     10.589
REMARK  7 active torsions:
REMARK  status: ('A' for Active; 'I' for Inactive)
REMARK    1  A    between atoms: C_1  and  N_19 
REMARK    2  A    between atoms: C_4  and  O_27 
REMARK    3  A    between atoms: C_12  and  O_29 
REMARK    4  A    between atoms: C_13  and  O_21 
REMARK    5  A    between atoms: C_15  and  N_20 
REMARK    6  A    between atoms: C_17  and  C_31 
REMARK    7  A    between atoms: C_18  and  O_26 
REMARK       I    between atoms: C_31  and  N_33 
ROOT
HETATM    1  C   UNK N   1      31.066  16.331   4.677  0.00  0.00     0.036 A 
HETATM    2  C   UNK N   1      29.700  16.639   4.575  0.00  0.00     0.033 A 
HETATM    3  C   UNK N   1      28.926  16.890   5.704  0.00  0.00     0.040 A 
HETATM    4  C   UNK N   1      29.484  16.815   6.976  0.00  0.00     0.080 A 
HETATM    5  C   UNK N   1      30.850  16.498   7.130  0.00  0.00     0.056 A 
HETATM    6  C   UNK N   1      31.646  16.286   5.978  0.00  0.00    -0.014 A 
HETATM    7  C   UNK N   1      33.115  16.102   6.170  0.00  0.00     0.051 C 
HETATM    8  C   UNK N   1      31.461  16.298   8.483  0.00  0.00     0.194 C 
HETATM    9  C   UNK N   1      32.724  15.495   8.575  0.00  0.00     0.030 C 
HETATM   10  C   UNK N   1      33.497  15.187   7.306  0.00  0.00     0.030 C 
HETATM   11  C   UNK N   1      34.990  15.436   7.550  0.00  0.00     0.021 C 
HETATM   12  C   UNK N   1      33.197  14.974   9.739  0.00  0.00     0.096 C 
HETATM   13  C   UNK N   1      34.448  14.088   9.680  0.00  0.00     0.177 C 
HETATM   14  C   UNK N   1      35.529  14.827   8.861  0.00  0.00     0.075 C 
HETATM   15  C   UNK N   1      36.776  13.924   8.642  0.00  0.00     0.286 C 
HETATM   16  C   UNK N   1      35.055  13.711  11.015  0.00  0.00     0.208 C 
HETATM   17  C   UNK N   1      36.505  13.313  11.099  0.00  0.00     0.112 C 
HETATM   18  C   UNK N   1      37.298  13.407   9.984  0.00  0.00     0.096 C 
HETATM   19  O   UNK N   1      30.853  16.620   9.493  0.00  0.00    -0.287 OA
HETATM   20  O   UNK N   1      34.362  13.711  12.022  0.00  0.00    -0.288 OA
ENDROOT
BRANCH  17  21
HETATM   21  C   UNK N   1      37.060  12.829  12.414  0.00  0.00     0.255 C 
HETATM   22  O   UNK N   1      37.654  11.763  12.472  0.00  0.00    -0.268 OA
HETATM   23  N   UNK N   1      36.917  13.548  13.545  0.00  0.00    -0.366 N 
HETATM   24  H   UNK N   1      37.052  13.134  14.428  0.00  0.00     0.159 HD
HETATM   25  H   UNK N   1      36.674  14.501  13.488  0.00  0.00     0.159 HD
ENDBRANCH  17  21
BRANCH  18  26
HETATM   26  O   UNK N   1      38.598  13.051  10.041  0.00  0.00    -0.362 OA
HETATM   27  H   UNK N   1      38.860  12.259  10.466  0.00  0.00     0.217 HD
ENDBRANCH  18  26
BRANCH  13  28
HETATM   28  O   UNK N   1      34.104  12.899   9.026  0.00  0.00    -0.374 OA
HETATM   29  H   UNK N   1      34.096  12.270   8.288  0.00  0.00     0.211 HD
ENDBRANCH  13  28
BRANCH  15  30
HETATM   30  N   UNK N   1      36.559  12.830   7.661  0.00  0.00     0.091 N 
HETATM   31  C   UNK N   1      36.953  11.533   8.197  0.00  0.00     0.310 C 
HETATM   32  C   UNK N   1      37.440  13.013   6.515  0.00  0.00     0.310 C 
ENDBRANCH  15  30
BRANCH  12  33
HETATM   33  O   UNK N   1      32.578  15.230  10.911  0.00  0.00    -0.361 OA
HETATM   34  H   UNK N   1      33.061  15.593  11.627  0.00  0.00     0.217 HD
ENDBRANCH  12  33
BRANCH   4  35
HETATM   35  O   UNK N   1      28.693  17.020   8.045  0.00  0.00    -0.360 OA
HETATM   36  H   UNK N   1      28.680  17.857   8.464  0.00  0.00     0.217 HD
ENDBRANCH   4  35
BRANCH   1  37
HETATM   37  N   UNK N   1      31.810  16.074   3.466  0.00  0.00    -0.389 N 
HETATM   38  C   UNK N   1      31.997  14.752   2.921  0.00  0.00     0.149 C 
HETATM   39  C   UNK N   1      32.308  17.173   2.679  0.00  0.00     0.149 C 
ENDBRANCH   1  37
TORSDOF 7
ENDMDL
MODEL 4
REMARK VINA RESULT:      -6.8      7.134     10.842
REMARK  7 active torsions:
REMARK  status: ('A' for Active; 'I' for Inactive)
REMARK    1  A    between atoms: C_1  and  N_19 
REMARK    2  A    between atoms: C_4  and  O_27 
REMARK    3  A    between atoms: C_12  and  O_29 
REMARK    4  A    between atoms: C_13  and  O_21 
REMARK    5  A    between atoms: C_15  and  N_20 
REMARK    6  A    between atoms: C_17  and  C_31 
REMARK    7  A    between atoms: C_18  and  O_26 
REMARK       I    between atoms: C_31  and  N_33 
ROOT
HETATM    1  C   UNK N   1      28.835  15.962   5.371  0.00  0.00     0.036 A 
HETATM    2  C   UNK N   1      27.716  16.732   5.727  0.00  0.00     0.033 A 
HETATM    3  C   UNK N   1      27.795  17.720   6.703  0.00  0.00     0.040 A 
HETATM    4  C   UNK N   1      28.988  17.954   7.379  0.00  0.00     0.080 A 
HETATM    5  C   UNK N   1      30.137  17.198   7.064  0.00  0.00     0.056 A 
HETATM    6  C   UNK N   1      30.066  16.224   6.040  0.00  0.00    -0.014 A 
HETATM    7  C   UNK N   1      31.333  15.550   5.629  0.00  0.00     0.051 C 
HETATM    8  C   UNK N   1      31.408  17.342   7.844  0.00  0.00     0.194 C 
HETATM    9  C   UNK N   1      32.388  16.208   7.811  0.00  0.00     0.030 C 
HETATM   10  C   UNK N   1      32.220  15.118   6.770  0.00  0.00     0.030 C 
HETATM   11  C   UNK N   1      33.581  14.807   6.137  0.00  0.00     0.021 C 
HETATM   12  C   UNK N   1      33.404  16.070   8.704  0.00  0.00     0.096 C 
HETATM   13  C   UNK N   1      34.277  14.811   8.619  0.00  0.00     0.177 C 
HETATM   14  C   UNK N   1      34.729  14.631   7.154  0.00  0.00     0.075 C 
HETATM   15  C   UNK N   1      35.501  13.294   6.969  0.00  0.00     0.286 C 
HETATM   16  C   UNK N   1      35.516  14.806   9.490  0.00  0.00     0.208 C 
HETATM   17  C   UNK N   1      36.682  13.921   9.136  0.00  0.00     0.112 C 
HETATM   18  C   UNK N   1      36.663  13.212   7.962  0.00  0.00     0.096 C 
HETATM   19  O   UNK N   1      31.556  18.270   8.626  0.00  0.00    -0.287 OA
HETATM   20  O   UNK N   1      35.562  15.506  10.491  0.00  0.00    -0.288 OA
ENDROOT
BRANCH  17  21
HETATM   21  C   UNK N   1      37.857  13.842  10.077  0.00  0.00     0.255 C 
HETATM   22  O   UNK N   1      38.981  14.107   9.677  0.00  0.00    -0.268 OA
HETATM   23  N   UNK N   1      37.702  13.479  11.366  0.00  0.00    -0.366 N 
HETATM   24  H   UNK N   1      38.474  13.189  11.906  0.00  0.00     0.159 HD
HETATM   25  H   UNK N   1      36.807  13.505  11.773  0.00  0.00     0.159 HD
ENDBRANCH  17  21
BRANCH  18  26
HETATM   26  O   UNK N   1      37.697  12.412   7.632  0.00  0.00    -0.362 OA
HETATM   27  H   UNK N   1      37.630  11.811   6.917  0.00  0.00     0.217 HD
ENDBRANCH  18  26
BRANCH  13  28
HETATM   28  O   UNK N   1      33.493  13.716   9.001  0.00  0.00    -0.374 OA
HETATM   29  H   UNK N   1      33.192  13.014   9.599  0.00  0.00     0.211 HD
ENDBRANCH  13  28
BRANCH  15  30
HETATM   30  N   UNK N   1      34.634  12.089   7.014  0.00  0.00     0.091 N 
HETATM   31  C   UNK N   1      35.131  11.097   7.959  0.00  0.00     0.310 C 
HETATM   32  C   UNK N   1      34.680  11.399   5.732  0.00  0.00     0.310 C 
ENDBRANCH  15  30
BRANCH  12  33
HETATM   33  O   UNK N   1      33.632  17.015   9.641  0.00  0.00    -0.361 OA
HETATM   34  H   UNK N   1      34.424  16.997  10.142  0.00  0.00     0.217 HD
ENDBRANCH  12  33
BRANCH   4  35
HETATM   35  O   UNK N   1      29.013  18.886   8.349  0.00  0.00    -0.360 OA
HETATM   36  H   UNK N   1      28.575  19.705   8.224  0.00  0.00     0.217 HD
ENDBRANCH   4  35
BRANCH   1  37
HETATM   37  N   UNK N   1      28.683  14.949   4.353  0.00  0.00    -0.389 N 
HETATM   38  C   UNK N   1      28.354  13.577   4.650  0.00  0.00     0.149 C 
HETATM   39  C   UNK N   1      28.745  15.310   2.960  0.00  0.00     0.149 C 
ENDBRANCH   1  37
TORSDOF 7
ENDMDL
MODEL 5
REMARK VINA RESULT:      -6.6     13.673     17.472
REMARK  7 active torsions:
REMARK  status: ('A' for Active; 'I' for Inactive)
REMARK    1  A    between atoms: C_1  and  N_19 
REMARK    2  A    between atoms: C_4  and  O_27 
REMARK    3  A    between atoms: C_12  and  O_29 
REMARK    4  A    between atoms: C_13  and  O_21 
REMARK    5  A    between atoms: C_15  and  N_20 
REMARK    6  A    between atoms: C_17  and  C_31 
REMARK    7  A    between atoms: C_18  and  O_26 
REMARK       I    between atoms: C_31  and  N_33 
ROOT
HETATM    1  C   UNK N   1      28.515  17.573   6.119  0.00  0.00     0.036 A 
HETATM    2  C   UNK N   1      29.837  17.133   5.948  0.00  0.00     0.033 A 
HETATM    3  C   UNK N   1      30.216  16.389   4.835  0.00  0.00     0.040 A 
HETATM    4  C   UNK N   1      29.281  16.035   3.867  0.00  0.00     0.080 A 
HETATM    5  C   UNK N   1      27.938  16.445   4.002  0.00  0.00     0.056 A 
HETATM    6  C   UNK N   1      27.564  17.239   5.112  0.00  0.00    -0.014 A 
HETATM    7  C   UNK N   1      26.173  17.780   5.146  0.00  0.00     0.051 C 
HETATM    8  C   UNK N   1      26.880  15.991   3.043  0.00  0.00     0.194 C 
HETATM    9  C   UNK N   1      25.452  16.027   3.499  0.00  0.00     0.030 C 
HETATM   10  C   UNK N   1      25.099  16.795   4.758  0.00  0.00     0.030 C 
HETATM   11  C   UNK N   1      23.843  17.636   4.504  0.00  0.00     0.021 C 
HETATM   12  C   UNK N   1      24.448  15.359   2.870  0.00  0.00     0.096 C 
HETATM   13  C   UNK N   1      23.048  15.399   3.497  0.00  0.00     0.177 C 
HETATM   14  C   UNK N   1      22.697  16.870   3.808  0.00  0.00     0.075 C 
HETATM   15  C   UNK N   1      21.349  16.971   4.575  0.00  0.00     0.286 C 
HETATM   16  C   UNK N   1      21.930  14.824   2.653  0.00  0.00     0.208 C 
HETATM   17  C   UNK N   1      20.507  15.252   2.895  0.00  0.00     0.112 C 
HETATM   18  C   UNK N   1      20.244  16.248   3.801  0.00  0.00     0.096 C 
HETATM   19  O   UNK N   1      27.185  15.438   1.996  0.00  0.00    -0.287 OA
HETATM   20  O   UNK N   1      22.180  13.998   1.788  0.00  0.00    -0.288 OA
ENDROOT
BRANCH  17  21
HETATM   21  C   UNK N   1      19.396  14.583   2.126  0.00  0.00     0.255 C 
HETATM   22  O   UNK N   1      18.684  13.755   2.675  0.00  0.00    -0.268 OA
HETATM   23  N   UNK N   1      19.163  14.875   0.831  0.00  0.00    -0.366 N 
HETATM   24  H   UNK N   1      18.618  14.277   0.269  0.00  0.00     0.159 HD
HETATM   25  H   UNK N   1      19.542  15.696   0.442  0.00  0.00     0.159 HD
ENDBRANCH  17  21
BRANCH  18  26
HETATM   26  O   UNK N   1      18.975  16.641   4.032  0.00  0.00    -0.362 OA
HETATM   27  H   UNK N   1      18.544  17.240   3.455  0.00  0.00     0.217 HD
ENDBRANCH  18  26
BRANCH  13  28
HETATM   28  O   UNK N   1      23.089  14.669   4.691  0.00  0.00    -0.374 OA
HETATM   29  H   UNK N   1      23.125  14.557   5.653  0.00  0.00     0.211 HD
ENDBRANCH  13  28
BRANCH  15  30
HETATM   30  N   UNK N   1      21.429  16.527   5.990  0.00  0.00     0.091 N 
HETATM   31  C   UNK N   1      20.467  15.473   6.285  0.00  0.00     0.310 C 
HETATM   32  C   UNK N   1      21.030  17.616   6.872  0.00  0.00     0.310 C 
ENDBRANCH  15  30
BRANCH  12  33
HETATM   33  O   UNK N   1      24.682  14.678   1.728  0.00  0.00    -0.361 OA
HETATM   34  H   UNK N   1      24.368  15.011   0.911  0.00  0.00     0.217 HD
ENDBRANCH  12  33
BRANCH   4  35
HETATM   35  O   UNK N   1      29.676  15.276   2.830  0.00  0.00    -0.360 OA
HETATM   36  H   UNK N   1      30.034  15.679   2.063  0.00  0.00     0.217 HD
ENDBRANCH   4  35
BRANCH   1  37
HETATM   37  N   UNK N   1      28.188  18.336   7.300  0.00  0.00    -0.389 N 
HETATM   38  C   UNK N   1      27.811  19.728   7.261  0.00  0.00     0.149 C 
HETATM   39  C   UNK N   1      28.117  17.685   8.583  0.00  0.00     0.149 C 
ENDBRANCH   1  37
TORSDOF 7
ENDMDL
MODEL 6
REMARK VINA RESULT:      -6.6      4.655      7.543
REMARK  7 active torsions:
REMARK  status: ('A' for Active; 'I' for Inactive)
REMARK    1  A    between atoms: C_1  and  N_19 
REMARK    2  A    between atoms: C_4  and  O_27 
REMARK    3  A    between atoms: C_12  and  O_29 
REMARK    4  A    between atoms: C_13  and  O_21 
REMARK    5  A    between atoms: C_15  and  N_20 
REMARK    6  A    between atoms: C_17  and  C_31 
REMARK    7  A    between atoms: C_18  and  O_26 
REMARK       I    between atoms: C_31  and  N_33 
ROOT
HETATM    1  C   UNK N   1      35.861  11.493  11.994  0.00  0.00     0.036 A 
HETATM    2  C   UNK N   1      36.609  11.822  13.136  0.00  0.00     0.033 A 
HETATM    3  C   UNK N   1      36.782  13.143  13.535  0.00  0.00     0.040 A 
HETATM    4  C   UNK N   1      36.237  14.185  12.791  0.00  0.00     0.080 A 
HETATM    5  C   UNK N   1      35.487  13.904  11.629  0.00  0.00     0.056 A 
HETATM    6  C   UNK N   1      35.276  12.557  11.249  0.00  0.00    -0.014 A 
HETATM    7  C   UNK N   1      34.355  12.291  10.105  0.00  0.00     0.051 C 
HETATM    8  C   UNK N   1      34.981  14.998  10.739  0.00  0.00     0.194 C 
HETATM    9  C   UNK N   1      34.654  14.656   9.317  0.00  0.00     0.030 C 
HETATM   10  C   UNK N   1      34.544  13.198   8.915  0.00  0.00     0.030 C 
HETATM   11  C   UNK N   1      33.295  13.003   8.048  0.00  0.00     0.021 C 
HETATM   12  C   UNK N   1      34.499  15.589   8.339  0.00  0.00     0.096 C 
HETATM   13  C   UNK N   1      34.263  15.101   6.904  0.00  0.00     0.177 C 
HETATM   14  C   UNK N   1      33.131  14.051   6.926  0.00  0.00     0.075 C 
HETATM   15  C   UNK N   1      32.937  13.411   5.524  0.00  0.00     0.286 C 
HETATM   16  C   UNK N   1      33.886  16.168   5.896  0.00  0.00     0.208 C 
HETATM   17  C   UNK N   1      33.147  15.790   4.641  0.00  0.00     0.112 C 
HETATM   18  C   UNK N   1      32.715  14.499   4.470  0.00  0.00     0.096 C 
HETATM   19  O   UNK N   1      35.009  16.163  11.109  0.00  0.00    -0.287 OA
HETATM   20  O   UNK N   1      34.199  17.332   6.094  0.00  0.00    -0.288 OA
ENDROOT
BRANCH  17  21
HETATM   21  C   UNK N   1      32.884  16.845   3.596  0.00  0.00     0.255 C 
HETATM   22  O   UNK N   1      33.282  16.686   2.452  0.00  0.00    -0.268 OA
HETATM   23  N   UNK N   1      32.213  17.976   3.893  0.00  0.00    -0.366 N 
HETATM   24  H   UNK N   1      32.255  18.759   3.297  0.00  0.00     0.159 HD
HETATM   25  H   UNK N   1      31.674  18.019   4.715  0.00  0.00     0.159 HD
ENDBRANCH  17  21
BRANCH  18  26
HETATM   26  O   UNK N   1      32.055  14.144   3.350  0.00  0.00    -0.362 OA
HETATM   27  H   UNK N   1      31.629  14.787   2.819  0.00  0.00     0.217 HD
ENDBRANCH  18  26
BRANCH  13  28
HETATM   28  O   UNK N   1      35.444  14.500   6.453  0.00  0.00    -0.374 OA
HETATM   29  H   UNK N   1      36.067  13.767   6.329  0.00  0.00     0.211 HD
ENDBRANCH  13  28
BRANCH  15  30
HETATM   30  N   UNK N   1      34.017  12.466   5.141  0.00  0.00     0.091 N 
HETATM   31  C   UNK N   1      34.572  12.778   3.830  0.00  0.00     0.310 C 
HETATM   32  C   UNK N   1      33.466  11.128   4.973  0.00  0.00     0.310 C 
ENDBRANCH  15  30
BRANCH  12  33
HETATM   33  O   UNK N   1      34.555  16.906   8.628  0.00  0.00    -0.361 OA
HETATM   34  H   UNK N   1      34.735  17.528   7.950  0.00  0.00     0.217 HD
ENDBRANCH  12  33
BRANCH   4  35
HETATM   35  O   UNK N   1      36.465  15.451  13.182  0.00  0.00    -0.360 OA
HETATM   36  H   UNK N   1      36.606  16.121  12.543  0.00  0.00     0.217 HD
ENDBRANCH   4  35
BRANCH   1  37
HETATM   37  N   UNK N   1      35.727  10.101  11.634  0.00  0.00    -0.389 N 
HETATM   38  C   UNK N   1      36.627   9.430  10.728  0.00  0.00     0.149 C 
HETATM   39  C   UNK N   1      34.726   9.284  12.271  0.00  0.00     0.149 C 
ENDBRANCH   1  37
TORSDOF 7
ENDMDL
MODEL 7
REMARK VINA RESULT:      -6.6      3.026      4.920
REMARK  7 active torsions:
REMARK  status: ('A' for Active; 'I' for Inactive)
REMARK    1  A    between atoms: C_1  and  N_19 
REMARK    2  A    between atoms: C_4  and  O_27 
REMARK    3  A    between atoms: C_12  and  O_29 
REMARK    4  A    between atoms: C_13  and  O_21 
REMARK    5  A    between atoms: C_15  and  N_20 
REMARK    6  A    between atoms: C_17  and  C_31 
REMARK    7  A    between atoms: C_18  and  O_26 
REMARK       I    between atoms: C_31  and  N_33 
ROOT
HETATM    1  C   UNK N   1      36.281   9.177  13.218  0.00  0.00     0.036 A 
HETATM    2  C   UNK N   1      36.782   8.977  14.514  0.00  0.00     0.033 A 
HETATM    3  C   UNK N   1      36.734   9.982  15.475  0.00  0.00     0.040 A 
HETATM    4  C   UNK N   1      36.208  11.232  15.166  0.00  0.00     0.080 A 
HETATM    5  C   UNK N   1      35.702  11.485  13.873  0.00  0.00     0.056 A 
HETATM    6  C   UNK N   1      35.713  10.447  12.910  0.00  0.00    -0.014 A 
HETATM    7  C   UNK N   1      35.035  10.700  11.604  0.00  0.00     0.051 C 
HETATM    8  C   UNK N   1      35.232  12.848  13.467  0.00  0.00     0.194 C 
HETATM    9  C   UNK N   1      35.191  13.174  12.004  0.00  0.00     0.030 C 
HETATM   10  C   UNK N   1      35.318  12.049  10.994  0.00  0.00     0.030 C 
HETATM   11  C   UNK N   1      34.263  12.233   9.896  0.00  0.00     0.021 C 
HETATM   12  C   UNK N   1      35.099  14.442  11.522  0.00  0.00     0.096 C 
HETATM   13  C   UNK N   1      35.166  14.646  10.002  0.00  0.00     0.177 C 
HETATM   14  C   UNK N   1      34.173  13.669   9.336  0.00  0.00     0.075 C 
HETATM   15  C   UNK N   1      34.293  13.723   7.787  0.00  0.00     0.286 C 
HETATM   16  C   UNK N   1      34.846  16.041   9.508  0.00  0.00     0.208 C 
HETATM   17  C   UNK N   1      34.377  16.249   8.092  0.00  0.00     0.112 C 
HETATM   18  C   UNK N   1      34.131  15.162   7.293  0.00  0.00     0.096 C 
HETATM   19  O   UNK N   1      35.065  13.723  14.304  0.00  0.00    -0.287 OA
HETATM   20  O   UNK N   1      34.987  17.000  10.252  0.00  0.00    -0.288 OA
ENDROOT
BRANCH  17  21
HETATM   21  C   UNK N   1      34.177  17.654   7.583  0.00  0.00     0.255 C 
HETATM   22  O   UNK N   1      34.521  17.949   6.448  0.00  0.00    -0.268 OA
HETATM   23  N   UNK N   1      33.621  18.609   8.355  0.00  0.00    -0.366 N 
HETATM   24  H   UNK N   1      33.714  19.562   8.125  0.00  0.00     0.159 HD
HETATM   25  H   UNK N   1      33.116  18.350   9.159  0.00  0.00     0.159 HD
ENDBRANCH  17  21
BRANCH  18  26
HETATM   26  O   UNK N   1      33.714  15.331   6.022  0.00  0.00    -0.362 OA
HETATM   27  H   UNK N   1      32.826  15.155   5.780  0.00  0.00     0.217 HD
ENDBRANCH  18  26
BRANCH  13  28
HETATM   28  O   UNK N   1      36.467  14.342   9.584  0.00  0.00    -0.374 OA
HETATM   29  H   UNK N   1      37.321  14.523   9.162  0.00  0.00     0.211 HD
ENDBRANCH  13  28
BRANCH  15  30
HETATM   30  N   UNK N   1      35.523  13.079   7.258  0.00  0.00     0.091 N 
HETATM   31  C   UNK N   1      36.259  13.966   6.366  0.00  0.00     0.310 C 
HETATM   32  C   UNK N   1      35.163  11.953   6.407  0.00  0.00     0.310 C 
ENDBRANCH  15  30
BRANCH  12  33
HETATM   33  O   UNK N   1      34.955  15.490  12.360  0.00  0.00    -0.361 OA
HETATM   34  H   UNK N   1      34.123  15.662  12.757  0.00  0.00     0.217 HD
ENDBRANCH  12  33
BRANCH   4  35
HETATM   35  O   UNK N   1      36.221  12.193  16.107  0.00  0.00    -0.360 OA
HETATM   36  H   UNK N   1      36.980  12.315  16.642  0.00  0.00     0.217 HD
ENDBRANCH   4  35
BRANCH   1  37
HETATM   37  N   UNK N   1      36.368   8.093  12.268  0.00  0.00    -0.389 N 
HETATM   38  C   UNK N   1      37.546   7.829  11.479  0.00  0.00     0.149 C 
HETATM   39  C   UNK N   1      35.290   7.144  12.155  0.00  0.00     0.149 C 
ENDBRANCH   1  37
TORSDOF 7
ENDMDL
MODEL 8
REMARK VINA RESULT:      -6.6     23.134     25.556
REMARK  7 active torsions:
REMARK  status: ('A' for Active; 'I' for Inactive)
REMARK    1  A    between atoms: C_1  and  N_19 
REMARK    2  A    between atoms: C_4  and  O_27 
REMARK    3  A    between atoms: C_12  and  O_29 
REMARK    4  A    between atoms: C_13  and  O_21 
REMARK    5  A    between atoms: C_15  and  N_20 
REMARK    6  A    between atoms: C_17  and  C_31 
REMARK    7  A    between atoms: C_18  and  O_26 
REMARK       I    between atoms: C_31  and  N_33 
ROOT
HETATM    1  C   UNK N   1      31.495  19.964  -7.655  0.00  0.00     0.036 A 
HETATM    2  C   UNK N   1      32.821  19.537  -7.474  0.00  0.00     0.033 A 
HETATM    3  C   UNK N   1      33.568  19.937  -6.371  0.00  0.00     0.040 A 
HETATM    4  C   UNK N   1      33.027  20.801  -5.425  0.00  0.00     0.080 A 
HETATM    5  C   UNK N   1      31.702  21.266  -5.570  0.00  0.00     0.056 A 
HETATM    6  C   UNK N   1      30.929  20.823  -6.670  0.00  0.00    -0.014 A 
HETATM    7  C   UNK N   1      29.489  21.212  -6.712  0.00  0.00     0.051 C 
HETATM    8  C   UNK N   1      31.121  22.284  -4.636  0.00  0.00     0.194 C 
HETATM    9  C   UNK N   1      29.952  23.091  -5.112  0.00  0.00     0.030 C 
HETATM   10  C   UNK N   1      29.211  22.652  -6.360  0.00  0.00     0.030 C 
HETATM   11  C   UNK N   1      27.701  22.729  -6.107  0.00  0.00     0.021 C 
HETATM   12  C   UNK N   1      29.541  24.240  -4.511  0.00  0.00     0.096 C 
HETATM   13  C   UNK N   1      28.391  25.024  -5.157  0.00  0.00     0.177 C 
HETATM   14  C   UNK N   1      27.234  24.042  -5.443  0.00  0.00     0.075 C 
HETATM   15  C   UNK N   1      26.090  24.743  -6.227  0.00  0.00     0.286 C 
HETATM   16  C   UNK N   1      27.833  26.172  -4.340  0.00  0.00     0.208 C 
HETATM   17  C   UNK N   1      26.434  26.667  -4.595  0.00  0.00     0.112 C 
HETATM   18  C   UNK N   1      25.631  26.000  -5.484  0.00  0.00     0.096 C 
HETATM   19  O   UNK N   1      31.696  22.572  -3.596  0.00  0.00    -0.287 OA
HETATM   20  O   UNK N   1      28.526  26.709  -3.489  0.00  0.00    -0.288 OA
ENDROOT
BRANCH  17  21
HETATM   21  C   UNK N   1      25.939  27.883  -3.855  0.00  0.00     0.255 C 
HETATM   22  O   UNK N   1      25.574  27.787  -2.693  0.00  0.00    -0.268 OA
HETATM   23  N   UNK N   1      25.883  29.092  -4.449  0.00  0.00    -0.366 N 
HETATM   24  H   UNK N   1      25.341  29.820  -4.065  0.00  0.00     0.159 HD
HETATM   25  H   UNK N   1      26.392  29.251  -5.277  0.00  0.00     0.159 HD
ENDBRANCH  17  21
BRANCH  18  26
HETATM   26  O   UNK N   1      24.376  26.432  -5.726  0.00  0.00    -0.362 OA
HETATM   27  H   UNK N   1      24.200  27.342  -5.861  0.00  0.00     0.217 HD
ENDBRANCH  18  26
BRANCH  13  28
HETATM   28  O   UNK N   1      28.857  25.557  -6.364  0.00  0.00    -0.374 OA
HETATM   29  H   UNK N   1      29.503  25.985  -6.946  0.00  0.00     0.211 HD
ENDBRANCH  13  28
BRANCH  15  30
HETATM   30  N   UNK N   1      26.417  25.017  -7.650  0.00  0.00     0.091 N 
HETATM   31  C   UNK N   1      26.195  26.414  -7.999  0.00  0.00     0.310 C 
HETATM   32  C   UNK N   1      25.497  24.293  -8.516  0.00  0.00     0.310 C 
ENDBRANCH  15  30
BRANCH  12  33
HETATM   33  O   UNK N   1      30.135  24.677  -3.380  0.00  0.00    -0.361 OA
HETATM   34  H   UNK N   1      30.313  24.077  -2.682  0.00  0.00     0.217 HD
ENDBRANCH  12  33
BRANCH   4  35
HETATM   35  O   UNK N   1      33.795  21.203  -4.397  0.00  0.00    -0.360 OA
HETATM   36  H   UNK N   1      34.079  20.584  -3.754  0.00  0.00     0.217 HD
ENDBRANCH   4  35
BRANCH   1  37
HETATM   37  N   UNK N   1      30.778  19.515  -8.826  0.00  0.00    -0.389 N 
HETATM   38  C   UNK N   1      30.759  20.248 -10.068  0.00  0.00     0.149 C 
HETATM   39  C   UNK N   1      30.132  18.227  -8.827  0.00  0.00     0.149 C 
ENDBRANCH   1  37
TORSDOF 7
ENDMDL
MODEL 9
REMARK VINA RESULT:      -6.5      2.071      2.845
REMARK  7 active torsions:
REMARK  status: ('A' for Active; 'I' for Inactive)
REMARK    1  A    between atoms: C_1  and  N_19 
REMARK    2  A    between atoms: C_4  and  O_27 
REMARK    3  A    between atoms: C_12  and  O_29 
REMARK    4  A    between atoms: C_13  and  O_21 
REMARK    5  A    between atoms: C_15  and  N_20 
REMARK    6  A    between atoms: C_17  and  C_31 
REMARK    7  A    between atoms: C_18  and  O_26 
REMARK       I    between atoms: C_31  and  N_33 
ROOT
HETATM    1  C   UNK N   1      34.937  10.274  18.888  0.00  0.00     0.036 A 
HETATM    2  C   UNK N   1      34.987  11.087  20.032  0.00  0.00     0.033 A 
HETATM    3  C   UNK N   1      35.166  12.463  19.937  0.00  0.00     0.040 A 
HETATM    4  C   UNK N   1      35.331  13.072  18.698  0.00  0.00     0.080 A 
HETATM    5  C   UNK N   1      35.300  12.295  17.520  0.00  0.00     0.056 A 
HETATM    6  C   UNK N   1      35.074  10.901  17.617  0.00  0.00    -0.014 A 
HETATM    7  C   UNK N   1      34.897  10.134  16.348  0.00  0.00     0.051 C 
HETATM    8  C   UNK N   1      35.585  12.894  16.177  0.00  0.00     0.194 C 
HETATM    9  C   UNK N   1      36.029  11.980  15.076  0.00  0.00     0.030 C 
HETATM   10  C   UNK N   1      35.876  10.481  15.255  0.00  0.00     0.030 C 
HETATM   11  C   UNK N   1      35.294   9.874  13.973  0.00  0.00     0.021 C 
HETATM   12  C   UNK N   1      36.618  12.417  13.931  0.00  0.00     0.096 C 
HETATM   13  C   UNK N   1      37.115  11.369  12.926  0.00  0.00     0.177 C 
HETATM   14  C   UNK N   1      35.976  10.357  12.675  0.00  0.00     0.075 C 
HETATM   15  C   UNK N   1      36.459   9.186  11.775  0.00  0.00     0.286 C 
HETATM   16  C   UNK N   1      37.564  11.903  11.582  0.00  0.00     0.208 C 
HETATM   17  C   UNK N   1      37.574  11.000  10.377  0.00  0.00     0.112 C 
HETATM   18  C   UNK N   1      37.065   9.730  10.479  0.00  0.00     0.096 C 
HETATM   19  O   UNK N   1      35.632  14.108  16.035  0.00  0.00    -0.287 OA
HETATM   20  O   UNK N   1      37.937  13.062  11.479  0.00  0.00    -0.288 OA
ENDROOT
BRANCH  17  21
HETATM   21  C   UNK N   1      38.135  11.514   9.076  0.00  0.00     0.255 C 
HETATM   22  O   UNK N   1      39.068  10.935   8.540  0.00  0.00    -0.268 OA
HETATM   23  N   UNK N   1      37.630  12.612   8.479  0.00  0.00    -0.366 N 
HETATM   24  H   UNK N   1      38.138  13.086   7.781  0.00  0.00     0.159 HD
HETATM   25  H   UNK N   1      36.742  12.944   8.743  0.00  0.00     0.159 HD
ENDBRANCH  17  21
BRANCH  18  26
HETATM   26  O   UNK N   1      37.070   8.907   9.411  0.00  0.00    -0.362 OA
HETATM   27  H   UNK N   1      36.268   8.614   9.026  0.00  0.00     0.217 HD
ENDBRANCH  18  26
BRANCH  13  28
HETATM   28  O   UNK N   1      38.207  10.707  13.499  0.00  0.00    -0.374 OA
HETATM   29  H   UNK N   1      39.051  10.230  13.490  0.00  0.00     0.211 HD
ENDBRANCH  13  28
BRANCH  15  30
HETATM   30  N   UNK N   1      37.366   8.233  12.465  0.00  0.00     0.091 N 
HETATM   31  C   UNK N   1      38.609   8.036  11.730  0.00  0.00     0.310 C 
HETATM   32  C   UNK N   1      36.763   6.907  12.488  0.00  0.00     0.310 C 
ENDBRANCH  15  30
BRANCH  12  33
HETATM   33  O   UNK N   1      36.761  13.738  13.689  0.00  0.00    -0.361 OA
HETATM   34  H   UNK N   1      36.960  14.324  14.393  0.00  0.00     0.217 HD
ENDBRANCH  12  33
BRANCH   4  35
HETATM   35  O   UNK N   1      35.549  14.399  18.649  0.00  0.00    -0.360 OA
HETATM   36  H   UNK N   1      34.979  14.949  18.149  0.00  0.00     0.217 HD
ENDBRANCH   4  35
BRANCH   1  37
HETATM   37  N   UNK N   1      34.755   8.852  19.059  0.00  0.00    -0.389 N 
HETATM   38  C   UNK N   1      35.852   7.918  19.123  0.00  0.00     0.149 C 
HETATM   39  C   UNK N   1      33.438   8.316  19.289  0.00  0.00     0.149 C 
ENDBRANCH   1  37
TORSDOF 7
ENDMDL
