MODEL 1
REMARK VINA RESULT:      -7.8      0.000      0.000
REMARK  7 active torsions:
REMARK  status: ('A' for Active; 'I' for Inactive)
REMARK    1  A    between atoms: C_25  and  C_2 
REMARK    2  A    between atoms: C_18  and  O_29 
REMARK    3  A    between atoms: C_22  and  C_31 
REMARK    4  A    between atoms: C_31  and  C_33 
REMARK    5  A    between atoms: C_33  and  O_34 
REMARK    6  A    between atoms: O_34  and  C_35 
REMARK    7  A    between atoms: C_35  and  C_37 
ROOT
HETATM    1  C   UNK N   1      21.678  15.883   2.574  0.00  0.00     0.052 C 
HETATM    2  C   UNK N   1      21.708  14.920   1.449  0.00  0.00     0.171 C 
HETATM    3  C   UNK N   1      23.025  14.375   1.048  0.00  0.00     0.058 C 
HETATM    4  C   UNK N   1      22.738  15.939   3.404  0.00  0.00    -0.009 C 
HETATM    5  C   UNK N   1      23.765  14.815   3.380  0.00  0.00     0.004 C 
HETATM    6  C   UNK N   1      24.034  14.414   1.937  0.00  0.00    -0.064 C 
HETATM    7  C   UNK N   1      25.442  14.194   1.490  0.00  0.00     0.036 C 
HETATM    8  C   UNK N   1      26.278  15.442   1.825  0.00  0.00     0.010 C 
HETATM    9  C   UNK N   1      25.098  15.157   4.107  0.00  0.00     0.035 C 
HETATM   10  C   UNK N   1      26.030  16.035   3.237  0.00  0.00    -0.001 C 
HETATM   11  C   UNK N   1      25.876  16.880   5.881  0.00  0.00     0.045 C 
HETATM   12  C   UNK N   1      24.806  15.870   5.449  0.00  0.00     0.124 C 
HETATM   13  C   UNK N   1      27.305  16.468   5.505  0.00  0.00     0.004 C 
HETATM   14  C   UNK N   1      27.396  16.233   3.968  0.00  0.00     0.004 C 
HETATM   15  C   UNK N   1      28.147  17.431   3.427  0.00  0.00     0.041 C 
HETATM   16  C   UNK N   1      28.401  17.563   5.847  0.00  0.00     0.160 C 
HETATM   17  C   UNK N   1      29.137  17.784   4.521  0.00  0.00     0.168 C 
HETATM   18  O   UNK N   1      30.208  16.900   4.587  0.00  0.00    -0.352 OA
HETATM   19  C   UNK N   1      30.557  17.071   5.935  0.00  0.00     0.266 C 
HETATM   20  O   UNK N   1      29.385  17.048   6.710  0.00  0.00    -0.339 OA
HETATM   21  O   UNK N   1      20.718  14.732   0.763  0.00  0.00    -0.289 OA
HETATM   22  C   UNK N   1      23.110  13.629   4.088  0.00  0.00     0.025 C 
HETATM   23  C   UNK N   1      27.586  15.150   6.245  0.00  0.00     0.019 C 
ENDROOT
BRANCH  16  24
HETATM   24  C   UNK N   1      27.907  18.897   6.434  0.00  0.00     0.188 C 
HETATM   25  O   UNK N   1      27.654  18.980   7.626  0.00  0.00    -0.292 OA
BRANCH  24  26
HETATM   26  C   UNK N   1      27.581  20.085   5.578  0.00  0.00     0.260 C 
BRANCH  26  27
HETATM   27  O   UNK N   1      26.254  20.123   5.233  0.00  0.00    -0.314 OA
BRANCH  27  28
HETATM   28  C   UNK N   1      25.775  20.144   3.955  0.00  0.00     0.262 C 
HETATM   29  O   UNK N   1      26.497  20.600   3.084  0.00  0.00    -0.265 OA
BRANCH  28  30
HETATM   30  C   UNK N   1      24.402  19.627   3.526  0.00  0.00     0.077 C 
HETATM   31  C   UNK N   1      23.653  20.685   2.739  0.00  0.00     0.020 C 
HETATM   32  C   UNK N   1      23.474  19.073   4.594  0.00  0.00     0.020 C 
ENDBRANCH  28  30
ENDBRANCH  27  28
ENDBRANCH  26  27
ENDBRANCH  24  26
ENDBRANCH  16  24
BRANCH  19  33
HETATM   33  C   UNK N   1      31.588  16.044   6.402  0.00  0.00     0.041 C 
HETATM   34  C   UNK N   1      31.999  16.292   7.860  0.00  0.00     0.009 C 
HETATM   35  C   UNK N   1      32.707  17.639   8.020  0.00  0.00     0.001 C 
HETATM   36  C   UNK N   1      33.943  17.690   7.126  0.00  0.00     0.000 C 
HETATM   37  C   UNK N   1      33.559  17.455   5.667  0.00  0.00     0.001 C 
HETATM   38  C   UNK N   1      32.836  16.111   5.511  0.00  0.00     0.009 C 
ENDBRANCH  19  33
BRANCH  12  39
HETATM   39  O   UNK N   1      24.523  14.950   6.459  0.00  0.00    -0.395 OA
HETATM   40  H   UNK N   1      24.776  14.103   6.861  0.00  0.00     0.210 HD
ENDBRANCH  12  39
TORSDOF 7
ENDMDL
MODEL 2
REMARK VINA RESULT:      -7.5     11.686     14.907
REMARK  7 active torsions:
REMARK  status: ('A' for Active; 'I' for Inactive)
REMARK    1  A    between atoms: C_25  and  C_2 
REMARK    2  A    between atoms: C_18  and  O_29 
REMARK    3  A    between atoms: C_22  and  C_31 
REMARK    4  A    between atoms: C_31  and  C_33 
REMARK    5  A    between atoms: C_33  and  O_34 
REMARK    6  A    between atoms: O_34  and  C_35 
REMARK    7  A    between atoms: C_35  and  C_37 
ROOT
HETATM    1  C   UNK N   1      26.686  27.604  -3.163  0.00  0.00     0.052 C 
HETATM    2  C   UNK N   1      26.527  28.953  -3.755  0.00  0.00     0.171 C 
HETATM    3  C   UNK N   1      26.963  29.141  -5.158  0.00  0.00     0.058 C 
HETATM    4  C   UNK N   1      26.852  26.553  -3.988  0.00  0.00    -0.009 C 
HETATM    5  C   UNK N   1      26.544  26.710  -5.470  0.00  0.00     0.004 C 
HETATM    6  C   UNK N   1      27.064  28.058  -5.949  0.00  0.00    -0.064 C 
HETATM    7  C   UNK N   1      27.804  28.137  -7.245  0.00  0.00     0.036 C 
HETATM    8  C   UNK N   1      28.969  27.132  -7.222  0.00  0.00     0.010 C 
HETATM    9  C   UNK N   1      27.102  25.563  -6.361  0.00  0.00     0.035 C 
HETATM   10  C   UNK N   1      28.613  25.733  -6.653  0.00  0.00    -0.001 C 
HETATM   11  C   UNK N   1      27.906  23.126  -5.993  0.00  0.00     0.045 C 
HETATM   12  C   UNK N   1      26.847  24.194  -5.690  0.00  0.00     0.124 C 
HETATM   13  C   UNK N   1      28.481  23.210  -7.412  0.00  0.00     0.004 C 
HETATM   14  C   UNK N   1      29.081  24.628  -7.653  0.00  0.00     0.004 C 
HETATM   15  C   UNK N   1      30.582  24.437  -7.606  0.00  0.00     0.041 C 
HETATM   16  C   UNK N   1      29.658  22.183  -7.691  0.00  0.00     0.160 C 
HETATM   17  C   UNK N   1      30.808  23.059  -8.201  0.00  0.00     0.168 C 
HETATM   18  O   UNK N   1      30.653  23.034  -9.582  0.00  0.00    -0.352 OA
HETATM   19  C   UNK N   1      30.311  21.683  -9.745  0.00  0.00     0.266 C 
HETATM   20  O   UNK N   1      29.354  21.340  -8.775  0.00  0.00    -0.339 OA
HETATM   21  O   UNK N   1      26.230  29.909  -3.059  0.00  0.00    -0.289 OA
HETATM   22  C   UNK N   1      25.019  26.723  -5.585  0.00  0.00     0.025 C 
HETATM   23  C   UNK N   1      27.303  22.981  -8.373  0.00  0.00     0.019 C 
ENDROOT
BRANCH  16  24
HETATM   24  C   UNK N   1      30.116  21.299  -6.517  0.00  0.00     0.188 C 
HETATM   25  O   UNK N   1      29.643  20.181  -6.377  0.00  0.00    -0.292 OA
BRANCH  24  26
HETATM   26  C   UNK N   1      31.027  21.799  -5.436  0.00  0.00     0.260 C 
BRANCH  26  27
HETATM   27  O   UNK N   1      30.529  21.544  -4.183  0.00  0.00    -0.314 OA
BRANCH  27  28
HETATM   28  C   UNK N   1      30.824  22.261  -3.060  0.00  0.00     0.262 C 
HETATM   29  O   UNK N   1      31.736  21.864  -2.354  0.00  0.00    -0.265 OA
BRANCH  28  30
HETATM   30  C   UNK N   1      30.105  23.538  -2.623  0.00  0.00     0.077 C 
HETATM   31  C   UNK N   1      28.635  23.264  -2.370  0.00  0.00     0.020 C 
HETATM   32  C   UNK N   1      30.221  24.769  -3.505  0.00  0.00     0.020 C 
ENDBRANCH  28  30
ENDBRANCH  27  28
ENDBRANCH  26  27
ENDBRANCH  24  26
ENDBRANCH  16  24
BRANCH  19  33
HETATM   33  C   UNK N   1      29.842  21.371 -11.166  0.00  0.00     0.041 C 
HETATM   34  C   UNK N   1      29.116  20.020 -11.227  0.00  0.00     0.009 C 
HETATM   35  C   UNK N   1      30.055  18.864 -10.875  0.00  0.00     0.001 C 
HETATM   36  C   UNK N   1      31.245  18.846 -11.830  0.00  0.00     0.000 C 
HETATM   37  C   UNK N   1      31.990  20.178 -11.781  0.00  0.00     0.001 C 
HETATM   38  C   UNK N   1      31.045  21.337 -12.119  0.00  0.00     0.009 C 
ENDBRANCH  19  33
BRANCH  12  39
HETATM   39  O   UNK N   1      25.556  23.734  -5.955  0.00  0.00    -0.395 OA
HETATM   40  H   UNK N   1      24.992  22.950  -6.050  0.00  0.00     0.210 HD
ENDBRANCH  12  39
TORSDOF 7
ENDMDL
MODEL 3
REMARK VINA RESULT:      -7.4      6.520     11.487
REMARK  7 active torsions:
REMARK  status: ('A' for Active; 'I' for Inactive)
REMARK    1  A    between atoms: C_25  and  C_2 
REMARK    2  A    between atoms: C_18  and  O_29 
REMARK    3  A    between atoms: C_22  and  C_31 
REMARK    4  A    between atoms: C_31  and  C_33 
REMARK    5  A    between atoms: C_33  and  O_34 
REMARK    6  A    between atoms: O_34  and  C_35 
REMARK    7  A    between atoms: C_35  and  C_37 
ROOT
HETATM    1  C   UNK N   1      33.699  17.218   5.360  0.00  0.00     0.052 C 
HETATM    2  C   UNK N   1      32.232  17.389   5.244  0.00  0.00     0.171 C 
HETATM    3  C   UNK N   1      31.383  16.733   6.264  0.00  0.00     0.058 C 
HETATM    4  C   UNK N   1      34.211  16.818   6.540  0.00  0.00    -0.009 C 
HETATM    5  C   UNK N   1      33.342  16.874   7.789  0.00  0.00     0.004 C 
HETATM    6  C   UNK N   1      31.938  16.398   7.443  0.00  0.00    -0.064 C 
HETATM    7  C   UNK N   1      31.239  15.453   8.364  0.00  0.00     0.036 C 
HETATM    8  C   UNK N   1      32.136  14.225   8.603  0.00  0.00     0.010 C 
HETATM    9  C   UNK N   1      33.908  16.068   8.993  0.00  0.00     0.035 C 
HETATM   10  C   UNK N   1      33.631  14.550   8.864  0.00  0.00    -0.001 C 
HETATM   11  C   UNK N   1      36.218  15.129   9.700  0.00  0.00     0.045 C 
HETATM   12  C   UNK N   1      35.428  16.315   9.134  0.00  0.00     0.124 C 
HETATM   13  C   UNK N   1      35.454  14.323  10.757  0.00  0.00     0.004 C 
HETATM   14  C   UNK N   1      34.106  13.818  10.159  0.00  0.00     0.004 C 
HETATM   15  C   UNK N   1      34.310  12.338   9.917  0.00  0.00     0.041 C 
HETATM   16  C   UNK N   1      36.222  13.029  11.261  0.00  0.00     0.160 C 
HETATM   17  C   UNK N   1      35.219  11.890  11.047  0.00  0.00     0.168 C 
HETATM   18  O   UNK N   1      34.560  11.797  12.267  0.00  0.00    -0.352 OA
HETATM   19  C   UNK N   1      35.653  11.984  13.127  0.00  0.00     0.266 C 
HETATM   20  O   UNK N   1      36.419  13.063  12.653  0.00  0.00    -0.339 OA
HETATM   21  O   UNK N   1      31.739  17.888   4.246  0.00  0.00    -0.289 OA
HETATM   22  C   UNK N   1      33.260  18.350   8.179  0.00  0.00     0.025 C 
HETATM   23  C   UNK N   1      35.170  15.289  11.919  0.00  0.00     0.019 C 
ENDROOT
BRANCH  16  24
HETATM   24  C   UNK N   1      37.573  12.708  10.597  0.00  0.00     0.188 C 
HETATM   25  O   UNK N   1      38.527  13.451  10.772  0.00  0.00    -0.292 OA
BRANCH  24  26
HETATM   26  C   UNK N   1      37.746  11.586   9.619  0.00  0.00     0.260 C 
BRANCH  26  27
HETATM   27  O   UNK N   1      37.890  12.041   8.332  0.00  0.00    -0.314 OA
BRANCH  27  28
HETATM   28  C   UNK N   1      36.890  12.101   7.404  0.00  0.00     0.262 C 
HETATM   29  O   UNK N   1      36.363  11.054   7.068  0.00  0.00    -0.265 OA
BRANCH  28  30
HETATM   30  C   UNK N   1      36.370  13.386   6.759  0.00  0.00     0.077 C 
HETATM   31  C   UNK N   1      35.112  13.111   5.958  0.00  0.00     0.020 C 
HETATM   32  C   UNK N   1      37.323  14.197   5.898  0.00  0.00     0.020 C 
ENDBRANCH  28  30
ENDBRANCH  27  28
ENDBRANCH  26  27
ENDBRANCH  24  26
ENDBRANCH  16  24
BRANCH  19  33
HETATM   33  C   UNK N   1      35.222  12.167  14.582  0.00  0.00     0.041 C 
HETATM   34  C   UNK N   1      36.432  12.144  15.527  0.00  0.00     0.009 C 
HETATM   35  C   UNK N   1      37.130  10.783  15.507  0.00  0.00     0.001 C 
HETATM   36  C   UNK N   1      36.150   9.684  15.907  0.00  0.00     0.000 C 
HETATM   37  C   UNK N   1      34.940   9.681  14.975  0.00  0.00     0.001 C 
HETATM   38  C   UNK N   1      34.250  11.050  14.984  0.00  0.00     0.009 C 
ENDBRANCH  19  33
BRANCH  12  39
HETATM   39  O   UNK N   1      35.686  17.493   9.836  0.00  0.00    -0.395 OA
HETATM   40  H   UNK N   1      36.312  18.223   9.967  0.00  0.00     0.210 HD
ENDBRANCH  12  39
TORSDOF 7
ENDMDL
MODEL 4
REMARK VINA RESULT:      -7.4      8.581     14.245
REMARK  7 active torsions:
REMARK  status: ('A' for Active; 'I' for Inactive)
REMARK    1  A    between atoms: C_25  and  C_2 
REMARK    2  A    between atoms: C_18  and  O_29 
REMARK    3  A    between atoms: C_22  and  C_31 
REMARK    4  A    between atoms: C_31  and  C_33 
REMARK    5  A    between atoms: C_33  and  O_34 
REMARK    6  A    between atoms: O_34  and  C_35 
REMARK    7  A    between atoms: C_35  and  C_37 
ROOT
HETATM    1  C   UNK N   1      37.862   9.359  15.590  0.00  0.00     0.052 C 
HETATM    2  C   UNK N   1      36.959   9.366  16.765  0.00  0.00     0.171 C 
HETATM    3  C   UNK N   1      35.813  10.305  16.743  0.00  0.00     0.058 C 
HETATM    4  C   UNK N   1      37.423   9.896  14.436  0.00  0.00    -0.009 C 
HETATM    5  C   UNK N   1      35.938  10.185  14.263  0.00  0.00     0.004 C 
HETATM    6  C   UNK N   1      35.388  10.771  15.555  0.00  0.00    -0.064 C 
HETATM    7  C   UNK N   1      34.477  11.953  15.491  0.00  0.00     0.036 C 
HETATM    8  C   UNK N   1      35.159  13.073  14.686  0.00  0.00     0.010 C 
HETATM    9  C   UNK N   1      35.606  11.114  13.059  0.00  0.00     0.035 C 
HETATM   10  C   UNK N   1      35.863  12.606  13.385  0.00  0.00    -0.001 C 
HETATM   11  C   UNK N   1      36.796  11.851  10.877  0.00  0.00     0.045 C 
HETATM   12  C   UNK N   1      36.432  10.696  11.820  0.00  0.00     0.124 C 
HETATM   13  C   UNK N   1      35.712  12.930  10.771  0.00  0.00     0.004 C 
HETATM   14  C   UNK N   1      35.390  13.491  12.188  0.00  0.00     0.004 C 
HETATM   15  C   UNK N   1      36.030  14.863  12.226  0.00  0.00     0.041 C 
HETATM   16  C   UNK N   1      36.132  14.180   9.889  0.00  0.00     0.160 C 
HETATM   17  C   UNK N   1      35.896  15.384  10.807  0.00  0.00     0.168 C 
HETATM   18  O   UNK N   1      34.601  15.784  10.499  0.00  0.00    -0.352 OA
HETATM   19  C   UNK N   1      34.639  15.613   9.106  0.00  0.00     0.266 C 
HETATM   20  O   UNK N   1      35.238  14.375   8.821  0.00  0.00    -0.339 OA
HETATM   21  O   UNK N   1      37.256   8.764  17.783  0.00  0.00    -0.289 OA
HETATM   22  C   UNK N   1      35.268   8.829  14.036  0.00  0.00     0.025 C 
HETATM   23  C   UNK N   1      34.465  12.237  10.197  0.00  0.00     0.019 C 
ENDROOT
BRANCH  16  24
HETATM   24  C   UNK N   1      37.562  14.192   9.319  0.00  0.00     0.188 C 
HETATM   25  O   UNK N   1      38.441  14.811   9.899  0.00  0.00    -0.292 OA
BRANCH  24  26
HETATM   26  C   UNK N   1      37.908  13.588   7.991  0.00  0.00     0.260 C 
BRANCH  26  27
HETATM   27  O   UNK N   1      39.233  13.757   7.678  0.00  0.00    -0.314 OA
BRANCH  27  28
HETATM   28  C   UNK N   1      40.150  12.751   7.575  0.00  0.00     0.262 C 
HETATM   29  O   UNK N   1      40.686  12.578   6.493  0.00  0.00    -0.265 OA
BRANCH  28  30
HETATM   30  C   UNK N   1      40.569  11.828   8.720  0.00  0.00     0.077 C 
HETATM   31  C   UNK N   1      42.027  11.436   8.584  0.00  0.00     0.020 C 
HETATM   32  C   UNK N   1      39.752  10.572   8.969  0.00  0.00     0.020 C 
ENDBRANCH  28  30
ENDBRANCH  27  28
ENDBRANCH  26  27
ENDBRANCH  24  26
ENDBRANCH  16  24
BRANCH  19  33
HETATM   33  C   UNK N   1      33.259  15.758   8.466  0.00  0.00     0.041 C 
HETATM   34  C   UNK N   1      33.266  15.262   7.014  0.00  0.00     0.009 C 
HETATM   35  C   UNK N   1      34.181  16.117   6.135  0.00  0.00     0.001 C 
HETATM   36  C   UNK N   1      33.734  17.575   6.174  0.00  0.00     0.000 C 
HETATM   37  C   UNK N   1      33.727  18.095   7.610  0.00  0.00     0.001 C 
HETATM   38  C   UNK N   1      32.820  17.228   8.492  0.00  0.00     0.009 C 
ENDBRANCH  19  33
BRANCH  12  39
HETATM   39  O   UNK N   1      35.823   9.642  11.138  0.00  0.00    -0.395 OA
HETATM   40  H   UNK N   1      35.923   8.728  10.830  0.00  0.00     0.210 HD
ENDBRANCH  12  39
TORSDOF 7
ENDMDL
MODEL 5
REMARK VINA RESULT:      -7.3      7.041     12.038
REMARK  7 active torsions:
REMARK  status: ('A' for Active; 'I' for Inactive)
REMARK    1  A    between atoms: C_25  and  C_2 
REMARK    2  A    between atoms: C_18  and  O_29 
REMARK    3  A    between atoms: C_22  and  C_31 
REMARK    4  A    between atoms: C_31  and  C_33 
REMARK    5  A    between atoms: C_33  and  O_34 
REMARK    6  A    between atoms: O_34  and  C_35 
REMARK    7  A    between atoms: C_35  and  C_37 
ROOT
HETATM    1  C   UNK N   1      34.732  12.105  16.368  0.00  0.00     0.052 C 
HETATM    2  C   UNK N   1      35.024  10.686  16.678  0.00  0.00     0.171 C 
HETATM    3  C   UNK N   1      35.194   9.756  15.537  0.00  0.00     0.058 C 
HETATM    4  C   UNK N   1      34.997  12.563  15.129  0.00  0.00    -0.009 C 
HETATM    5  C   UNK N   1      35.878  11.739  14.200  0.00  0.00     0.004 C 
HETATM    6  C   UNK N   1      35.506  10.269  14.333  0.00  0.00    -0.064 C 
HETATM    7  C   UNK N   1      35.363   9.438  13.100  0.00  0.00     0.036 C 
HETATM    8  C   UNK N   1      34.369  10.119  12.144  0.00  0.00     0.010 C 
HETATM    9  C   UNK N   1      35.820  12.182  12.710  0.00  0.00     0.035 C 
HETATM   10  C   UNK N   1      34.557  11.652  11.990  0.00  0.00    -0.001 C 
HETATM   11  C   UNK N   1      35.114  14.314  11.415  0.00  0.00     0.045 C 
HETATM   12  C   UNK N   1      35.874  13.725  12.610  0.00  0.00     0.124 C 
HETATM   13  C   UNK N   1      35.171  13.444  10.154  0.00  0.00     0.004 C 
HETATM   14  C   UNK N   1      34.624  12.020  10.474  0.00  0.00     0.004 C 
HETATM   15  C   UNK N   1      33.255  11.967   9.829  0.00  0.00     0.041 C 
HETATM   16  C   UNK N   1      34.291  13.992   8.953  0.00  0.00     0.160 C 
HETATM   17  C   UNK N   1      33.395  12.808   8.573  0.00  0.00     0.168 C 
HETATM   18  O   UNK N   1      34.107  12.165   7.568  0.00  0.00    -0.352 OA
HETATM   19  C   UNK N   1      34.582  13.289   6.875  0.00  0.00     0.266 C 
HETATM   20  O   UNK N   1      35.075  14.217   7.807  0.00  0.00    -0.339 OA
HETATM   21  O   UNK N   1      34.938  10.266  17.819  0.00  0.00    -0.289 OA
HETATM   22  C   UNK N   1      37.309  11.913  14.711  0.00  0.00     0.025 C 
HETATM   23  C   UNK N   1      36.654  13.348   9.760  0.00  0.00     0.019 C 
ENDROOT
BRANCH  16  24
HETATM   24  C   UNK N   1      33.454  15.257   9.212  0.00  0.00     0.188 C 
HETATM   25  O   UNK N   1      32.264  15.156   9.469  0.00  0.00    -0.292 OA
BRANCH  24  26
HETATM   26  C   UNK N   1      34.002  16.640   9.027  0.00  0.00     0.260 C 
BRANCH  26  27
HETATM   27  O   UNK N   1      33.204  17.406   8.214  0.00  0.00    -0.314 OA
BRANCH  27  28
HETATM   28  C   UNK N   1      33.350  17.532   6.863  0.00  0.00     0.262 C 
HETATM   29  O   UNK N   1      34.424  17.929   6.441  0.00  0.00    -0.265 OA
BRANCH  28  30
HETATM   30  C   UNK N   1      32.272  17.200   5.831  0.00  0.00     0.077 C 
HETATM   31  C   UNK N   1      31.890  15.734   5.908  0.00  0.00     0.020 C 
HETATM   32  C   UNK N   1      32.530  17.555   4.377  0.00  0.00     0.020 C 
ENDBRANCH  28  30
ENDBRANCH  27  28
ENDBRANCH  26  27
ENDBRANCH  24  26
ENDBRANCH  16  24
BRANCH  19  33
HETATM   33  C   UNK N   1      35.616  12.921   5.812  0.00  0.00     0.041 C 
HETATM   34  C   UNK N   1      35.937  14.121   4.910  0.00  0.00     0.009 C 
HETATM   35  C   UNK N   1      34.711  14.562   4.109  0.00  0.00     0.001 C 
HETATM   36  C   UNK N   1      34.199  13.406   3.255  0.00  0.00     0.000 C 
HETATM   37  C   UNK N   1      33.864  12.201   4.131  0.00  0.00     0.001 C 
HETATM   38  C   UNK N   1      35.090  11.769   4.945  0.00  0.00     0.009 C 
ENDBRANCH  19  33
BRANCH  12  39
HETATM   39  O   UNK N   1      37.188  14.190  12.670  0.00  0.00    -0.395 OA
HETATM   40  H   UNK N   1      37.988  14.390  12.158  0.00  0.00     0.210 HD
ENDBRANCH  12  39
TORSDOF 7
ENDMDL
MODEL 6
REMARK VINA RESULT:      -7.2      7.264     12.816
REMARK  7 active torsions:
REMARK  status: ('A' for Active; 'I' for Inactive)
REMARK    1  A    between atoms: C_25  and  C_2 
REMARK    2  A    between atoms: C_18  and  O_29 
REMARK    3  A    between atoms: C_22  and  C_31 
REMARK    4  A    between atoms: C_31  and  C_33 
REMARK    5  A    between atoms: C_33  and  O_34 
REMARK    6  A    between atoms: O_34  and  C_35 
REMARK    7  A    between atoms: C_35  and  C_37 
ROOT
HETATM    1  C   UNK N   1      34.453  12.588  16.196  0.00  0.00     0.052 C 
HETATM    2  C   UNK N   1      35.365  11.690  16.943  0.00  0.00     0.171 C 
HETATM    3  C   UNK N   1      36.464  11.046  16.188  0.00  0.00     0.058 C 
HETATM    4  C   UNK N   1      34.856  13.070  15.004  0.00  0.00    -0.009 C 
HETATM    5  C   UNK N   1      36.324  12.966  14.614  0.00  0.00     0.004 C 
HETATM    6  C   UNK N   1      36.855  11.601  15.026  0.00  0.00    -0.064 C 
HETATM    7  C   UNK N   1      37.708  10.830  14.072  0.00  0.00     0.036 C 
HETATM    8  C   UNK N   1      36.966  10.692  12.731  0.00  0.00     0.010 C 
HETATM    9  C   UNK N   1      36.599  13.224  13.104  0.00  0.00     0.035 C 
HETATM   10  C   UNK N   1      36.274  11.987  12.231  0.00  0.00    -0.001 C 
HETATM   11  C   UNK N   1      35.357  14.375  11.142  0.00  0.00     0.045 C 
HETATM   12  C   UNK N   1      35.784  14.443  12.613  0.00  0.00     0.124 C 
HETATM   13  C   UNK N   1      36.387  13.700  10.228  0.00  0.00     0.004 C 
HETATM   14  C   UNK N   1      36.694  12.265  10.752  0.00  0.00     0.004 C 
HETATM   15  C   UNK N   1      35.989  11.332   9.791  0.00  0.00     0.041 C 
HETATM   16  C   UNK N   1      35.899  13.524   8.728  0.00  0.00     0.160 C 
HETATM   17  C   UNK N   1      36.086  12.029   8.446  0.00  0.00     0.168 C 
HETATM   18  O   UNK N   1      37.357  11.955   7.889  0.00  0.00    -0.352 OA
HETATM   19  C   UNK N   1      37.315  13.101   7.081  0.00  0.00     0.266 C 
HETATM   20  O   UNK N   1      36.774  14.160   7.829  0.00  0.00    -0.339 OA
HETATM   21  O   UNK N   1      35.106  11.349  18.085  0.00  0.00    -0.289 OA
HETATM   22  C   UNK N   1      37.055  14.028  15.435  0.00  0.00     0.025 C 
HETATM   23  C   UNK N   1      37.661  14.558  10.302  0.00  0.00     0.019 C 
ENDROOT
BRANCH  16  24
HETATM   24  C   UNK N   1      34.466  13.975   8.395  0.00  0.00     0.188 C 
HETATM   25  O   UNK N   1      33.601  13.139   8.181  0.00  0.00    -0.292 OA
BRANCH  24  26
HETATM   26  C   UNK N   1      34.100  15.412   8.179  0.00  0.00     0.260 C 
BRANCH  26  27
HETATM   27  O   UNK N   1      33.636  15.641   6.908  0.00  0.00    -0.314 OA
BRANCH  27  28
HETATM   28  C   UNK N   1      33.603  16.858   6.291  0.00  0.00     0.262 C 
HETATM   29  O   UNK N   1      34.562  17.597   6.438  0.00  0.00    -0.265 OA
BRANCH  28  30
HETATM   30  C   UNK N   1      32.456  17.365   5.416  0.00  0.00     0.077 C 
HETATM   31  C   UNK N   1      31.201  16.546   5.651  0.00  0.00     0.020 C 
HETATM   32  C   UNK N   1      32.686  17.476   3.919  0.00  0.00     0.020 C 
ENDBRANCH  28  30
ENDBRANCH  27  28
ENDBRANCH  26  27
ENDBRANCH  24  26
ENDBRANCH  16  24
BRANCH  19  33
HETATM   33  C   UNK N   1      38.681  13.442   6.487  0.00  0.00     0.041 C 
HETATM   34  C   UNK N   1      38.548  14.428   5.318  0.00  0.00     0.009 C 
HETATM   35  C   UNK N   1      37.772  13.812   4.152  0.00  0.00     0.001 C 
HETATM   36  C   UNK N   1      38.468  12.542   3.671  0.00  0.00     0.000 C 
HETATM   37  C   UNK N   1      38.604  11.540   4.816  0.00  0.00     0.001 C 
HETATM   38  C   UNK N   1      39.370  12.165   5.989  0.00  0.00     0.009 C 
ENDBRANCH  19  33
BRANCH  12  39
HETATM   39  O   UNK N   1      36.438  15.640  12.909  0.00  0.00    -0.395 OA
HETATM   40  H   UNK N   1      37.156  16.241  12.655  0.00  0.00     0.210 HD
ENDBRANCH  12  39
TORSDOF 7
ENDMDL
MODEL 7
REMARK VINA RESULT:      -7.2      2.218      4.770
REMARK  7 active torsions:
REMARK  status: ('A' for Active; 'I' for Inactive)
REMARK    1  A    between atoms: C_25  and  C_2 
REMARK    2  A    between atoms: C_18  and  O_29 
REMARK    3  A    between atoms: C_22  and  C_31 
REMARK    4  A    between atoms: C_31  and  C_33 
REMARK    5  A    between atoms: C_33  and  O_34 
REMARK    6  A    between atoms: O_34  and  C_35 
REMARK    7  A    between atoms: C_35  and  C_37 
ROOT
HETATM    1  C   UNK N   1      20.939  15.806   7.325  0.00  0.00     0.052 C 
HETATM    2  C   UNK N   1      20.062  15.721   6.133  0.00  0.00     0.171 C 
HETATM    3  C   UNK N   1      20.696  15.873   4.804  0.00  0.00     0.058 C 
HETATM    4  C   UNK N   1      22.266  15.641   7.163  0.00  0.00    -0.009 C 
HETATM    5  C   UNK N   1      22.793  15.053   5.861  0.00  0.00     0.004 C 
HETATM    6  C   UNK N   1      22.018  15.650   4.694  0.00  0.00    -0.064 C 
HETATM    7  C   UNK N   1      22.762  16.103   3.480  0.00  0.00     0.036 C 
HETATM    8  C   UNK N   1      23.864  17.090   3.903  0.00  0.00     0.010 C 
HETATM    9  C   UNK N   1      24.323  15.241   5.651  0.00  0.00     0.035 C 
HETATM   10  C   UNK N   1      24.675  16.665   5.155  0.00  0.00    -0.001 C 
HETATM   11  C   UNK N   1      26.372  15.746   7.156  0.00  0.00     0.045 C 
HETATM   12  C   UNK N   1      25.082  14.939   6.964  0.00  0.00     0.124 C 
HETATM   13  C   UNK N   1      27.134  16.015   5.853  0.00  0.00     0.004 C 
HETATM   14  C   UNK N   1      26.202  16.748   4.842  0.00  0.00     0.004 C 
HETATM   15  C   UNK N   1      26.688  18.182   4.822  0.00  0.00     0.041 C 
HETATM   16  C   UNK N   1      28.406  16.947   6.032  0.00  0.00     0.160 C 
HETATM   17  C   UNK N   1      28.189  18.077   5.019  0.00  0.00     0.168 C 
HETATM   18  O   UNK N   1      28.854  17.633   3.882  0.00  0.00    -0.352 OA
HETATM   19  C   UNK N   1      29.989  17.074   4.490  0.00  0.00     0.266 C 
HETATM   20  O   UNK N   1      29.576  16.304   5.590  0.00  0.00    -0.339 OA
HETATM   21  O   UNK N   1      18.849  15.717   6.251  0.00  0.00    -0.289 OA
HETATM   22  C   UNK N   1      22.484  13.557   5.919  0.00  0.00     0.025 C 
HETATM   23  C   UNK N   1      27.527  14.641   5.287  0.00  0.00     0.019 C 
ENDROOT
BRANCH  16  24
HETATM   24  C   UNK N   1      28.676  17.510   7.438  0.00  0.00     0.188 C 
HETATM   25  O   UNK N   1      28.190  18.583   7.766  0.00  0.00    -0.292 OA
BRANCH  24  26
HETATM   26  C   UNK N   1      29.633  16.868   8.397  0.00  0.00     0.260 C 
BRANCH  26  27
HETATM   27  O   UNK N   1      30.939  17.162   8.097  0.00  0.00    -0.314 OA
BRANCH  27  28
HETATM   28  C   UNK N   1      32.027  16.514   8.607  0.00  0.00     0.262 C 
HETATM   29  O   UNK N   1      31.891  15.348   8.940  0.00  0.00    -0.265 OA
BRANCH  28  30
HETATM   30  C   UNK N   1      33.413  17.135   8.782  0.00  0.00     0.077 C 
HETATM   31  C   UNK N   1      33.581  18.334   7.868  0.00  0.00     0.020 C 
HETATM   32  C   UNK N   1      34.630  16.239   8.631  0.00  0.00     0.020 C 
ENDBRANCH  28  30
ENDBRANCH  27  28
ENDBRANCH  26  27
ENDBRANCH  24  26
ENDBRANCH  16  24
BRANCH  19  33
HETATM   33  C   UNK N   1      30.841  16.276   3.504  0.00  0.00     0.041 C 
HETATM   34  C   UNK N   1      31.383  14.993   4.149  0.00  0.00     0.009 C 
HETATM   35  C   UNK N   1      32.335  15.308   5.305  0.00  0.00     0.001 C 
HETATM   36  C   UNK N   1      33.500  16.159   4.808  0.00  0.00     0.000 C 
HETATM   37  C   UNK N   1      32.986  17.448   4.168  0.00  0.00     0.001 C 
HETATM   38  C   UNK N   1      32.021  17.131   3.020  0.00  0.00     0.009 C 
ENDBRANCH  19  33
BRANCH  12  39
HETATM   39  O   UNK N   1      25.299  13.569   7.119  0.00  0.00    -0.395 OA
HETATM   40  H   UNK N   1      25.297  12.826   7.743  0.00  0.00     0.210 HD
ENDBRANCH  12  39
TORSDOF 7
ENDMDL
MODEL 8
REMARK VINA RESULT:      -6.4      8.879     13.328
REMARK  7 active torsions:
REMARK  status: ('A' for Active; 'I' for Inactive)
REMARK    1  A    between atoms: C_25  and  C_2 
REMARK    2  A    between atoms: C_18  and  O_29 
REMARK    3  A    between atoms: C_22  and  C_31 
REMARK    4  A    between atoms: C_31  and  C_33 
REMARK    5  A    between atoms: C_33  and  O_34 
REMARK    6  A    between atoms: O_34  and  C_35 
REMARK    7  A    between atoms: C_35  and  C_37 
ROOT
HETATM    1  C   UNK N   1      34.465  12.527  16.073  0.00  0.00     0.052 C 
HETATM    2  C   UNK N   1      35.385  11.706  16.895  0.00  0.00     0.171 C 
HETATM    3  C   UNK N   1      36.524  11.056  16.208  0.00  0.00     0.058 C 
HETATM    4  C   UNK N   1      34.884  12.951  14.865  0.00  0.00    -0.009 C 
HETATM    5  C   UNK N   1      36.365  12.874  14.518  0.00  0.00     0.004 C 
HETATM    6  C   UNK N   1      36.929  11.554  15.026  0.00  0.00    -0.064 C 
HETATM    7  C   UNK N   1      37.832  10.758  14.141  0.00  0.00     0.036 C 
HETATM    8  C   UNK N   1      37.132  10.515  12.793  0.00  0.00     0.010 C 
HETATM    9  C   UNK N   1      36.673  13.050  13.003  0.00  0.00     0.035 C 
HETATM   10  C   UNK N   1      36.412  11.754  12.198  0.00  0.00    -0.001 C 
HETATM   11  C   UNK N   1      35.447  14.040  10.945  0.00  0.00     0.045 C 
HETATM   12  C   UNK N   1      35.832  14.210  12.420  0.00  0.00     0.124 C 
HETATM   13  C   UNK N   1      36.523  13.348  10.099  0.00  0.00     0.004 C 
HETATM   14  C   UNK N   1      36.862  11.958  10.717  0.00  0.00     0.004 C 
HETATM   15  C   UNK N   1      36.214  10.946   9.795  0.00  0.00     0.041 C 
HETATM   16  C   UNK N   1      36.082  13.067   8.601  0.00  0.00     0.160 C 
HETATM   17  C   UNK N   1      36.325  11.565   8.414  0.00  0.00     0.168 C 
HETATM   18  O   UNK N   1      37.613  11.501   7.895  0.00  0.00    -0.352 OA
HETATM   19  C   UNK N   1      37.555  12.595   7.018  0.00  0.00     0.266 C 
HETATM   20  O   UNK N   1      36.961  13.678   7.688  0.00  0.00    -0.339 OA
HETATM   21  O   UNK N   1      35.106  11.425  18.049  0.00  0.00    -0.289 OA
HETATM   22  C   UNK N   1      37.039  14.007  15.293  0.00  0.00     0.025 C 
HETATM   23  C   UNK N   1      37.766  14.251  10.154  0.00  0.00     0.019 C 
ENDROOT
BRANCH  16  24
HETATM   24  C   UNK N   1      34.645  13.448   8.205  0.00  0.00     0.188 C 
HETATM   25  O   UNK N   1      34.356  14.621   8.022  0.00  0.00    -0.292 OA
BRANCH  24  26
HETATM   26  C   UNK N   1      33.526  12.451   8.167  0.00  0.00     0.260 C 
BRANCH  26  27
HETATM   27  O   UNK N   1      32.750  12.589   7.044  0.00  0.00    -0.314 OA
BRANCH  27  28
HETATM   28  C   UNK N   1      32.822  11.793   5.937  0.00  0.00     0.262 C 
HETATM   29  O   UNK N   1      32.017  10.882   5.838  0.00  0.00    -0.265 OA
BRANCH  28  30
HETATM   30  C   UNK N   1      33.831  11.963   4.801  0.00  0.00     0.077 C 
HETATM   31  C   UNK N   1      35.004  11.019   4.981  0.00  0.00     0.020 C 
HETATM   32  C   UNK N   1      34.371  13.355   4.518  0.00  0.00     0.020 C 
ENDBRANCH  28  30
ENDBRANCH  27  28
ENDBRANCH  26  27
ENDBRANCH  24  26
ENDBRANCH  16  24
BRANCH  19  33
HETATM   33  C   UNK N   1      38.926  12.947   6.439  0.00  0.00     0.041 C 
HETATM   34  C   UNK N   1      38.819  14.079   5.408  0.00  0.00     0.009 C 
HETATM   35  C   UNK N   1      37.992  13.653   4.193  0.00  0.00     0.001 C 
HETATM   36  C   UNK N   1      38.617  12.425   3.539  0.00  0.00     0.000 C 
HETATM   37  C   UNK N   1      38.726  11.279   4.543  0.00  0.00     0.001 C 
HETATM   38  C   UNK N   1      39.543  11.713   5.767  0.00  0.00     0.009 C 
ENDBRANCH  19  33
BRANCH  12  39
HETATM   39  O   UNK N   1      36.438  15.444  12.659  0.00  0.00    -0.395 OA
HETATM   40  H   UNK N   1      36.375  16.284  13.141  0.00  0.00     0.210 HD
ENDBRANCH  12  39
TORSDOF 7
ENDMDL
MODEL 9
REMARK VINA RESULT:      -6.2      8.717     13.381
REMARK  7 active torsions:
REMARK  status: ('A' for Active; 'I' for Inactive)
REMARK    1  A    between atoms: C_25  and  C_2 
REMARK    2  A    between atoms: C_18  and  O_29 
REMARK    3  A    between atoms: C_22  and  C_31 
REMARK    4  A    between atoms: C_31  and  C_33 
REMARK    5  A    between atoms: C_33  and  O_34 
REMARK    6  A    between atoms: O_34  and  C_35 
REMARK    7  A    between atoms: C_35  and  C_37 
ROOT
HETATM    1  C   UNK N   1      34.378  12.510  16.115  0.00  0.00     0.052 C 
HETATM    2  C   UNK N   1      35.350  11.843  17.014  0.00  0.00     0.171 C 
HETATM    3  C   UNK N   1      36.543  11.222  16.394  0.00  0.00     0.058 C 
HETATM    4  C   UNK N   1      34.776  12.850  14.874  0.00  0.00    -0.009 C 
HETATM    5  C   UNK N   1      36.261  12.855  14.540  0.00  0.00     0.004 C 
HETATM    6  C   UNK N   1      36.920  11.637  15.171  0.00  0.00    -0.064 C 
HETATM    7  C   UNK N   1      37.890  10.833  14.368  0.00  0.00     0.036 C 
HETATM    8  C   UNK N   1      37.224  10.412  13.046  0.00  0.00     0.010 C 
HETATM    9  C   UNK N   1      36.570  12.913  13.016  0.00  0.00     0.035 C 
HETATM   10  C   UNK N   1      36.417  11.531  12.336  0.00  0.00    -0.001 C 
HETATM   11  C   UNK N   1      35.292  13.608  10.870  0.00  0.00     0.045 C 
HETATM   12  C   UNK N   1      35.648  13.945  12.324  0.00  0.00     0.124 C 
HETATM   13  C   UNK N   1      36.426  12.925  10.096  0.00  0.00     0.004 C 
HETATM   14  C   UNK N   1      36.865  11.630  10.843  0.00  0.00     0.004 C 
HETATM   15  C   UNK N   1      36.305  10.489  10.019  0.00  0.00     0.041 C 
HETATM   16  C   UNK N   1      36.023  12.472   8.630  0.00  0.00     0.160 C 
HETATM   17  C   UNK N   1      36.382  10.982   8.586  0.00  0.00     0.168 C 
HETATM   18  O   UNK N   1      37.676  10.971   8.078  0.00  0.00    -0.352 OA
HETATM   19  C   UNK N   1      37.544  11.970   7.103  0.00  0.00     0.266 C 
HETATM   20  O   UNK N   1      36.861  13.061   7.666  0.00  0.00    -0.339 OA
HETATM   21  O   UNK N   1      35.083  11.650  18.188  0.00  0.00    -0.289 OA
HETATM   22  C   UNK N   1      36.839  14.105  15.206  0.00  0.00     0.025 C 
HETATM   23  C   UNK N   1      37.596  13.923  10.069  0.00  0.00     0.019 C 
ENDROOT
BRANCH  16  24
HETATM   24  C   UNK N   1      34.565  12.702   8.197  0.00  0.00     0.188 C 
HETATM   25  O   UNK N   1      33.743  11.808   8.334  0.00  0.00    -0.292 OA
BRANCH  24  26
HETATM   26  C   UNK N   1      34.122  13.938   7.474  0.00  0.00     0.260 C 
BRANCH  26  27
HETATM   27  O   UNK N   1      34.992  14.983   7.659  0.00  0.00    -0.314 OA
BRANCH  27  28
HETATM   28  C   UNK N   1      34.768  16.271   7.265  0.00  0.00     0.262 C 
HETATM   29  O   UNK N   1      34.748  16.505   6.068  0.00  0.00    -0.265 OA
BRANCH  28  30
HETATM   30  C   UNK N   1      34.525  17.446   8.212  0.00  0.00     0.077 C 
HETATM   31  C   UNK N   1      34.685  17.011   9.656  0.00  0.00     0.020 C 
HETATM   32  C   UNK N   1      33.225  18.221   8.082  0.00  0.00     0.020 C 
ENDBRANCH  28  30
ENDBRANCH  27  28
ENDBRANCH  26  27
ENDBRANCH  24  26
ENDBRANCH  16  24
BRANCH  19  33
HETATM   33  C   UNK N   1      38.889  12.371   6.497  0.00  0.00     0.041 C 
HETATM   34  C   UNK N   1      39.451  11.254   5.606  0.00  0.00     0.009 C 
HETATM   35  C   UNK N   1      39.762   9.995   6.418  0.00  0.00     0.001 C 
HETATM   36  C   UNK N   1      40.762  10.317   7.525  0.00  0.00     0.000 C 
HETATM   37  C   UNK N   1      40.220  11.421   8.431  0.00  0.00     0.001 C 
HETATM   38  C   UNK N   1      39.896  12.677   7.613  0.00  0.00     0.009 C 
ENDBRANCH  19  33
BRANCH  12  39
HETATM   39  O   UNK N   1      36.155  15.239  12.448  0.00  0.00    -0.395 OA
HETATM   40  H   UNK N   1      36.502  15.905  13.063  0.00  0.00     0.210 HD
ENDBRANCH  12  39
TORSDOF 7
ENDMDL
