MODEL 1
REMARK VINA RESULT:      -8.5      0.000      0.000
REMARK  17 active torsions:
REMARK  status: ('A' for Active; 'I' for Inactive)
REMARK    1  A    between atoms: C_24  and  C_19 
REMARK    2  A    between atoms: C_30  and  C_19 
REMARK    3  A    between atoms: C_31  and  C_21 
REMARK    4  A    between atoms: C_34  and  C_21 
REMARK    5  A    between atoms: C_33  and  C_23 
REMARK    6  A    between atoms: N_48  and  C_23 
REMARK    7  A    between atoms: C_35  and  C_29 
REMARK    8  A    between atoms: C_33  and  C_30 
REMARK    9  A    between atoms: C_30  and  N_43 
REMARK   10  A    between atoms: C_36  and  C_31 
REMARK   11  A    between atoms: C_31  and  N_45 
REMARK   12  A    between atoms: C_32  and  C_37 
REMARK   13  A    between atoms: C_33  and  O_49 
REMARK   14  A    between atoms: O_50  and  C_34 
REMARK       I    between atoms: N_45  and  C_35 
REMARK   15  A    between atoms: C_36  and  O_52 
REMARK   16  A    between atoms: O_53  and  C_37 
REMARK   17  A    between atoms: N_46  and  C_38 
ROOT
HETATM    1  C   UNK N   1      32.768  16.049   7.254  0.00  0.00     0.118 C 
ENDROOT
BRANCH   1   2
HETATM    2  C   UNK N   1      32.265  17.194   8.158  0.00  0.00     0.066 C 
BRANCH   2   3
HETATM    3  C   UNK N   1      30.823  17.590   8.213  0.00  0.00    -0.056 A 
HETATM    4  C   UNK N   1      30.350  18.365   9.281  0.00  0.00     0.007 A 
HETATM    5  C   UNK N   1      28.980  18.595   9.437  0.00  0.00     0.001 A 
HETATM    6  C   UNK N   1      28.072  18.025   8.543  0.00  0.00     0.000 A 
HETATM    7  C   UNK N   1      28.535  17.228   7.491  0.00  0.00     0.001 A 
HETATM    8  C   UNK N   1      29.907  16.999   7.335  0.00  0.00     0.007 A 
ENDBRANCH   2   3
ENDBRANCH   1   2
BRANCH   1   9
HETATM    9  C   UNK N   1      33.333  16.479   5.880  0.00  0.00     0.158 C 
BRANCH   9  10
HETATM   10  C   UNK N   1      32.351  16.592   4.714  0.00  0.00     0.151 C 
BRANCH  10  11
HETATM   11  N   UNK N   1      32.446  15.361   3.928  0.00  0.00    -0.398 N 
HETATM   12  C   UNK N   1      33.382  15.544   2.830  0.00  0.00     0.122 C 
HETATM   13  C   UNK N   1      34.004  14.189   2.598  0.00  0.00     0.007 C 
HETATM   14  C   UNK N   1      35.139  14.258   1.585  0.00  0.00     0.006 C 
HETATM   15  C   UNK N   1      32.908  13.220   2.113  0.00  0.00    -0.006 C 
HETATM   16  C   UNK N   1      35.761  12.869   1.448  0.00  0.00     0.000 C 
HETATM   17  C   UNK N   1      34.708  11.850   1.006  0.00  0.00     0.000 C 
HETATM   18  C   UNK N   1      33.516  11.826   1.967  0.00  0.00     0.005 C 
HETATM   19  C   UNK N   1      31.745  13.168   3.110  0.00  0.00     0.038 C 
HETATM   20  C   UNK N   1      31.249  14.566   3.534  0.00  0.00     0.154 C 
BRANCH  20  21
HETATM   21  C   UNK N   1      30.307  14.325   4.713  0.00  0.00     0.135 C 
HETATM   22  N   UNK N   1      29.094  14.788   4.794  0.00  0.00    -0.365 N 
ATOM     23  HN  UNK N   1      28.609  14.604   5.672  1.00  0.00     0.162 HD
BRANCH  22  24
HETATM   24  C   UNK N   1      28.341  15.533   3.801  0.00  0.00     0.021 C 
HETATM   25  C   UNK N   1      26.916  15.665   4.279  0.00  0.00     0.037 C 
HETATM   26  C   UNK N   1      28.328  14.769   2.488  0.00  0.00     0.037 C 
HETATM   27  C   UNK N   1      28.843  16.952   3.611  0.00  0.00     0.037 C 
ENDBRANCH  22  24
BRANCH  21  28
HETATM   28  O   UNK N   1      30.773  13.593   5.748  0.00  0.00    -0.348 OA
HETATM   29  H   UNK N   1      30.808  13.300   6.637  0.00  0.00     0.219 HD
ENDBRANCH  21  28
ENDBRANCH  20  21
ENDBRANCH  10  11
ENDBRANCH   9  10
BRANCH   9  30
HETATM   30  O   UNK N   1      34.159  17.601   5.975  0.00  0.00    -0.392 OA
HETATM   31  H   UNK N   1      34.437  18.430   5.555  0.00  0.00     0.210 HD
ENDBRANCH   9  30
ENDBRANCH   1   9
BRANCH   1  32
HETATM   32  N   UNK N   1      33.867  15.462   8.001  0.00  0.00    -0.365 N 
HETATM   33  C   UNK N   1      33.746  14.431   8.772  0.00  0.00     0.135 C 
ATOM     34  HN  UNK N   1      34.790  15.889   7.912  1.00  0.00     0.161 HD
BRANCH  33  35
HETATM   35  C   UNK N   1      34.955  13.887   9.476  0.00  0.00     0.166 C 
BRANCH  35  36
HETATM   36  C   UNK N   1      35.934  15.061   9.645  0.00  0.00     0.117 C 
BRANCH  36  37
HETATM   37  C   UNK N   1      35.798  15.785  10.953  0.00  0.00     0.111 C 
HETATM   38  N   UNK N   1      35.129  16.875  11.033  0.00  0.00    -0.384 N 
HETATM   39  H   UNK N   1      34.679  17.219  11.838  0.00  0.00     0.157 HD
ATOM     40  HN  UNK N   1      35.057  17.438  10.185  1.00  0.00     0.157 HD
BRANCH  37  41
HETATM   41  O   UNK N   1      36.349  15.257  12.059  0.00  0.00    -0.350 OA
HETATM   42  H   UNK N   1      35.875  14.770  12.704  0.00  0.00     0.219 HD
ENDBRANCH  37  41
ENDBRANCH  36  37
ENDBRANCH  35  36
BRANCH  35  43
HETATM   43  N   UNK N   1      34.530  13.308  10.753  0.00  0.00    -0.343 N 
HETATM   44  C   UNK N   1      34.938  12.097  11.243  0.00  0.00     0.268 C 
HETATM   45  O   UNK N   1      35.567  11.322  10.542  0.00  0.00    -0.266 OA
HETATM   46  H   UNK N   1      33.901  13.831  11.302  0.00  0.00     0.163 HD
BRANCH  44  47
HETATM   47  C   UNK N   1      34.736  11.768  12.669  0.00  0.00     0.101 A 
HETATM   48  C   UNK N   1      34.335  10.464  13.004  0.00  0.00     0.036 A 
HETATM   49  C   UNK N   1      34.311  10.067  14.338  0.00  0.00     0.016 A 
HETATM   50  C   UNK N   1      34.669  10.972  15.329  0.00  0.00    -0.009 A 
HETATM   51  C   UNK N   1      34.696  10.580  16.669  0.00  0.00     0.013 A 
HETATM   52  C   UNK N   1      35.017  12.294  14.970  0.00  0.00     0.043 A 
HETATM   53  C   UNK N   1      35.064  11.499  17.656  0.00  0.00     0.001 A 
HETATM   54  C   UNK N   1      35.387  12.815  17.306  0.00  0.00     0.002 A 
HETATM   55  C   UNK N   1      35.364  13.213  15.964  0.00  0.00     0.030 A 
HETATM   56  N   UNK N   1      35.059  12.651  13.653  0.00  0.00    -0.351 N 
ATOM     57  HN  UNK N   1      35.338  13.599  13.402  1.00  0.00     0.166 HD
ENDBRANCH  44  47
ENDBRANCH  35  43
ENDBRANCH  33  35
BRANCH  33  58
HETATM   58  O   UNK N   1      32.534  13.874   8.996  0.00  0.00    -0.348 OA
HETATM   59  H   UNK N   1      31.726  13.594   8.612  0.00  0.00     0.219 HD
ENDBRANCH  33  58
ENDBRANCH   1  32
TORSDOF 17
ENDMDL
MODEL 2
REMARK VINA RESULT:      -8.4      3.031     10.149
REMARK  17 active torsions:
REMARK  status: ('A' for Active; 'I' for Inactive)
REMARK    1  A    between atoms: C_24  and  C_19 
REMARK    2  A    between atoms: C_30  and  C_19 
REMARK    3  A    between atoms: C_31  and  C_21 
REMARK    4  A    between atoms: C_34  and  C_21 
REMARK    5  A    between atoms: C_33  and  C_23 
REMARK    6  A    between atoms: N_48  and  C_23 
REMARK    7  A    between atoms: C_35  and  C_29 
REMARK    8  A    between atoms: C_33  and  C_30 
REMARK    9  A    between atoms: C_30  and  N_43 
REMARK   10  A    between atoms: C_36  and  C_31 
REMARK   11  A    between atoms: C_31  and  N_45 
REMARK   12  A    between atoms: C_32  and  C_37 
REMARK   13  A    between atoms: C_33  and  O_49 
REMARK   14  A    between atoms: O_50  and  C_34 
REMARK       I    between atoms: N_45  and  C_35 
REMARK   15  A    between atoms: C_36  and  O_52 
REMARK   16  A    between atoms: O_53  and  C_37 
REMARK   17  A    between atoms: N_46  and  C_38 
ROOT
HETATM    1  C   UNK N   1      36.419  14.091  11.359  0.00  0.00     0.118 C 
ENDROOT
BRANCH   1   2
HETATM    2  C   UNK N   1      35.300  13.900  12.404  0.00  0.00     0.066 C 
BRANCH   2   3
HETATM    3  C   UNK N   1      35.594  13.579  13.836  0.00  0.00    -0.056 A 
HETATM    4  C   UNK N   1      34.708  12.779  14.571  0.00  0.00     0.007 A 
HETATM    5  C   UNK N   1      34.879  12.615  15.948  0.00  0.00     0.001 A 
HETATM    6  C   UNK N   1      35.920  13.274  16.604  0.00  0.00     0.000 A 
HETATM    7  C   UNK N   1      36.790  14.095  15.882  0.00  0.00     0.001 A 
HETATM    8  C   UNK N   1      36.620  14.260  14.503  0.00  0.00     0.007 A 
ENDBRANCH   2   3
ENDBRANCH   1   2
BRANCH   1   9
HETATM    9  C   UNK N   1      37.512  12.996  11.340  0.00  0.00     0.158 C 
BRANCH   9  10
HETATM   10  C   UNK N   1      37.156  11.651  10.706  0.00  0.00     0.151 C 
BRANCH  10  11
HETATM   11  N   UNK N   1      36.557  10.811  11.745  0.00  0.00    -0.398 N 
HETATM   12  C   UNK N   1      37.593  10.299  12.627  0.00  0.00     0.122 C 
HETATM   13  C   UNK N   1      36.942  10.164  13.981  0.00  0.00     0.007 C 
HETATM   14  C   UNK N   1      37.955   9.798  15.058  0.00  0.00     0.006 C 
HETATM   15  C   UNK N   1      35.838   9.091  13.893  0.00  0.00    -0.006 C 
HETATM   16  C   UNK N   1      37.239   9.741  16.407  0.00  0.00     0.000 C 
HETATM   17  C   UNK N   1      36.102   8.718  16.370  0.00  0.00     0.000 C 
HETATM   18  C   UNK N   1      35.116   9.020  15.238  0.00  0.00     0.005 C 
HETATM   19  C   UNK N   1      34.831   9.434  12.789  0.00  0.00     0.038 C 
HETATM   20  C   UNK N   1      35.502   9.801  11.450  0.00  0.00     0.154 C 
BRANCH  20  21
HETATM   21  C   UNK N   1      34.387  10.372  10.577  0.00  0.00     0.135 C 
HETATM   22  N   UNK N   1      34.015   9.873   9.435  0.00  0.00    -0.365 N 
ATOM     23  HN  UNK N   1      33.303  10.404   8.932  1.00  0.00     0.162 HD
BRANCH  22  24
HETATM   24  C   UNK N   1      34.478   8.661   8.783  0.00  0.00     0.021 C 
HETATM   25  C   UNK N   1      33.840   8.577   7.418  0.00  0.00     0.037 C 
HETATM   26  C   UNK N   1      34.038   7.447   9.583  0.00  0.00     0.037 C 
HETATM   27  C   UNK N   1      35.975   8.650   8.538  0.00  0.00     0.037 C 
ENDBRANCH  22  24
BRANCH  21  28
HETATM   28  O   UNK N   1      33.756  11.483  11.015  0.00  0.00    -0.348 OA
HETATM   29  H   UNK N   1      33.621  12.405  11.111  0.00  0.00     0.219 HD
ENDBRANCH  21  28
ENDBRANCH  20  21
ENDBRANCH  10  11
ENDBRANCH   9  10
BRANCH   9  30
HETATM   30  O   UNK N   1      38.738  13.480  10.880  0.00  0.00    -0.392 OA
HETATM   31  H   UNK N   1      39.197  14.213  10.443  0.00  0.00     0.210 HD
ENDBRANCH   9  30
ENDBRANCH   1   9
BRANCH   1  32
HETATM   32  N   UNK N   1      35.729  14.024  10.082  0.00  0.00    -0.365 N 
HETATM   33  C   UNK N   1      35.415  15.062   9.377  0.00  0.00     0.135 C 
ATOM     34  HN  UNK N   1      35.477  13.104   9.720  1.00  0.00     0.161 HD
BRANCH  33  35
HETATM   35  C   UNK N   1      34.728  14.879   8.055  0.00  0.00     0.166 C 
BRANCH  35  36
HETATM   36  C   UNK N   1      34.699  13.366   7.777  0.00  0.00     0.117 C 
BRANCH  36  37
HETATM   37  C   UNK N   1      33.318  12.782   7.724  0.00  0.00     0.111 C 
HETATM   38  N   UNK N   1      32.861  12.272   6.641  0.00  0.00    -0.384 N 
HETATM   39  H   UNK N   1      32.174  11.571   6.576  0.00  0.00     0.157 HD
ATOM     40  HN  UNK N   1      33.246  12.626   5.764  1.00  0.00     0.157 HD
BRANCH  37  41
HETATM   41  O   UNK N   1      32.569  12.757   8.840  0.00  0.00    -0.350 OA
HETATM   42  H   UNK N   1      32.884  12.985   9.692  0.00  0.00     0.219 HD
ENDBRANCH  37  41
ENDBRANCH  36  37
ENDBRANCH  35  36
BRANCH  35  43
HETATM   43  N   UNK N   1      33.389  15.470   8.140  0.00  0.00    -0.343 N 
HETATM   44  C   UNK N   1      33.067  16.745   7.759  0.00  0.00     0.268 C 
HETATM   45  O   UNK N   1      33.939  17.550   7.479  0.00  0.00    -0.266 OA
HETATM   46  H   UNK N   1      32.666  14.907   8.498  0.00  0.00     0.163 HD
BRANCH  44  47
HETATM   47  C   UNK N   1      31.654  17.122   7.556  0.00  0.00     0.101 A 
HETATM   48  C   UNK N   1      30.958  17.712   8.625  0.00  0.00     0.036 A 
HETATM   49  C   UNK N   1      29.689  18.244   8.418  0.00  0.00     0.016 A 
HETATM   50  C   UNK N   1      29.113  18.171   7.156  0.00  0.00    -0.009 A 
HETATM   51  C   UNK N   1      27.861  18.740   6.916  0.00  0.00     0.013 A 
HETATM   52  C   UNK N   1      29.811  17.525   6.110  0.00  0.00     0.043 A 
HETATM   53  C   UNK N   1      27.295  18.665   5.639  0.00  0.00     0.001 A 
HETATM   54  C   UNK N   1      27.972  18.005   4.607  0.00  0.00     0.002 A 
HETATM   55  C   UNK N   1      29.230  17.436   4.842  0.00  0.00     0.030 A 
HETATM   56  N   UNK N   1      31.066  17.035   6.332  0.00  0.00    -0.351 N 
ATOM     57  HN  UNK N   1      31.572  16.595   5.564  1.00  0.00     0.166 HD
ENDBRANCH  44  47
ENDBRANCH  35  43
ENDBRANCH  33  35
BRANCH  33  58
HETATM   58  O   UNK N   1      35.648  16.311   9.843  0.00  0.00    -0.348 OA
HETATM   59  H   UNK N   1      35.973  16.824  10.556  0.00  0.00     0.219 HD
ENDBRANCH  33  58
ENDBRANCH   1  32
TORSDOF 17
ENDMDL
MODEL 3
REMARK VINA RESULT:      -8.1      2.265      5.436
REMARK  17 active torsions:
REMARK  status: ('A' for Active; 'I' for Inactive)
REMARK    1  A    between atoms: C_24  and  C_19 
REMARK    2  A    between atoms: C_30  and  C_19 
REMARK    3  A    between atoms: C_31  and  C_21 
REMARK    4  A    between atoms: C_34  and  C_21 
REMARK    5  A    between atoms: C_33  and  C_23 
REMARK    6  A    between atoms: N_48  and  C_23 
REMARK    7  A    between atoms: C_35  and  C_29 
REMARK    8  A    between atoms: C_33  and  C_30 
REMARK    9  A    between atoms: C_30  and  N_43 
REMARK   10  A    between atoms: C_36  and  C_31 
REMARK   11  A    between atoms: C_31  and  N_45 
REMARK   12  A    between atoms: C_32  and  C_37 
REMARK   13  A    between atoms: C_33  and  O_49 
REMARK   14  A    between atoms: O_50  and  C_34 
REMARK       I    between atoms: N_45  and  C_35 
REMARK   15  A    between atoms: C_36  and  O_52 
REMARK   16  A    between atoms: O_53  and  C_37 
REMARK   17  A    between atoms: N_46  and  C_38 
ROOT
HETATM    1  C   UNK N   1      32.363  15.981   4.983  0.00  0.00     0.118 C 
ENDROOT
BRANCH   1   2
HETATM    2  C   UNK N   1      31.863  14.526   5.104  0.00  0.00     0.066 C 
BRANCH   2   3
HETATM    3  C   UNK N   1      31.813  13.600   3.928  0.00  0.00    -0.056 A 
HETATM    4  C   UNK N   1      31.129  12.381   4.025  0.00  0.00     0.007 A 
HETATM    5  C   UNK N   1      31.220  11.435   3.001  0.00  0.00     0.001 A 
HETATM    6  C   UNK N   1      32.022  11.690   1.887  0.00  0.00     0.000 A 
HETATM    7  C   UNK N   1      32.729  12.892   1.797  0.00  0.00     0.001 A 
HETATM    8  C   UNK N   1      32.637  13.840   2.823  0.00  0.00     0.007 A 
ENDBRANCH   2   3
ENDBRANCH   1   2
BRANCH   1   9
HETATM    9  C   UNK N   1      31.456  16.936   4.172  0.00  0.00     0.158 C 
BRANCH   9  10
HETATM   10  C   UNK N   1      30.239  17.529   4.881  0.00  0.00     0.151 C 
BRANCH  10  11
HETATM   11  N   UNK N   1      29.063  16.757   4.476  0.00  0.00    -0.398 N 
HETATM   12  C   UNK N   1      29.242  16.253   3.124  0.00  0.00     0.122 C 
HETATM   13  C   UNK N   1      28.494  14.944   3.077  0.00  0.00     0.007 C 
HETATM   14  C   UNK N   1      28.734  14.206   1.767  0.00  0.00     0.006 C 
HETATM   15  C   UNK N   1      26.991  15.227   3.269  0.00  0.00    -0.006 C 
HETATM   16  C   UNK N   1      28.000  12.866   1.816  0.00  0.00     0.000 C 
HETATM   17  C   UNK N   1      26.502  13.081   2.045  0.00  0.00     0.000 C 
HETATM   18  C   UNK N   1      26.243  13.896   3.316  0.00  0.00     0.005 C 
HETATM   19  C   UNK N   1      26.743  15.999   4.570  0.00  0.00     0.038 C 
HETATM   20  C   UNK N   1      27.671  17.220   4.736  0.00  0.00     0.154 C 
BRANCH  20  21
HETATM   21  C   UNK N   1      27.480  17.685   6.179  0.00  0.00     0.135 C 
HETATM   22  N   UNK N   1      27.109  18.882   6.525  0.00  0.00    -0.365 N 
ATOM     23  HN  UNK N   1      27.092  19.067   7.528  1.00  0.00     0.162 HD
BRANCH  22  24
HETATM   24  C   UNK N   1      26.716  19.990   5.672  0.00  0.00     0.021 C 
HETATM   25  C   UNK N   1      27.818  20.240   4.672  0.00  0.00     0.037 C 
HETATM   26  C   UNK N   1      26.545  21.247   6.508  0.00  0.00     0.037 C 
HETATM   27  C   UNK N   1      25.474  19.698   4.851  0.00  0.00     0.037 C 
ENDBRANCH  22  24
BRANCH  21  28
HETATM   28  O   UNK N   1      27.730  16.794   7.162  0.00  0.00    -0.348 OA
HETATM   29  H   UNK N   1      27.863  15.940   7.525  0.00  0.00     0.219 HD
ENDBRANCH  21  28
ENDBRANCH  20  21
ENDBRANCH  10  11
ENDBRANCH   9  10
BRANCH   9  30
HETATM   30  O   UNK N   1      32.188  17.910   3.490  0.00  0.00    -0.392 OA
HETATM   31  H   UNK N   1      32.832  18.082   2.786  0.00  0.00     0.210 HD
ENDBRANCH   9  30
ENDBRANCH   1   9
BRANCH   1  32
HETATM   32  N   UNK N   1      32.376  16.468   6.352  0.00  0.00    -0.365 N 
HETATM   33  C   UNK N   1      33.211  17.350   6.795  0.00  0.00     0.135 C 
ATOM     34  HN  UNK N   1      31.685  16.093   7.002  1.00  0.00     0.161 HD
BRANCH  33  35
HETATM   35  C   UNK N   1      33.119  17.807   8.222  0.00  0.00     0.166 C 
BRANCH  35  36
HETATM   36  C   UNK N   1      31.751  18.492   8.379  0.00  0.00     0.117 C 
BRANCH  36  37
HETATM   37  C   UNK N   1      30.689  17.607   8.965  0.00  0.00     0.111 C 
HETATM   38  N   UNK N   1      30.038  17.965  10.009  0.00  0.00    -0.384 N 
HETATM   39  H   UNK N   1      29.129  17.675  10.251  0.00  0.00     0.157 HD
ATOM     40  HN  UNK N   1      30.505  18.610  10.648  1.00  0.00     0.157 HD
BRANCH  37  41
HETATM   41  O   UNK N   1      30.391  16.445   8.359  0.00  0.00    -0.350 OA
HETATM   42  H   UNK N   1      30.479  15.602   8.760  0.00  0.00     0.219 HD
ENDBRANCH  37  41
ENDBRANCH  36  37
ENDBRANCH  35  36
BRANCH  35  43
HETATM   43  N   UNK N   1      33.278  16.641   9.096  0.00  0.00    -0.343 N 
HETATM   44  C   UNK N   1      34.271  15.705   8.985  0.00  0.00     0.268 C 
HETATM   45  O   UNK N   1      35.007  15.690   8.013  0.00  0.00    -0.266 OA
HETATM   46  H   UNK N   1      32.620  16.521   9.818  0.00  0.00     0.163 HD
BRANCH  44  47
HETATM   47  C   UNK N   1      34.549  14.784  10.106  0.00  0.00     0.101 A 
HETATM   48  C   UNK N   1      34.339  13.409   9.909  0.00  0.00     0.036 A 
HETATM   49  C   UNK N   1      34.759  12.497  10.874  0.00  0.00     0.016 A 
HETATM   50  C   UNK N   1      35.368  12.960  12.033  0.00  0.00    -0.009 A 
HETATM   51  C   UNK N   1      35.839  12.060  12.992  0.00  0.00     0.013 A 
HETATM   52  C   UNK N   1      35.518  14.351  12.232  0.00  0.00     0.043 A 
HETATM   53  C   UNK N   1      36.455  12.538  14.152  0.00  0.00     0.001 A 
HETATM   54  C   UNK N   1      36.584  13.915  14.364  0.00  0.00     0.002 A 
HETATM   55  C   UNK N   1      36.117  14.821  13.404  0.00  0.00     0.030 A 
HETATM   56  N   UNK N   1      35.123  15.223  11.259  0.00  0.00    -0.351 N 
ATOM     57  HN  UNK N   1      35.260  16.223  11.400  1.00  0.00     0.166 HD
ENDBRANCH  44  47
ENDBRANCH  35  43
ENDBRANCH  33  35
BRANCH  33  58
HETATM   58  O   UNK N   1      34.203  17.822   6.004  0.00  0.00    -0.348 OA
HETATM   59  H   UNK N   1      35.114  18.030   5.945  0.00  0.00     0.219 HD
ENDBRANCH  33  58
ENDBRANCH   1  32
TORSDOF 17
ENDMDL
MODEL 4
REMARK VINA RESULT:      -8.0      3.617      6.316
REMARK  17 active torsions:
REMARK  status: ('A' for Active; 'I' for Inactive)
REMARK    1  A    between atoms: C_24  and  C_19 
REMARK    2  A    between atoms: C_30  and  C_19 
REMARK    3  A    between atoms: C_31  and  C_21 
REMARK    4  A    between atoms: C_34  and  C_21 
REMARK    5  A    between atoms: C_33  and  C_23 
REMARK    6  A    between atoms: N_48  and  C_23 
REMARK    7  A    between atoms: C_35  and  C_29 
REMARK    8  A    between atoms: C_33  and  C_30 
REMARK    9  A    between atoms: C_30  and  N_43 
REMARK   10  A    between atoms: C_36  and  C_31 
REMARK   11  A    between atoms: C_31  and  N_45 
REMARK   12  A    between atoms: C_32  and  C_37 
REMARK   13  A    between atoms: C_33  and  O_49 
REMARK   14  A    between atoms: O_50  and  C_34 
REMARK       I    between atoms: N_45  and  C_35 
REMARK   15  A    between atoms: C_36  and  O_52 
REMARK   16  A    between atoms: O_53  and  C_37 
REMARK   17  A    between atoms: N_46  and  C_38 
ROOT
HETATM    1  C   UNK N   1      33.837  12.541   7.790  0.00  0.00     0.118 C 
ENDROOT
BRANCH   1   2
HETATM    2  C   UNK N   1      33.443  13.656   6.799  0.00  0.00     0.066 C 
BRANCH   2   3
HETATM    3  C   UNK N   1      33.297  15.084   7.224  0.00  0.00    -0.056 A 
HETATM    4  C   UNK N   1      32.172  15.484   7.959  0.00  0.00     0.007 A 
HETATM    5  C   UNK N   1      31.937  16.838   8.212  0.00  0.00     0.001 A 
HETATM    6  C   UNK N   1      32.809  17.803   7.704  0.00  0.00     0.000 A 
HETATM    7  C   UNK N   1      33.917  17.412   6.946  0.00  0.00     0.001 A 
HETATM    8  C   UNK N   1      34.152  16.056   6.693  0.00  0.00     0.007 A 
ENDBRANCH   2   3
ENDBRANCH   1   2
BRANCH   1   9
HETATM    9  C   UNK N   1      34.800  11.463   7.237  0.00  0.00     0.158 C 
BRANCH   9  10
HETATM   10  C   UNK N   1      34.278  10.029   7.141  0.00  0.00     0.151 C 
BRANCH  10  11
HETATM   11  N   UNK N   1      34.349   9.436   8.477  0.00  0.00    -0.398 N 
HETATM   12  C   UNK N   1      35.710   9.012   8.760  0.00  0.00     0.122 C 
HETATM   13  C   UNK N   1      35.884   9.171  10.251  0.00  0.00     0.007 C 
HETATM   14  C   UNK N   1      37.324   8.926  10.678  0.00  0.00     0.006 C 
HETATM   15  C   UNK N   1      34.935   8.188  10.965  0.00  0.00    -0.006 C 
HETATM   16  C   UNK N   1      37.437   9.167  12.184  0.00  0.00     0.000 C 
HETATM   17  C   UNK N   1      36.486   8.244  12.948  0.00  0.00     0.000 C 
HETATM   18  C   UNK N   1      35.040   8.414  12.472  0.00  0.00     0.005 C 
HETATM   19  C   UNK N   1      33.485   8.404  10.516  0.00  0.00     0.038 C 
HETATM   20  C   UNK N   1      33.330   8.474   8.983  0.00  0.00     0.154 C 
BRANCH  20  21
HETATM   21  C   UNK N   1      31.905   8.964   8.737  0.00  0.00     0.135 C 
HETATM   22  N   UNK N   1      31.007   8.313   8.059  0.00  0.00    -0.365 N 
ATOM     23  HN  UNK N   1      30.120   8.798   7.920  1.00  0.00     0.162 HD
BRANCH  22  24
HETATM   24  C   UNK N   1      31.101   6.987   7.473  0.00  0.00     0.021 C 
HETATM   25  C   UNK N   1      32.149   7.015   6.387  0.00  0.00     0.037 C 
HETATM   26  C   UNK N   1      29.774   6.612   6.836  0.00  0.00     0.037 C 
HETATM   27  C   UNK N   1      31.560   5.930   8.460  0.00  0.00     0.037 C 
ENDBRANCH  22  24
BRANCH  21  28
HETATM   28  O   UNK N   1      31.559  10.166   9.249  0.00  0.00    -0.348 OA
HETATM   29  H   UNK N   1      31.032  10.935   9.337  0.00  0.00     0.219 HD
ENDBRANCH  21  28
ENDBRANCH  20  21
ENDBRANCH  10  11
ENDBRANCH   9  10
BRANCH   9  30
HETATM   30  O   UNK N   1      35.427  11.869   6.057  0.00  0.00    -0.392 OA
HETATM   31  H   UNK N   1      35.416  12.498   5.319  0.00  0.00     0.210 HD
ENDBRANCH   9  30
ENDBRANCH   1   9
BRANCH   1  32
HETATM   32  N   UNK N   1      34.544  13.238   8.849  0.00  0.00    -0.365 N 
HETATM   33  C   UNK N   1      34.488  12.902  10.097  0.00  0.00     0.135 C 
ATOM     34  HN  UNK N   1      35.120  14.041   8.595  1.00  0.00     0.161 HD
BRANCH  33  35
HETATM   35  C   UNK N   1      35.283  13.674  11.109  0.00  0.00     0.166 C 
BRANCH  35  36
HETATM   36  C   UNK N   1      34.610  15.050  11.244  0.00  0.00     0.117 C 
BRANCH  36  37
HETATM   37  C   UNK N   1      35.495  16.202  10.864  0.00  0.00     0.111 C 
HETATM   38  N   UNK N   1      34.993  17.306  10.451  0.00  0.00    -0.384 N 
HETATM   39  H   UNK N   1      35.410  18.195  10.526  0.00  0.00     0.157 HD
ATOM     40  HN  UNK N   1      34.078  17.261  10.002  1.00  0.00     0.157 HD
BRANCH  37  41
HETATM   41  O   UNK N   1      36.826  16.084  11.002  0.00  0.00    -0.350 OA
HETATM   42  H   UNK N   1      37.250  15.731  11.760  0.00  0.00     0.219 HD
ENDBRANCH  37  41
ENDBRANCH  36  37
ENDBRANCH  35  36
BRANCH  35  43
HETATM   43  N   UNK N   1      35.298  12.919  12.365  0.00  0.00    -0.343 N 
HETATM   44  C   UNK N   1      35.893  13.336  13.526  0.00  0.00     0.268 C 
HETATM   45  O   UNK N   1      36.619  14.315  13.537  0.00  0.00    -0.266 OA
HETATM   46  H   UNK N   1      34.847  12.045  12.375  0.00  0.00     0.163 HD
BRANCH  44  47
HETATM   47  C   UNK N   1      35.556  12.681  14.807  0.00  0.00     0.101 A 
HETATM   48  C   UNK N   1      35.458  11.280  14.836  0.00  0.00     0.036 A 
HETATM   49  C   UNK N   1      35.323  10.619  16.053  0.00  0.00     0.016 A 
HETATM   50  C   UNK N   1      35.270  11.355  17.230  0.00  0.00    -0.009 A 
HETATM   51  C   UNK N   1      35.181  10.709  18.465  0.00  0.00     0.013 A 
HETATM   52  C   UNK N   1      35.316  12.766  17.170  0.00  0.00     0.043 A 
HETATM   53  C   UNK N   1      35.134  11.461  19.642  0.00  0.00     0.001 A 
HETATM   54  C   UNK N   1      35.157  12.860  19.585  0.00  0.00     0.002 A 
HETATM   55  C   UNK N   1      35.248  13.512  18.350  0.00  0.00     0.030 A 
HETATM   56  N   UNK N   1      35.476  13.390  15.966  0.00  0.00    -0.351 N 
ATOM     57  HN  UNK N   1      35.536  14.407  15.935  1.00  0.00     0.166 HD
ENDBRANCH  44  47
ENDBRANCH  35  43
ENDBRANCH  33  35
BRANCH  33  58
HETATM   58  O   UNK N   1      33.677  11.899  10.507  0.00  0.00    -0.348 OA
HETATM   59  H   UNK N   1      33.325  11.055  10.305  0.00  0.00     0.219 HD
ENDBRANCH  33  58
ENDBRANCH   1  32
TORSDOF 17
ENDMDL
MODEL 5
REMARK VINA RESULT:      -8.0      6.437     11.490
REMARK  17 active torsions:
REMARK  status: ('A' for Active; 'I' for Inactive)
REMARK    1  A    between atoms: C_24  and  C_19 
REMARK    2  A    between atoms: C_30  and  C_19 
REMARK    3  A    between atoms: C_31  and  C_21 
REMARK    4  A    between atoms: C_34  and  C_21 
REMARK    5  A    between atoms: C_33  and  C_23 
REMARK    6  A    between atoms: N_48  and  C_23 
REMARK    7  A    between atoms: C_35  and  C_29 
REMARK    8  A    between atoms: C_33  and  C_30 
REMARK    9  A    between atoms: C_30  and  N_43 
REMARK   10  A    between atoms: C_36  and  C_31 
REMARK   11  A    between atoms: C_31  and  N_45 
REMARK   12  A    between atoms: C_32  and  C_37 
REMARK   13  A    between atoms: C_33  and  O_49 
REMARK   14  A    between atoms: O_50  and  C_34 
REMARK       I    between atoms: N_45  and  C_35 
REMARK   15  A    between atoms: C_36  and  O_52 
REMARK   16  A    between atoms: O_53  and  C_37 
REMARK   17  A    between atoms: N_46  and  C_38 
ROOT
HETATM    1  C   UNK N   1      22.469  14.351   6.291  0.00  0.00     0.118 C 
ENDROOT
BRANCH   1   2
HETATM    2  C   UNK N   1      22.207  14.674   7.778  0.00  0.00     0.066 C 
BRANCH   2   3
HETATM    3  C   UNK N   1      22.349  13.643   8.853  0.00  0.00    -0.056 A 
HETATM    4  C   UNK N   1      21.254  13.326   9.668  0.00  0.00     0.007 A 
HETATM    5  C   UNK N   1      21.416  12.498  10.782  0.00  0.00     0.001 A 
HETATM    6  C   UNK N   1      22.682  12.007  11.106  0.00  0.00     0.000 A 
HETATM    7  C   UNK N   1      23.784  12.342  10.314  0.00  0.00     0.001 A 
HETATM    8  C   UNK N   1      23.621  13.171   9.198  0.00  0.00     0.007 A 
ENDBRANCH   2   3
ENDBRANCH   1   2
BRANCH   1   9
HETATM    9  C   UNK N   1      21.212  14.289   5.389  0.00  0.00     0.158 C 
BRANCH   9  10
HETATM   10  C   UNK N   1      21.417  13.950   3.913  0.00  0.00     0.151 C 
BRANCH  10  11
HETATM   11  N   UNK N   1      21.050  15.129   3.128  0.00  0.00    -0.398 N 
HETATM   12  C   UNK N   1      20.539  16.170   4.004  0.00  0.00     0.122 C 
HETATM   13  C   UNK N   1      20.924  17.475   3.353  0.00  0.00     0.007 C 
HETATM   14  C   UNK N   1      20.606  18.665   4.247  0.00  0.00     0.006 C 
HETATM   15  C   UNK N   1      20.176  17.595   2.010  0.00  0.00    -0.006 C 
HETATM   16  C   UNK N   1      21.079  19.942   3.552  0.00  0.00     0.000 C 
HETATM   17  C   UNK N   1      20.399  20.097   2.190  0.00  0.00     0.000 C 
HETATM   18  C   UNK N   1      20.636  18.870   1.305  0.00  0.00     0.005 C 
HETATM   19  C   UNK N   1      20.464  16.383   1.115  0.00  0.00     0.038 C 
HETATM   20  C   UNK N   1      20.294  15.036   1.846  0.00  0.00     0.154 C 
BRANCH  20  21
HETATM   21  C   UNK N   1      20.882  13.984   0.908  0.00  0.00     0.135 C 
HETATM   22  N   UNK N   1      20.239  12.942   0.471  0.00  0.00    -0.365 N 
ATOM     23  HN  UNK N   1      20.784  12.290  -0.093  1.00  0.00     0.162 HD
BRANCH  22  24
HETATM   24  C   UNK N   1      18.847  12.585   0.682  0.00  0.00     0.021 C 
HETATM   25  C   UNK N   1      18.549  11.332  -0.106  0.00  0.00     0.037 C 
HETATM   26  C   UNK N   1      17.947  13.693   0.163  0.00  0.00     0.037 C 
HETATM   27  C   UNK N   1      18.530  12.245   2.127  0.00  0.00     0.037 C 
ENDBRANCH  22  24
BRANCH  21  28
HETATM   28  O   UNK N   1      22.166  14.141   0.517  0.00  0.00    -0.348 OA
HETATM   29  H   UNK N   1      23.050  13.871   0.367  0.00  0.00     0.219 HD
ENDBRANCH  21  28
ENDBRANCH  20  21
ENDBRANCH  10  11
ENDBRANCH   9  10
BRANCH   9  30
HETATM   30  O   UNK N   1      20.188  13.531   5.960  0.00  0.00    -0.392 OA
HETATM   31  H   UNK N   1      19.504  13.496   6.647  0.00  0.00     0.210 HD
ENDBRANCH   9  30
ENDBRANCH   1   9
BRANCH   1  32
HETATM   32  N   UNK N   1      23.273  15.465   5.820  0.00  0.00    -0.365 N 
HETATM   33  C   UNK N   1      24.503  15.353   5.434  0.00  0.00     0.135 C 
ATOM     34  HN  UNK N   1      22.844  16.390   5.792  1.00  0.00     0.161 HD
BRANCH  33  35
HETATM   35  C   UNK N   1      25.236  16.565   4.937  0.00  0.00     0.166 C 
BRANCH  35  36
HETATM   36  C   UNK N   1      24.241  17.737   4.991  0.00  0.00     0.117 C 
BRANCH  36  37
HETATM   37  C   UNK N   1      24.870  19.081   4.767  0.00  0.00     0.111 C 
HETATM   38  N   UNK N   1      24.705  19.707   3.661  0.00  0.00    -0.384 N 
HETATM   39  H   UNK N   1      24.742  20.682   3.537  0.00  0.00     0.157 HD
ATOM     40  HN  UNK N   1      24.517  19.142   2.832  1.00  0.00     0.157 HD
BRANCH  37  41
HETATM   41  O   UNK N   1      25.579  19.651   5.756  0.00  0.00    -0.350 OA
HETATM   42  H   UNK N   1      26.515  19.690   5.780  0.00  0.00     0.219 HD
ENDBRANCH  37  41
ENDBRANCH  36  37
ENDBRANCH  35  36
BRANCH  35  43
HETATM   43  N   UNK N   1      26.414  16.776   5.782  0.00  0.00    -0.343 N 
HETATM   44  C   UNK N   1      27.669  16.295   5.517  0.00  0.00     0.268 C 
HETATM   45  O   UNK N   1      27.850  15.489   4.620  0.00  0.00    -0.266 OA
HETATM   46  H   UNK N   1      26.296  17.304   6.604  0.00  0.00     0.163 HD
BRANCH  44  47
HETATM   47  C   UNK N   1      28.840  16.847   6.228  0.00  0.00     0.101 A 
HETATM   48  C   UNK N   1      28.688  17.224   7.573  0.00  0.00     0.036 A 
HETATM   49  C   UNK N   1      29.806  17.576   8.325  0.00  0.00     0.016 A 
HETATM   50  C   UNK N   1      31.061  17.567   7.732  0.00  0.00    -0.009 A 
HETATM   51  C   UNK N   1      32.200  17.871   8.481  0.00  0.00     0.013 A 
HETATM   52  C   UNK N   1      31.180  17.237   6.363  0.00  0.00     0.043 A 
HETATM   53  C   UNK N   1      33.458  17.853   7.873  0.00  0.00     0.001 A 
HETATM   54  C   UNK N   1      33.578  17.550   6.512  0.00  0.00     0.002 A 
HETATM   55  C   UNK N   1      32.440  17.241   5.757  0.00  0.00     0.030 A 
HETATM   56  N   UNK N   1      30.073  16.869   5.654  0.00  0.00    -0.351 N 
ATOM     57  HN  UNK N   1      30.173  16.606   4.674  1.00  0.00     0.166 HD
ENDBRANCH  44  47
ENDBRANCH  35  43
ENDBRANCH  33  35
BRANCH  33  58
HETATM   58  O   UNK N   1      25.152  14.169   5.527  0.00  0.00    -0.348 OA
HETATM   59  H   UNK N   1      25.809  13.615   5.156  0.00  0.00     0.219 HD
ENDBRANCH  33  58
ENDBRANCH   1  32
TORSDOF 17
ENDMDL
MODEL 6
REMARK VINA RESULT:      -8.0      6.017      9.148
REMARK  17 active torsions:
REMARK  status: ('A' for Active; 'I' for Inactive)
REMARK    1  A    between atoms: C_24  and  C_19 
REMARK    2  A    between atoms: C_30  and  C_19 
REMARK    3  A    between atoms: C_31  and  C_21 
REMARK    4  A    between atoms: C_34  and  C_21 
REMARK    5  A    between atoms: C_33  and  C_23 
REMARK    6  A    between atoms: N_48  and  C_23 
REMARK    7  A    between atoms: C_35  and  C_29 
REMARK    8  A    between atoms: C_33  and  C_30 
REMARK    9  A    between atoms: C_30  and  N_43 
REMARK   10  A    between atoms: C_36  and  C_31 
REMARK   11  A    between atoms: C_31  and  N_45 
REMARK   12  A    between atoms: C_32  and  C_37 
REMARK   13  A    between atoms: C_33  and  O_49 
REMARK   14  A    between atoms: O_50  and  C_34 
REMARK       I    between atoms: N_45  and  C_35 
REMARK   15  A    between atoms: C_36  and  O_52 
REMARK   16  A    between atoms: O_53  and  C_37 
REMARK   17  A    between atoms: N_46  and  C_38 
ROOT
HETATM    1  C   UNK N   1      26.959  17.809   5.468  0.00  0.00     0.118 C 
ENDROOT
BRANCH   1   2
HETATM    2  C   UNK N   1      27.406  17.191   6.810  0.00  0.00     0.066 C 
BRANCH   2   3
HETATM    3  C   UNK N   1      28.658  17.621   7.508  0.00  0.00    -0.056 A 
HETATM    4  C   UNK N   1      29.806  16.819   7.445  0.00  0.00     0.007 A 
HETATM    5  C   UNK N   1      30.923  17.119   8.230  0.00  0.00     0.001 A 
HETATM    6  C   UNK N   1      30.887  18.206   9.105  0.00  0.00     0.000 A 
HETATM    7  C   UNK N   1      29.735  18.993   9.193  0.00  0.00     0.001 A 
HETATM    8  C   UNK N   1      28.617  18.693   8.407  0.00  0.00     0.007 A 
ENDBRANCH   2   3
ENDBRANCH   1   2
BRANCH   1   9
HETATM    9  C   UNK N   1      28.088  18.068   4.442  0.00  0.00     0.158 C 
BRANCH   9  10
HETATM   10  C   UNK N   1      28.435  16.940   3.471  0.00  0.00     0.151 C 
BRANCH  10  11
HETATM   11  N   UNK N   1      29.595  16.228   4.007  0.00  0.00    -0.398 N 
HETATM   12  C   UNK N   1      30.814  16.948   3.679  0.00  0.00     0.122 C 
HETATM   13  C   UNK N   1      31.766  16.676   4.818  0.00  0.00     0.007 C 
HETATM   14  C   UNK N   1      33.036  17.508   4.701  0.00  0.00     0.006 C 
HETATM   15  C   UNK N   1      32.106  15.172   4.827  0.00  0.00    -0.006 C 
HETATM   16  C   UNK N   1      33.920  17.229   5.917  0.00  0.00     0.000 C 
HETATM   17  C   UNK N   1      34.260  15.739   6.002  0.00  0.00     0.000 C 
HETATM   18  C   UNK N   1      32.994  14.878   6.035  0.00  0.00     0.005 C 
HETATM   19  C   UNK N   1      30.832  14.324   4.911  0.00  0.00     0.038 C 
HETATM   20  C   UNK N   1      29.753  14.750   3.893  0.00  0.00     0.154 C 
BRANCH  20  21
HETATM   21  C   UNK N   1      28.485  14.004   4.305  0.00  0.00     0.135 C 
HETATM   22  N   UNK N   1      27.874  13.126   3.566  0.00  0.00    -0.365 N 
ATOM     23  HN  UNK N   1      27.000  12.761   3.945  1.00  0.00     0.162 HD
BRANCH  22  24
HETATM   24  C   UNK N   1      28.272  12.596   2.274  0.00  0.00     0.021 C 
HETATM   25  C   UNK N   1      27.086  11.894   1.657  0.00  0.00     0.037 C 
HETATM   26  C   UNK N   1      29.380  11.573   2.457  0.00  0.00     0.037 C 
HETATM   27  C   UNK N   1      28.672  13.674   1.284  0.00  0.00     0.037 C 
ENDBRANCH  22  24
BRANCH  21  28
HETATM   28  O   UNK N   1      27.955  14.289   5.514  0.00  0.00    -0.348 OA
HETATM   29  H   UNK N   1      27.973  14.572   6.407  0.00  0.00     0.219 HD
ENDBRANCH  21  28
ENDBRANCH  20  21
ENDBRANCH  10  11
ENDBRANCH   9  10
BRANCH   9  30
HETATM   30  O   UNK N   1      27.936  19.292   3.786  0.00  0.00    -0.392 OA
HETATM   31  H   UNK N   1      28.191  19.826   3.018  0.00  0.00     0.210 HD
ENDBRANCH   9  30
ENDBRANCH   1   9
BRANCH   1  32
HETATM   32  N   UNK N   1      26.080  16.808   4.889  0.00  0.00    -0.365 N 
HETATM   33  C   UNK N   1      24.799  16.949   4.782  0.00  0.00     0.135 C 
ATOM     34  HN  UNK N   1      26.498  15.943   4.546  1.00  0.00     0.161 HD
BRANCH  33  35
HETATM   35  C   UNK N   1      23.986  15.863   4.139  0.00  0.00     0.166 C 
BRANCH  35  36
HETATM   36  C   UNK N   1      24.905  15.165   3.123  0.00  0.00     0.117 C 
BRANCH  36  37
HETATM   37  C   UNK N   1      24.182  14.261   2.168  0.00  0.00     0.111 C 
HETATM   38  N   UNK N   1      24.151  14.520   0.913  0.00  0.00    -0.384 N 
HETATM   39  H   UNK N   1      24.045  13.863   0.189  0.00  0.00     0.157 HD
ATOM     40  HN  UNK N   1      24.244  15.499   0.640  1.00  0.00     0.157 HD
BRANCH  37  41
HETATM   41  O   UNK N   1      23.597  13.144   2.632  0.00  0.00    -0.350 OA
HETATM   42  H   UNK N   1      23.746  12.286   2.285  0.00  0.00     0.219 HD
ENDBRANCH  37  41
ENDBRANCH  36  37
ENDBRANCH  35  36
BRANCH  35  43
HETATM   43  N   UNK N   1      23.503  14.960   5.188  0.00  0.00    -0.343 N 
HETATM   44  C   UNK N   1      24.244  13.968   5.774  0.00  0.00     0.268 C 
HETATM   45  O   UNK N   1      25.331  13.654   5.323  0.00  0.00    -0.266 OA
HETATM   46  H   UNK N   1      22.575  15.074   5.494  0.00  0.00     0.163 HD
BRANCH  44  47
HETATM   47  C   UNK N   1      23.792  13.358   7.041  0.00  0.00     0.101 A 
HETATM   48  C   UNK N   1      24.734  12.674   7.827  0.00  0.00     0.036 A 
HETATM   49  C   UNK N   1      24.391  12.245   9.106  0.00  0.00     0.016 A 
HETATM   50  C   UNK N   1      23.110  12.483   9.587  0.00  0.00    -0.009 A 
HETATM   51  C   UNK N   1      22.759  12.102  10.885  0.00  0.00     0.013 A 
HETATM   52  C   UNK N   1      22.164  13.125   8.757  0.00  0.00     0.043 A 
HETATM   53  C   UNK N   1      21.469  12.354  11.359  0.00  0.00     0.001 A 
HETATM   54  C   UNK N   1      20.522  12.968  10.531  0.00  0.00     0.002 A 
HETATM   55  C   UNK N   1      20.869  13.355   9.232  0.00  0.00     0.030 A 
HETATM   56  N   UNK N   1      22.533  13.561   7.517  0.00  0.00    -0.351 N 
ATOM     57  HN  UNK N   1      21.851  14.047   6.935  1.00  0.00     0.166 HD
ENDBRANCH  44  47
ENDBRANCH  35  43
ENDBRANCH  33  35
BRANCH  33  58
HETATM   58  O   UNK N   1      24.178  18.037   5.294  0.00  0.00    -0.348 OA
HETATM   59  H   UNK N   1      23.361  18.408   5.561  0.00  0.00     0.219 HD
ENDBRANCH  33  58
ENDBRANCH   1  32
TORSDOF 17
ENDMDL
MODEL 7
REMARK VINA RESULT:      -7.9     14.984     19.171
REMARK  17 active torsions:
REMARK  status: ('A' for Active; 'I' for Inactive)
REMARK    1  A    between atoms: C_24  and  C_19 
REMARK    2  A    between atoms: C_30  and  C_19 
REMARK    3  A    between atoms: C_31  and  C_21 
REMARK    4  A    between atoms: C_34  and  C_21 
REMARK    5  A    between atoms: C_33  and  C_23 
REMARK    6  A    between atoms: N_48  and  C_23 
REMARK    7  A    between atoms: C_35  and  C_29 
REMARK    8  A    between atoms: C_33  and  C_30 
REMARK    9  A    between atoms: C_30  and  N_43 
REMARK   10  A    between atoms: C_36  and  C_31 
REMARK   11  A    between atoms: C_31  and  N_45 
REMARK   12  A    between atoms: C_32  and  C_37 
REMARK   13  A    between atoms: C_33  and  O_49 
REMARK   14  A    between atoms: O_50  and  C_34 
REMARK       I    between atoms: N_45  and  C_35 
REMARK   15  A    between atoms: C_36  and  O_52 
REMARK   16  A    between atoms: O_53  and  C_37 
REMARK   17  A    between atoms: N_46  and  C_38 
ROOT
HETATM    1  C   UNK N   1      25.990  24.332  -7.828  0.00  0.00     0.118 C 
ENDROOT
BRANCH   1   2
HETATM    2  C   UNK N   1      25.821  24.266  -6.295  0.00  0.00     0.066 C 
BRANCH   2   3
HETATM    3  C   UNK N   1      25.873  25.490  -5.435  0.00  0.00    -0.056 A 
HETATM    4  C   UNK N   1      26.521  25.446  -4.193  0.00  0.00     0.007 A 
HETATM    5  C   UNK N   1      26.428  26.523  -3.307  0.00  0.00     0.001 A 
HETATM    6  C   UNK N   1      25.660  27.639  -3.647  0.00  0.00     0.000 A 
HETATM    7  C   UNK N   1      24.988  27.677  -4.872  0.00  0.00     0.001 A 
HETATM    8  C   UNK N   1      25.082  26.598  -5.759  0.00  0.00     0.007 A 
ENDBRANCH   2   3
ENDBRANCH   1   2
BRANCH   1   9
HETATM    9  C   UNK N   1      26.668  25.612  -8.372  0.00  0.00     0.158 C 
BRANCH   9  10
HETATM   10  C   UNK N   1      28.190  25.599  -8.520  0.00  0.00     0.151 C 
BRANCH  10  11
HETATM   11  N   UNK N   1      28.761  26.228  -7.328  0.00  0.00    -0.398 N 
HETATM   12  C   UNK N   1      28.624  27.672  -7.415  0.00  0.00     0.122 C 
HETATM   13  C   UNK N   1      28.471  28.151  -5.993  0.00  0.00     0.007 C 
HETATM   14  C   UNK N   1      28.143  29.637  -5.932  0.00  0.00     0.006 C 
HETATM   15  C   UNK N   1      29.778  27.857  -5.230  0.00  0.00    -0.006 C 
HETATM   16  C   UNK N   1      27.940  30.036  -4.471  0.00  0.00     0.000 C 
HETATM   17  C   UNK N   1      29.195  29.730  -3.651  0.00  0.00     0.000 C 
HETATM   18  C   UNK N   1      29.592  28.255  -3.767  0.00  0.00     0.005 C 
HETATM   19  C   UNK N   1      30.135  26.368  -5.313  0.00  0.00     0.038 C 
HETATM   20  C   UNK N   1      30.068  25.809  -6.749  0.00  0.00     0.154 C 
BRANCH  20  21
HETATM   21  C   UNK N   1      30.172  24.292  -6.603  0.00  0.00     0.135 C 
HETATM   22  N   UNK N   1      31.227  23.592  -6.901  0.00  0.00    -0.365 N 
ATOM     23  HN  UNK N   1      31.125  22.581  -6.816  1.00  0.00     0.162 HD
BRANCH  22  24
HETATM   24  C   UNK N   1      32.531  24.061  -7.337  0.00  0.00     0.021 C 
HETATM   25  C   UNK N   1      33.347  24.413  -6.117  0.00  0.00     0.037 C 
HETATM   26  C   UNK N   1      32.371  25.318  -8.174  0.00  0.00     0.037 C 
HETATM   27  C   UNK N   1      33.329  23.003  -8.074  0.00  0.00     0.037 C 
ENDBRANCH  22  24
BRANCH  21  28
HETATM   28  O   UNK N   1      29.086  23.631  -6.147  0.00  0.00    -0.348 OA
HETATM   29  H   UNK N   1      28.170  23.492  -6.005  0.00  0.00     0.219 HD
ENDBRANCH  21  28
ENDBRANCH  20  21
ENDBRANCH  10  11
ENDBRANCH   9  10
BRANCH   9  30
HETATM   30  O   UNK N   1      26.037  26.098  -9.519  0.00  0.00    -0.392 OA
HETATM   31  H   UNK N   1      25.664  25.872 -10.385  0.00  0.00     0.210 HD
ENDBRANCH   9  30
ENDBRANCH   1   9
BRANCH   1  32
HETATM   32  N   UNK N   1      26.872  23.220  -8.138  0.00  0.00    -0.365 N 
HETATM   33  C   UNK N   1      26.658  22.375  -9.094  0.00  0.00     0.135 C 
ATOM     34  HN  UNK N   1      27.709  23.097  -7.568  1.00  0.00     0.161 HD
BRANCH  33  35
HETATM   35  C   UNK N   1      27.650  21.278  -9.348  0.00  0.00     0.166 C 
BRANCH  35  36
HETATM   36  C   UNK N   1      28.368  21.626 -10.662  0.00  0.00     0.117 C 
BRANCH  36  37
HETATM   37  C   UNK N   1      29.831  21.919 -10.498  0.00  0.00     0.111 C 
HETATM   38  N   UNK N   1      30.716  21.161 -11.031  0.00  0.00    -0.384 N 
HETATM   39  H   UNK N   1      31.624  21.432 -11.299  0.00  0.00     0.157 HD
ATOM     40  HN  UNK N   1      30.457  20.187 -11.192  1.00  0.00     0.157 HD
BRANCH  37  41
HETATM   41  O   UNK N   1      30.212  23.014  -9.820  0.00  0.00    -0.350 OA
HETATM   42  H   UNK N   1      29.696  23.793  -9.740  0.00  0.00     0.219 HD
ENDBRANCH  37  41
ENDBRANCH  36  37
ENDBRANCH  35  36
BRANCH  35  43
HETATM   43  N   UNK N   1      28.560  21.198  -8.202  0.00  0.00    -0.343 N 
HETATM   44  C   UNK N   1      29.070  20.039  -7.682  0.00  0.00     0.268 C 
HETATM   45  O   UNK N   1      28.647  18.955  -8.045  0.00  0.00    -0.266 OA
HETATM   46  H   UNK N   1      28.826  22.043  -7.773  0.00  0.00     0.163 HD
BRANCH  44  47
HETATM   47  C   UNK N   1      30.233  20.084  -6.772  0.00  0.00     0.101 A 
HETATM   48  C   UNK N   1      31.485  19.680  -7.266  0.00  0.00     0.036 A 
HETATM   49  C   UNK N   1      32.630  19.879  -6.499  0.00  0.00     0.016 A 
HETATM   50  C   UNK N   1      32.521  20.462  -5.243  0.00  0.00    -0.009 A 
HETATM   51  C   UNK N   1      33.662  20.712  -4.478  0.00  0.00     0.013 A 
HETATM   52  C   UNK N   1      31.244  20.809  -4.747  0.00  0.00     0.043 A 
HETATM   53  C   UNK N   1      33.539  21.304  -3.217  0.00  0.00     0.001 A 
HETATM   54  C   UNK N   1      32.274  21.628  -2.713  0.00  0.00     0.002 A 
HETATM   55  C   UNK N   1      31.127  21.381  -3.477  0.00  0.00     0.030 A 
HETATM   56  N   UNK N   1      30.139  20.628  -5.528  0.00  0.00    -0.351 N 
ATOM     57  HN  UNK N   1      29.225  20.907  -5.172  1.00  0.00     0.166 HD
ENDBRANCH  44  47
ENDBRANCH  35  43
ENDBRANCH  33  35
BRANCH  33  58
HETATM   58  O   UNK N   1      25.523  22.436  -9.829  0.00  0.00    -0.348 OA
HETATM   59  H   UNK N   1      24.706  22.024 -10.027  0.00  0.00     0.219 HD
ENDBRANCH  33  58
ENDBRANCH   1  32
TORSDOF 17
ENDMDL
MODEL 8
REMARK VINA RESULT:      -7.8      1.225      3.517
REMARK  17 active torsions:
REMARK  status: ('A' for Active; 'I' for Inactive)
REMARK    1  A    between atoms: C_24  and  C_19 
REMARK    2  A    between atoms: C_30  and  C_19 
REMARK    3  A    between atoms: C_31  and  C_21 
REMARK    4  A    between atoms: C_34  and  C_21 
REMARK    5  A    between atoms: C_33  and  C_23 
REMARK    6  A    between atoms: N_48  and  C_23 
REMARK    7  A    between atoms: C_35  and  C_29 
REMARK    8  A    between atoms: C_33  and  C_30 
REMARK    9  A    between atoms: C_30  and  N_43 
REMARK   10  A    between atoms: C_36  and  C_31 
REMARK   11  A    between atoms: C_31  and  N_45 
REMARK   12  A    between atoms: C_32  and  C_37 
REMARK   13  A    between atoms: C_33  and  O_49 
REMARK   14  A    between atoms: O_50  and  C_34 
REMARK       I    between atoms: N_45  and  C_35 
REMARK   15  A    between atoms: C_36  and  O_52 
REMARK   16  A    between atoms: O_53  and  C_37 
REMARK   17  A    between atoms: N_46  and  C_38 
ROOT
HETATM    1  C   UNK N   1      32.668  15.963   7.455  0.00  0.00     0.118 C 
ENDROOT
BRANCH   1   2
HETATM    2  C   UNK N   1      32.294  17.222   8.267  0.00  0.00     0.066 C 
BRANCH   2   3
HETATM    3  C   UNK N   1      30.879  17.537   8.639  0.00  0.00    -0.056 A 
HETATM    4  C   UNK N   1      30.285  16.899   9.736  0.00  0.00     0.007 A 
HETATM    5  C   UNK N   1      28.919  17.052   9.990  0.00  0.00     0.001 A 
HETATM    6  C   UNK N   1      28.133  17.820   9.129  0.00  0.00     0.000 A 
HETATM    7  C   UNK N   1      28.713  18.436   8.017  0.00  0.00     0.001 A 
HETATM    8  C   UNK N   1      30.081  18.283   7.764  0.00  0.00     0.007 A 
ENDBRANCH   2   3
ENDBRANCH   1   2
BRANCH   1   9
HETATM    9  C   UNK N   1      33.157  16.220   6.010  0.00  0.00     0.158 C 
BRANCH   9  10
HETATM   10  C   UNK N   1      32.318  17.148   5.132  0.00  0.00     0.151 C 
BRANCH  10  11
HETATM   11  N   UNK N   1      31.403  16.318   4.348  0.00  0.00    -0.398 N 
HETATM   12  C   UNK N   1      30.083  16.322   4.958  0.00  0.00     0.122 C 
HETATM   13  C   UNK N   1      29.108  16.174   3.816  0.00  0.00     0.007 C 
HETATM   14  C   UNK N   1      27.668  16.336   4.282  0.00  0.00     0.006 C 
HETATM   15  C   UNK N   1      29.313  14.791   3.168  0.00  0.00    -0.006 C 
HETATM   16  C   UNK N   1      26.744  16.239   3.068  0.00  0.00     0.000 C 
HETATM   17  C   UNK N   1      26.931  14.897   2.356  0.00  0.00     0.000 C 
HETATM   18  C   UNK N   1      28.393  14.677   1.953  0.00  0.00     0.005 C 
HETATM   19  C   UNK N   1      30.769  14.606   2.725  0.00  0.00     0.038 C 
HETATM   20  C   UNK N   1      31.788  14.978   3.822  0.00  0.00     0.154 C 
BRANCH  20  21
HETATM   21  C   UNK N   1      33.147  15.003   3.126  0.00  0.00     0.135 C 
HETATM   22  N   UNK N   1      34.042  14.065   3.221  0.00  0.00    -0.365 N 
ATOM     23  HN  UNK N   1      34.931  14.252   2.756  1.00  0.00     0.162 HD
BRANCH  22  24
HETATM   24  C   UNK N   1      33.944  12.786   3.902  0.00  0.00     0.021 C 
HETATM   25  C   UNK N   1      35.334  12.219   4.062  0.00  0.00     0.037 C 
HETATM   26  C   UNK N   1      33.135  11.816   3.059  0.00  0.00     0.037 C 
HETATM   27  C   UNK N   1      33.383  12.900   5.307  0.00  0.00     0.037 C 
ENDBRANCH  22  24
BRANCH  21  28
HETATM   28  O   UNK N   1      33.444  16.084   2.371  0.00  0.00    -0.348 OA
HETATM   29  H   UNK N   1      33.831  16.539   1.650  0.00  0.00     0.219 HD
ENDBRANCH  21  28
ENDBRANCH  20  21
ENDBRANCH  10  11
ENDBRANCH   9  10
BRANCH   9  30
HETATM   30  O   UNK N   1      34.515  16.543   5.960  0.00  0.00    -0.392 OA
HETATM   31  H   UNK N   1      35.272  16.735   5.386  0.00  0.00     0.210 HD
ENDBRANCH   9  30
ENDBRANCH   1   9
BRANCH   1  32
HETATM   32  N   UNK N   1      33.784  15.388   8.185  0.00  0.00    -0.365 N 
HETATM   33  C   UNK N   1      33.673  14.393   9.005  0.00  0.00     0.135 C 
ATOM     34  HN  UNK N   1      34.711  15.791   8.043  1.00  0.00     0.161 HD
BRANCH  33  35
HETATM   35  C   UNK N   1      34.898  13.856   9.686  0.00  0.00     0.166 C 
BRANCH  35  36
HETATM   36  C   UNK N   1      35.884  15.029   9.814  0.00  0.00     0.117 C 
BRANCH  36  37
HETATM   37  C   UNK N   1      35.763  15.790  11.102  0.00  0.00     0.111 C 
HETATM   38  N   UNK N   1      35.121  16.898  11.152  0.00  0.00    -0.384 N 
HETATM   39  H   UNK N   1      34.678  17.275  11.946  0.00  0.00     0.157 HD
ATOM     40  HN  UNK N   1      35.065  17.440  10.289  1.00  0.00     0.157 HD
BRANCH  37  41
HETATM   41  O   UNK N   1      36.297  15.278  12.224  0.00  0.00    -0.350 OA
HETATM   42  H   UNK N   1      37.023  14.686  12.241  0.00  0.00     0.219 HD
ENDBRANCH  37  41
ENDBRANCH  36  37
ENDBRANCH  35  36
BRANCH  35  43
HETATM   43  N   UNK N   1      34.503  13.297  10.982  0.00  0.00    -0.343 N 
HETATM   44  C   UNK N   1      34.961  12.116  11.502  0.00  0.00     0.268 C 
HETATM   45  O   UNK N   1      35.616  11.347  10.819  0.00  0.00    -0.266 OA
HETATM   46  H   UNK N   1      33.858  13.809  11.521  0.00  0.00     0.163 HD
BRANCH  44  47
HETATM   47  C   UNK N   1      34.781  11.819  12.938  0.00  0.00     0.101 A 
HETATM   48  C   UNK N   1      34.400  10.519  13.309  0.00  0.00     0.036 A 
HETATM   49  C   UNK N   1      34.397  10.154  14.653  0.00  0.00     0.016 A 
HETATM   50  C   UNK N   1      34.756  11.088  15.617  0.00  0.00    -0.009 A 
HETATM   51  C   UNK N   1      34.804  10.728  16.966  0.00  0.00     0.013 A 
HETATM   52  C   UNK N   1      35.082  12.404  15.222  0.00  0.00     0.043 A 
HETATM   53  C   UNK N   1      35.172  11.676  17.925  0.00  0.00     0.001 A 
HETATM   54  C   UNK N   1      35.473  12.987  17.540  0.00  0.00     0.002 A 
HETATM   55  C   UNK N   1      35.429  13.351  16.189  0.00  0.00     0.030 A 
HETATM   56  N   UNK N   1      35.104  12.730  13.896  0.00  0.00    -0.351 N 
ATOM     57  HN  UNK N   1      35.367  13.675  13.619  1.00  0.00     0.166 HD
ENDBRANCH  44  47
ENDBRANCH  35  43
ENDBRANCH  33  35
BRANCH  33  58
HETATM   58  O   UNK N   1      32.460  13.871   9.298  0.00  0.00    -0.348 OA
HETATM   59  H   UNK N   1      31.606  13.666   8.974  0.00  0.00     0.219 HD
ENDBRANCH  33  58
ENDBRANCH   1  32
TORSDOF 17
ENDMDL
MODEL 9
REMARK VINA RESULT:      -7.7      3.661     10.722
REMARK  17 active torsions:
REMARK  status: ('A' for Active; 'I' for Inactive)
REMARK    1  A    between atoms: C_24  and  C_19 
REMARK    2  A    between atoms: C_30  and  C_19 
REMARK    3  A    between atoms: C_31  and  C_21 
REMARK    4  A    between atoms: C_34  and  C_21 
REMARK    5  A    between atoms: C_33  and  C_23 
REMARK    6  A    between atoms: N_48  and  C_23 
REMARK    7  A    between atoms: C_35  and  C_29 
REMARK    8  A    between atoms: C_33  and  C_30 
REMARK    9  A    between atoms: C_30  and  N_43 
REMARK   10  A    between atoms: C_36  and  C_31 
REMARK   11  A    between atoms: C_31  and  N_45 
REMARK   12  A    between atoms: C_32  and  C_37 
REMARK   13  A    between atoms: C_33  and  O_49 
REMARK   14  A    between atoms: O_50  and  C_34 
REMARK       I    between atoms: N_45  and  C_35 
REMARK   15  A    between atoms: C_36  and  O_52 
REMARK   16  A    between atoms: O_53  and  C_37 
REMARK   17  A    between atoms: N_46  and  C_38 
ROOT
HETATM    1  C   UNK N   1      35.393  11.686  14.232  0.00  0.00     0.118 C 
ENDROOT
BRANCH   1   2
HETATM    2  C   UNK N   1      34.785  12.640  15.281  0.00  0.00     0.066 C 
BRANCH   2   3
HETATM    3  C   UNK N   1      35.103  12.527  16.739  0.00  0.00    -0.056 A 
HETATM    4  C   UNK N   1      35.225  11.264  17.334  0.00  0.00     0.007 A 
HETATM    5  C   UNK N   1      35.349  11.143  18.720  0.00  0.00     0.001 A 
HETATM    6  C   UNK N   1      35.320  12.284  19.524  0.00  0.00     0.000 A 
HETATM    7  C   UNK N   1      35.171  13.545  18.940  0.00  0.00     0.001 A 
HETATM    8  C   UNK N   1      35.047  13.666  17.551  0.00  0.00     0.007 A 
ENDBRANCH   2   3
ENDBRANCH   1   2
BRANCH   1   9
HETATM    9  C   UNK N   1      34.424  10.632  13.644  0.00  0.00     0.158 C 
BRANCH   9  10
HETATM   10  C   UNK N   1      34.852   9.165  13.703  0.00  0.00     0.151 C 
BRANCH  10  11
HETATM   11  N   UNK N   1      36.021   9.005  12.837  0.00  0.00    -0.398 N 
HETATM   12  C   UNK N   1      35.596   8.786  11.465  0.00  0.00     0.122 C 
HETATM   13  C   UNK N   1      36.676   9.394  10.604  0.00  0.00     0.007 C 
HETATM   14  C   UNK N   1      36.286   9.396   9.132  0.00  0.00     0.006 C 
HETATM   15  C   UNK N   1      37.980   8.601  10.815  0.00  0.00    -0.006 C 
HETATM   16  C   UNK N   1      37.394  10.082   8.331  0.00  0.00     0.000 C 
HETATM   17  C   UNK N   1      38.728   9.360   8.533  0.00  0.00     0.000 C 
HETATM   18  C   UNK N   1      39.097   9.273  10.017  0.00  0.00     0.005 C 
HETATM   19  C   UNK N   1      38.363   8.565  12.299  0.00  0.00     0.038 C 
HETATM   20  C   UNK N   1      37.191   8.163  13.217  0.00  0.00     0.154 C 
BRANCH  20  21
HETATM   21  C   UNK N   1      37.668   8.451  14.640  0.00  0.00     0.135 C 
HETATM   22  N   UNK N   1      37.647   7.589  15.613  0.00  0.00    -0.365 N 
ATOM     23  HN  UNK N   1      37.933   7.946  16.526  1.00  0.00     0.162 HD
BRANCH  22  24
HETATM   24  C   UNK N   1      37.272   6.187  15.573  0.00  0.00     0.021 C 
HETATM   25  C   UNK N   1      37.446   5.604  16.954  0.00  0.00     0.037 C 
HETATM   26  C   UNK N   1      38.191   5.436  14.626  0.00  0.00     0.037 C 
HETATM   27  C   UNK N   1      35.813   5.970  15.217  0.00  0.00     0.037 C 
ENDBRANCH  22  24
BRANCH  21  28
HETATM   28  O   UNK N   1      38.128   9.693  14.906  0.00  0.00    -0.348 OA
HETATM   29  H   UNK N   1      38.082  10.563  15.251  0.00  0.00     0.219 HD
ENDBRANCH  21  28
ENDBRANCH  20  21
ENDBRANCH  10  11
ENDBRANCH   9  10
BRANCH   9  30
HETATM   30  O   UNK N   1      33.114  10.811  14.091  0.00  0.00    -0.392 OA
HETATM   31  H   UNK N   1      32.502  11.392  14.568  0.00  0.00     0.210 HD
ENDBRANCH   9  30
ENDBRANCH   1   9
BRANCH   1  32
HETATM   32  N   UNK N   1      35.784  12.559  13.139  0.00  0.00    -0.365 N 
HETATM   33  C   UNK N   1      36.984  12.625  12.662  0.00  0.00     0.135 C 
ATOM     34  HN  UNK N   1      35.069  13.157  12.722  1.00  0.00     0.161 HD
BRANCH  33  35
HETATM   35  C   UNK N   1      37.274  13.542  11.510  0.00  0.00     0.166 C 
BRANCH  35  36
HETATM   36  C   UNK N   1      38.206  12.774  10.557  0.00  0.00     0.117 C 
BRANCH  36  37
HETATM   37  C   UNK N   1      38.867  13.639   9.523  0.00  0.00     0.111 C 
HETATM   38  N   UNK N   1      39.377  13.124   8.466  0.00  0.00    -0.384 N 
HETATM   39  H   UNK N   1      39.493  13.577   7.600  0.00  0.00     0.157 HD
ATOM     40  HN  UNK N   1      39.694  12.156   8.528  1.00  0.00     0.157 HD
BRANCH  37  41
HETATM   41  O   UNK N   1      38.884  14.972   9.691  0.00  0.00    -0.350 OA
HETATM   42  H   UNK N   1      38.966  15.399  10.521  0.00  0.00     0.219 HD
ENDBRANCH  37  41
ENDBRANCH  36  37
ENDBRANCH  35  36
BRANCH  35  43
HETATM   43  N   UNK N   1      36.004  13.922  10.885  0.00  0.00    -0.343 N 
HETATM   44  C   UNK N   1      35.705  15.170  10.407  0.00  0.00     0.268 C 
HETATM   45  O   UNK N   1      36.438  16.116  10.636  0.00  0.00    -0.266 OA
HETATM   46  H   UNK N   1      35.312  13.227  10.803  0.00  0.00     0.163 HD
BRANCH  44  47
HETATM   47  C   UNK N   1      34.558  15.358   9.495  0.00  0.00     0.101 A 
HETATM   48  C   UNK N   1      33.283  14.968   9.936  0.00  0.00     0.036 A 
HETATM   49  C   UNK N   1      32.158  15.294   9.182  0.00  0.00     0.016 A 
HETATM   50  C   UNK N   1      32.312  15.990   7.990  0.00  0.00    -0.009 A 
HETATM   51  C   UNK N   1      31.194  16.368   7.243  0.00  0.00     0.013 A 
HETATM   52  C   UNK N   1      33.610  16.323   7.541  0.00  0.00     0.043 A 
HETATM   53  C   UNK N   1      31.361  17.073   6.047  0.00  0.00     0.001 A 
HETATM   54  C   UNK N   1      32.646  17.384   5.588  0.00  0.00     0.002 A 
HETATM   55  C   UNK N   1      33.770  17.011   6.335  0.00  0.00     0.030 A 
HETATM   56  N   UNK N   1      34.694  16.016   8.312  0.00  0.00    -0.351 N 
ATOM     57  HN  UNK N   1      35.625  16.285   7.993  1.00  0.00     0.166 HD
ENDBRANCH  44  47
ENDBRANCH  35  43
ENDBRANCH  33  35
BRANCH  33  58
HETATM   58  O   UNK N   1      37.992  11.920  13.227  0.00  0.00    -0.348 OA
HETATM   59  H   UNK N   1      38.537  11.816  13.981  0.00  0.00     0.219 HD
ENDBRANCH  33  58
ENDBRANCH   1  32
TORSDOF 17
ENDMDL
