REMARK  7 active torsions:
REMARK  status: ('A' for Active; 'I' for Inactive)
REMARK    1  A    between atoms: C_2  and  O_22 
REMARK    2  A    between atoms: C_10  and  C_7 
REMARK    3  A    between atoms: N_11  and  N_13 
REMARK       I    between atoms: N_13  and  C_14 
REMARK       I    between atoms: C_14  and  N_15 
REMARK       I    between atoms: C_14  and  N_21 
REMARK    4  A    between atoms: N_15  and  C_16 
REMARK    5  A    between atoms: C_16  and  C_17 
REMARK    6  A    between atoms: C_17  and  C_18 
REMARK    7  A    between atoms: C_18  and  C_19 
ROOT
HETATM    1  C   UNK N   1      -1.297  -1.474   1.658  0.00  0.00     0.120 C 
HETATM    2  N   UNK N   1      -0.314  -0.952   1.004  0.00  0.00    -0.308 N 
ATOM      3  HN  UNK N   1       0.545  -0.696   1.490  1.00  0.00     0.186 HD
ENDROOT
BRANCH   2   4
HETATM    4  N   UNK N   1      -0.432  -0.746  -0.345  0.00  0.00    -0.260 N 
HETATM    5  C   UNK N   1       0.654  -0.878  -1.249  0.00  0.00     0.262 C 
HETATM    6  N   UNK N   1       2.006  -0.669  -0.862  0.00  0.00    -0.350 N 
HETATM    7  N   UNK N   1       0.407  -1.234  -2.449  0.00  0.00    -0.424 NA
HETATM    8  H   UNK N   1       2.708  -0.932  -1.499  0.00  0.00     0.163 HD
HETATM    9  H   UNK N   1       0.074  -1.207  -3.375  0.00  0.00     0.270 HD
HETATM   10  H   UNK N   1      -1.313  -0.493  -0.705  0.00  0.00     0.191 HD
BRANCH   6  11
HETATM   11  C   UNK N   1       2.424  -0.101   0.392  0.00  0.00     0.123 C 
BRANCH  11  12
HETATM   12  C   UNK N   1       3.895   0.281   0.292  0.00  0.00     0.020 C 
BRANCH  12  13
HETATM   13  C   UNK N   1       4.752  -0.957   0.084  0.00  0.00     0.001 C 
BRANCH  13  14
HETATM   14  C   UNK N   1       6.155  -0.559  -0.323  0.00  0.00    -0.004 C 
HETATM   15  C   UNK N   1       6.948  -1.805  -0.663  0.00  0.00     0.005 C 
ENDBRANCH  13  14
ENDBRANCH  12  13
ENDBRANCH  11  12
ENDBRANCH   6  11
ENDBRANCH   2   4
BRANCH   1  16
HETATM   16  C   UNK N   1      -2.586  -1.761   0.988  0.00  0.00     0.009 A 
HETATM   17  C   UNK N   1      -3.459  -0.849   0.451  0.00  0.00     0.006 A 
HETATM   18  C   UNK N   1      -3.428   0.543   0.422  0.00  0.00     0.051 A 
HETATM   19  C   UNK N   1      -4.489  -1.560  -0.092  0.00  0.00     0.043 A 
HETATM   20  C   UNK N   1      -4.507   1.218  -0.178  0.00  0.00     0.069 A 
HETATM   21  C   UNK N   1      -5.574   0.471  -0.751  0.00  0.00     0.039 A 
HETATM   22  C   UNK N   1      -5.566  -0.936  -0.714  0.00  0.00     0.033 A 
HETATM   23  N   UNK N   1      -4.305  -2.883   0.077  0.00  0.00    -0.364 N 
HETATM   24  C   UNK N   1      -3.131  -3.018   0.750  0.00  0.00     0.102 A 
HETATM   25  H   UNK N   1      -4.900  -3.607  -0.226  0.00  0.00     0.165 HD
BRANCH  20  26
HETATM   26  O   UNK N   1      -4.511   2.572  -0.177  0.00  0.00    -0.356 OA
HETATM   27  C   UNK N   1      -5.556   3.323  -0.666  0.00  0.00     0.210 C 
ENDBRANCH  20  26
ENDBRANCH   1  16
TORSDOF 7
