MODEL 1
REMARK VINA RESULT:      -6.4      0.000      0.000
REMARK  5 active torsions:
REMARK  status: ('A' for Active; 'I' for Inactive)
REMARK    1  A    between atoms: C_12  and  C_11 
REMARK    2  A    between atoms: O_21  and  C_13 
REMARK    3  A    between atoms: O_20  and  C_14 
REMARK    4  A    between atoms: O_21  and  C_15 
REMARK    5  A    between atoms: O_19  and  C_16 
ROOT
HETATM    1  C   UNK N   1      31.311  15.045   6.010  0.00  0.00     0.010 A 
HETATM    2  C   UNK N   1      30.081  14.786   5.411  0.00  0.00     0.040 A 
HETATM    3  C   UNK N   1      30.432  17.103   6.925  0.00  0.00     0.047 A 
HETATM    4  C   UNK N   1      31.497  16.201   6.772  0.00  0.00    -0.049 A 
HETATM    5  C   UNK N   1      29.012  15.689   5.543  0.00  0.00     0.101 A 
HETATM    6  C   UNK N   1      29.195  16.869   6.309  0.00  0.00     0.103 A 
ENDROOT
BRANCH   4   7
HETATM    7  C   UNK N   1      32.860  16.473   7.349  0.00  0.00     0.044 C 
HETATM    8  C   UNK N   1      33.521  17.800   6.956  0.00  0.00     0.094 C 
HETATM    9  C   UNK N   1      34.181  18.159   8.233  0.00  0.00     0.111 C 
HETATM   10  N   UNK N   1      33.857  17.432   9.225  0.00  0.00    -0.374 N 
HETATM   11  C   UNK N   1      32.912  16.412   8.881  0.00  0.00     0.131 C 
ATOM     12  HN  UNK N   1      34.229  17.563  10.165  1.00  0.00     0.161 HD
BRANCH   9  13
HETATM   13  O   UNK N   1      35.047  19.182   8.355  0.00  0.00    -0.350 OA
HETATM   14  H   UNK N   1      35.962  19.047   8.207  0.00  0.00     0.219 HD
ENDBRANCH   9  13
ENDBRANCH   4   7
BRANCH   6  15
HETATM   15  O   UNK N   1      28.209  17.793   6.477  0.00  0.00    -0.343 OA
BRANCH  15  16
HETATM   16  C   UNK N   1      28.186  19.020   5.849  0.00  0.00     0.129 C 
HETATM   17  C   UNK N   1      27.236  19.050   4.680  0.00  0.00     0.032 C 
HETATM   18  C   UNK N   1      26.982  20.529   4.481  0.00  0.00     0.002 C 
HETATM   19  C   UNK N   1      27.076  21.149   5.867  0.00  0.00     0.002 C 
HETATM   20  C   UNK N   1      27.634  20.073   6.782  0.00  0.00     0.032 C 
ENDBRANCH  15  16
ENDBRANCH   6  15
BRANCH   5  21
HETATM   21  O   UNK N   1      27.817  15.426   4.961  0.00  0.00    -0.353 OA
HETATM   22  C   UNK N   1      27.595  15.511   3.604  0.00  0.00     0.210 C 
ENDBRANCH   5  21
TORSDOF 5
ENDMDL
MODEL 2
REMARK VINA RESULT:      -6.4     11.353     13.359
REMARK  5 active torsions:
REMARK  status: ('A' for Active; 'I' for Inactive)
REMARK    1  A    between atoms: C_12  and  C_11 
REMARK    2  A    between atoms: O_21  and  C_13 
REMARK    3  A    between atoms: O_20  and  C_14 
REMARK    4  A    between atoms: O_21  and  C_15 
REMARK    5  A    between atoms: O_19  and  C_16 
ROOT
HETATM    1  C   UNK N   1      28.936  21.903  -6.780  0.00  0.00     0.010 A 
HETATM    2  C   UNK N   1      27.686  22.204  -7.312  0.00  0.00     0.040 A 
HETATM    3  C   UNK N   1      28.451  23.284  -4.856  0.00  0.00     0.047 A 
HETATM    4  C   UNK N   1      29.328  22.436  -5.550  0.00  0.00    -0.049 A 
HETATM    5  C   UNK N   1      26.804  23.064  -6.636  0.00  0.00     0.101 A 
HETATM    6  C   UNK N   1      27.197  23.616  -5.389  0.00  0.00     0.103 A 
ENDROOT
BRANCH   4   7
HETATM    7  C   UNK N   1      30.713  22.136  -5.041  0.00  0.00     0.044 C 
HETATM    8  C   UNK N   1      31.013  22.528  -3.589  0.00  0.00     0.094 C 
HETATM    9  C   UNK N   1      31.867  21.391  -3.176  0.00  0.00     0.111 C 
HETATM   10  N   UNK N   1      31.916  20.429  -4.007  0.00  0.00    -0.374 N 
HETATM   11  C   UNK N   1      31.122  20.664  -5.176  0.00  0.00     0.131 C 
ATOM     12  HN  UNK N   1      32.461  19.580  -3.857  1.00  0.00     0.161 HD
BRANCH   9  13
HETATM   13  O   UNK N   1      32.535  21.355  -2.008  0.00  0.00    -0.350 OA
HETATM   14  H   UNK N   1      33.233  21.957  -1.844  0.00  0.00     0.219 HD
ENDBRANCH   9  13
ENDBRANCH   4   7
BRANCH   6  15
HETATM   15  O   UNK N   1      26.401  24.460  -4.678  0.00  0.00    -0.343 OA
BRANCH  15  16
HETATM   16  C   UNK N   1      26.451  25.834  -4.777  0.00  0.00     0.129 C 
HETATM   17  C   UNK N   1      25.233  26.407  -5.456  0.00  0.00     0.032 C 
HETATM   18  C   UNK N   1      25.240  27.854  -5.013  0.00  0.00     0.002 C 
HETATM   19  C   UNK N   1      25.850  27.851  -3.619  0.00  0.00     0.002 C 
HETATM   20  C   UNK N   1      26.415  26.458  -3.401  0.00  0.00     0.032 C 
ENDBRANCH  15  16
ENDBRANCH   6  15
BRANCH   5  21
HETATM   21  O   UNK N   1      25.586  23.347  -7.158  0.00  0.00    -0.353 OA
HETATM   22  C   UNK N   1      25.405  23.963  -8.377  0.00  0.00     0.210 C 
ENDBRANCH   5  21
TORSDOF 5
ENDMDL
MODEL 3
REMARK VINA RESULT:      -6.3      9.288     10.299
REMARK  5 active torsions:
REMARK  status: ('A' for Active; 'I' for Inactive)
REMARK    1  A    between atoms: C_12  and  C_11 
REMARK    2  A    between atoms: O_21  and  C_13 
REMARK    3  A    between atoms: O_20  and  C_14 
REMARK    4  A    between atoms: O_21  and  C_15 
REMARK    5  A    between atoms: O_19  and  C_16 
ROOT
HETATM    1  C   UNK N   1      21.275  12.906   7.343  0.00  0.00     0.010 A 
HETATM    2  C   UNK N   1      20.709  13.770   6.409  0.00  0.00     0.040 A 
HETATM    3  C   UNK N   1      21.402  14.716   8.940  0.00  0.00     0.047 A 
HETATM    4  C   UNK N   1      21.624  13.369   8.613  0.00  0.00    -0.049 A 
HETATM    5  C   UNK N   1      20.497  15.124   6.717  0.00  0.00     0.101 A 
HETATM    6  C   UNK N   1      20.854  15.605   8.004  0.00  0.00     0.103 A 
ENDROOT
BRANCH   4   7
HETATM    7  C   UNK N   1      22.291  12.419   9.571  0.00  0.00     0.044 C 
HETATM    8  C   UNK N   1      23.808  12.564   9.741  0.00  0.00     0.094 C 
HETATM    9  C   UNK N   1      23.942  12.294  11.191  0.00  0.00     0.111 C 
HETATM   10  N   UNK N   1      22.843  12.234  11.828  0.00  0.00    -0.374 N 
HETATM   11  C   UNK N   1      21.702  12.443  10.986  0.00  0.00     0.131 C 
ATOM     12  HN  UNK N   1      22.780  12.057  12.830  1.00  0.00     0.161 HD
BRANCH   9  13
HETATM   13  O   UNK N   1      25.129  12.138  11.807  0.00  0.00    -0.350 OA
HETATM   14  H   UNK N   1      25.476  12.821  12.345  0.00  0.00     0.219 HD
ENDBRANCH   9  13
ENDBRANCH   4   7
BRANCH   6  15
HETATM   15  O   UNK N   1      20.685  16.903   8.373  0.00  0.00    -0.343 OA
BRANCH  15  16
HETATM   16  C   UNK N   1      19.457  17.491   8.589  0.00  0.00     0.129 C 
HETATM   17  C   UNK N   1      18.462  16.537   9.198  0.00  0.00     0.032 C 
HETATM   18  C   UNK N   1      17.426  17.459   9.803  0.00  0.00     0.002 C 
HETATM   19  C   UNK N   1      18.186  18.708  10.225  0.00  0.00     0.002 C 
HETATM   20  C   UNK N   1      19.576  18.586   9.623  0.00  0.00     0.032 C 
ENDBRANCH  15  16
ENDBRANCH   6  15
BRANCH   5  21
HETATM   21  O   UNK N   1      19.940  15.957   5.804  0.00  0.00    -0.353 OA
HETATM   22  C   UNK N   1      18.678  15.780   5.282  0.00  0.00     0.210 C 
ENDBRANCH   5  21
TORSDOF 5
ENDMDL
MODEL 4
REMARK VINA RESULT:      -6.1      7.729     10.547
REMARK  5 active torsions:
REMARK  status: ('A' for Active; 'I' for Inactive)
REMARK    1  A    between atoms: C_12  and  C_11 
REMARK    2  A    between atoms: O_21  and  C_13 
REMARK    3  A    between atoms: O_20  and  C_14 
REMARK    4  A    between atoms: O_21  and  C_15 
REMARK    5  A    between atoms: O_19  and  C_16 
ROOT
HETATM    1  C   UNK N   1      22.932  17.905   3.799  0.00  0.00     0.010 A 
HETATM    2  C   UNK N   1      23.516  16.871   4.525  0.00  0.00     0.040 A 
HETATM    3  C   UNK N   1      21.371  18.292   5.604  0.00  0.00     0.047 A 
HETATM    4  C   UNK N   1      21.859  18.624   4.330  0.00  0.00    -0.049 A 
HETATM    5  C   UNK N   1      23.027  16.518   5.795  0.00  0.00     0.101 A 
HETATM    6  C   UNK N   1      21.932  17.239   6.339  0.00  0.00     0.103 A 
ENDROOT
BRANCH   4   7
HETATM    7  C   UNK N   1      21.216  19.691   3.486  0.00  0.00     0.044 C 
HETATM    8  C   UNK N   1      22.019  20.193   2.280  0.00  0.00     0.094 C 
HETATM    9  C   UNK N   1      20.931  20.381   1.293  0.00  0.00     0.111 C 
HETATM   10  N   UNK N   1      19.801  19.919   1.648  0.00  0.00    -0.374 N 
HETATM   11  C   UNK N   1      19.832  19.310   2.945  0.00  0.00     0.131 C 
ATOM     12  HN  UNK N   1      18.961  19.975   1.071  1.00  0.00     0.161 HD
BRANCH   9  13
HETATM   13  O   UNK N   1      21.110  20.980   0.101  0.00  0.00    -0.350 OA
HETATM   14  H   UNK N   1      21.975  21.162  -0.212  0.00  0.00     0.219 HD
ENDBRANCH   9  13
ENDBRANCH   4   7
BRANCH   6  15
HETATM   15  O   UNK N   1      21.400  16.951   7.558  0.00  0.00    -0.343 OA
BRANCH  15  16
HETATM   16  C   UNK N   1      20.061  17.066   7.863  0.00  0.00     0.129 C 
HETATM   17  C   UNK N   1      19.555  15.905   8.679  0.00  0.00     0.032 C 
HETATM   18  C   UNK N   1      18.293  16.453   9.312  0.00  0.00     0.002 C 
HETATM   19  C   UNK N   1      18.549  17.939   9.513  0.00  0.00     0.002 C 
HETATM   20  C   UNK N   1      19.831  18.259   8.762  0.00  0.00     0.032 C 
ENDBRANCH  15  16
ENDBRANCH   6  15
BRANCH   5  21
HETATM   21  O   UNK N   1      23.605  15.514   6.498  0.00  0.00    -0.353 OA
HETATM   22  C   UNK N   1      24.967  15.322   6.572  0.00  0.00     0.210 C 
ENDBRANCH   5  21
TORSDOF 5
ENDMDL
MODEL 5
REMARK VINA RESULT:      -6.1      9.076     11.758
REMARK  5 active torsions:
REMARK  status: ('A' for Active; 'I' for Inactive)
REMARK    1  A    between atoms: C_12  and  C_11 
REMARK    2  A    between atoms: O_21  and  C_13 
REMARK    3  A    between atoms: O_20  and  C_14 
REMARK    4  A    between atoms: O_21  and  C_15 
REMARK    5  A    between atoms: O_19  and  C_16 
ROOT
HETATM    1  C   UNK N   1      34.825  10.440  16.130  0.00  0.00     0.010 A 
HETATM    2  C   UNK N   1      34.440  10.055  14.849  0.00  0.00     0.040 A 
HETATM    3  C   UNK N   1      35.043  12.727  15.378  0.00  0.00     0.047 A 
HETATM    4  C   UNK N   1      35.127  11.775  16.407  0.00  0.00    -0.049 A 
HETATM    5  C   UNK N   1      34.368  10.995  13.806  0.00  0.00     0.101 A 
HETATM    6  C   UNK N   1      34.680  12.352  14.077  0.00  0.00     0.103 A 
ENDROOT
BRANCH   4   7
HETATM    7  C   UNK N   1      35.600  12.138  17.789  0.00  0.00     0.044 C 
HETATM    8  C   UNK N   1      34.986  13.394  18.419  0.00  0.00     0.094 C 
HETATM    9  C   UNK N   1      34.868  12.956  19.829  0.00  0.00     0.111 C 
HETATM   10  N   UNK N   1      35.097  11.721  20.026  0.00  0.00    -0.374 N 
HETATM   11  C   UNK N   1      35.425  11.018  18.822  0.00  0.00     0.131 C 
ATOM     12  HN  UNK N   1      35.052  11.278  20.944  1.00  0.00     0.161 HD
BRANCH   9  13
HETATM   13  O   UNK N   1      34.530  13.785  20.834  0.00  0.00    -0.350 OA
HETATM   14  H   UNK N   1      33.703  13.693  21.265  0.00  0.00     0.219 HD
ENDBRANCH   9  13
ENDBRANCH   4   7
BRANCH   6  15
HETATM   15  O   UNK N   1      34.638  13.318  13.119  0.00  0.00    -0.343 OA
BRANCH  15  16
HETATM   16  C   UNK N   1      35.755  13.855  12.515  0.00  0.00     0.129 C 
HETATM   17  C   UNK N   1      36.313  12.960  11.438  0.00  0.00     0.032 C 
HETATM   18  C   UNK N   1      37.148  13.907  10.603  0.00  0.00     0.002 C 
HETATM   19  C   UNK N   1      36.448  15.255  10.691  0.00  0.00     0.002 C 
HETATM   20  C   UNK N   1      35.390  15.119  11.772  0.00  0.00     0.032 C 
ENDBRANCH  15  16
ENDBRANCH   6  15
BRANCH   5  21
HETATM   21  O   UNK N   1      33.988  10.612  12.564  0.00  0.00    -0.353 OA
HETATM   22  C   UNK N   1      34.488   9.501  11.922  0.00  0.00     0.210 C 
ENDBRANCH   5  21
TORSDOF 5
ENDMDL
MODEL 6
REMARK VINA RESULT:      -6.0      8.186     11.401
REMARK  5 active torsions:
REMARK  status: ('A' for Active; 'I' for Inactive)
REMARK    1  A    between atoms: C_12  and  C_11 
REMARK    2  A    between atoms: O_21  and  C_13 
REMARK    3  A    between atoms: O_20  and  C_14 
REMARK    4  A    between atoms: O_21  and  C_15 
REMARK    5  A    between atoms: O_19  and  C_16 
ROOT
HETATM    1  C   UNK N   1      36.454  11.355  15.497  0.00  0.00     0.010 A 
HETATM    2  C   UNK N   1      37.166  11.186  14.313  0.00  0.00     0.040 A 
HETATM    3  C   UNK N   1      35.724  13.535  14.749  0.00  0.00     0.047 A 
HETATM    4  C   UNK N   1      35.727  12.525  15.725  0.00  0.00    -0.049 A 
HETATM    5  C   UNK N   1      37.185  12.196  13.335  0.00  0.00     0.101 A 
HETATM    6  C   UNK N   1      36.455  13.391  13.561  0.00  0.00     0.103 A 
ENDROOT
BRANCH   4   7
HETATM    7  C   UNK N   1      35.023  12.693  17.045  0.00  0.00     0.044 C 
HETATM    8  C   UNK N   1      35.288  11.620  18.108  0.00  0.00     0.094 C 
HETATM    9  C   UNK N   1      35.316  12.456  19.331  0.00  0.00     0.111 C 
HETATM   10  N   UNK N   1      35.318  13.710  19.121  0.00  0.00    -0.374 N 
HETATM   11  C   UNK N   1      35.290  14.041  17.727  0.00  0.00     0.131 C 
ATOM     12  HN  UNK N   1      35.337  14.407  19.866  1.00  0.00     0.161 HD
BRANCH   9  13
HETATM   13  O   UNK N   1      35.353  11.944  20.575  0.00  0.00    -0.350 OA
HETATM   14  H   UNK N   1      35.837  11.161  20.750  0.00  0.00     0.219 HD
ENDBRANCH   9  13
ENDBRANCH   4   7
BRANCH   6  15
HETATM   15  O   UNK N   1      36.431  14.415  12.665  0.00  0.00    -0.343 OA
BRANCH  15  16
HETATM   16  C   UNK N   1      35.314  14.787  11.947  0.00  0.00     0.129 C 
HETATM   17  C   UNK N   1      35.527  16.061  11.172  0.00  0.00     0.032 C 
HETATM   18  C   UNK N   1      34.446  16.005  10.114  0.00  0.00     0.002 C 
HETATM   19  C   UNK N   1      34.248  14.527   9.811  0.00  0.00     0.002 C 
HETATM   20  C   UNK N   1      35.019  13.764  10.874  0.00  0.00     0.032 C 
ENDBRANCH  15  16
ENDBRANCH   6  15
BRANCH   5  21
HETATM   21  O   UNK N   1      37.876  12.021  12.183  0.00  0.00    -0.353 OA
HETATM   22  C   UNK N   1      37.568  11.059  11.247  0.00  0.00     0.210 C 
ENDBRANCH   5  21
TORSDOF 5
ENDMDL
MODEL 7
REMARK VINA RESULT:      -6.0      7.099     11.034
REMARK  5 active torsions:
REMARK  status: ('A' for Active; 'I' for Inactive)
REMARK    1  A    between atoms: C_12  and  C_11 
REMARK    2  A    between atoms: O_21  and  C_13 
REMARK    3  A    between atoms: O_20  and  C_14 
REMARK    4  A    between atoms: O_21  and  C_15 
REMARK    5  A    between atoms: O_19  and  C_16 
ROOT
HETATM    1  C   UNK N   1      35.384  12.861  10.989  0.00  0.00     0.010 A 
HETATM    2  C   UNK N   1      35.933  11.662  11.434  0.00  0.00     0.040 A 
HETATM    3  C   UNK N   1      35.630  13.798  13.204  0.00  0.00     0.047 A 
HETATM    4  C   UNK N   1      35.230  13.937  11.865  0.00  0.00    -0.049 A 
HETATM    5  C   UNK N   1      36.323  11.504  12.775  0.00  0.00     0.101 A 
HETATM    6  C   UNK N   1      36.164  12.590  13.674  0.00  0.00     0.103 A 
ENDROOT
BRANCH   4   7
HETATM    7  C   UNK N   1      34.574  15.194  11.359  0.00  0.00     0.044 C 
HETATM    8  C   UNK N   1      35.503  16.359  10.998  0.00  0.00     0.094 C 
HETATM    9  C   UNK N   1      34.809  16.896   9.805  0.00  0.00     0.111 C 
HETATM   10  N   UNK N   1      33.862  16.170   9.366  0.00  0.00    -0.374 N 
HETATM   11  C   UNK N   1      33.672  14.978  10.137  0.00  0.00     0.131 C 
ATOM     12  HN  UNK N   1      33.297  16.412   8.552  1.00  0.00     0.161 HD
BRANCH   9  13
HETATM   13  O   UNK N   1      35.153  18.053   9.209  0.00  0.00    -0.350 OA
HETATM   14  H   UNK N   1      34.805  18.866   9.519  0.00  0.00     0.219 HD
ENDBRANCH   9  13
ENDBRANCH   4   7
BRANCH   6  15
HETATM   15  O   UNK N   1      36.512  12.511  14.988  0.00  0.00    -0.343 OA
BRANCH  15  16
HETATM   16  C   UNK N   1      35.620  12.267  16.010  0.00  0.00     0.129 C 
HETATM   17  C   UNK N   1      36.060  11.131  16.898  0.00  0.00     0.032 C 
HETATM   18  C   UNK N   1      35.272  11.364  18.169  0.00  0.00     0.002 C 
HETATM   19  C   UNK N   1      35.106  12.873  18.276  0.00  0.00     0.002 C 
HETATM   20  C   UNK N   1      35.565  13.450  16.948  0.00  0.00     0.032 C 
ENDBRANCH  15  16
ENDBRANCH   6  15
BRANCH   5  21
HETATM   21  O   UNK N   1      36.862  10.335  13.199  0.00  0.00    -0.353 OA
HETATM   22  C   UNK N   1      36.115   9.222  13.514  0.00  0.00     0.210 C 
ENDBRANCH   5  21
TORSDOF 5
ENDMDL
MODEL 8
REMARK VINA RESULT:      -5.9      3.327      4.943
REMARK  5 active torsions:
REMARK  status: ('A' for Active; 'I' for Inactive)
REMARK    1  A    between atoms: C_12  and  C_11 
REMARK    2  A    between atoms: O_21  and  C_13 
REMARK    3  A    between atoms: O_20  and  C_14 
REMARK    4  A    between atoms: O_21  and  C_15 
REMARK    5  A    between atoms: O_19  and  C_16 
ROOT
HETATM    1  C   UNK N   1      35.221  15.221   7.332  0.00  0.00     0.010 A 
HETATM    2  C   UNK N   1      34.800  16.088   6.328  0.00  0.00     0.040 A 
HETATM    3  C   UNK N   1      33.624  16.209   8.855  0.00  0.00     0.047 A 
HETATM    4  C   UNK N   1      34.637  15.271   8.600  0.00  0.00    -0.049 A 
HETATM    5  C   UNK N   1      33.799  17.043   6.574  0.00  0.00     0.101 A 
HETATM    6  C   UNK N   1      33.205  17.106   7.862  0.00  0.00     0.103 A 
ENDROOT
BRANCH   4   7
HETATM    7  C   UNK N   1      35.165  14.359   9.674  0.00  0.00     0.044 C 
HETATM    8  C   UNK N   1      34.921  14.790  11.125  0.00  0.00     0.094 C 
HETATM    9  C   UNK N   1      34.654  13.476  11.754  0.00  0.00     0.111 C 
HETATM   10  N   UNK N   1      34.518  12.510  10.938  0.00  0.00    -0.374 N 
HETATM   11  C   UNK N   1      34.657  12.915   9.571  0.00  0.00     0.131 C 
ATOM     12  HN  UNK N   1      34.329  11.550  11.226  1.00  0.00     0.161 HD
BRANCH   9  13
HETATM   13  O   UNK N   1      34.544  13.303  13.085  0.00  0.00    -0.350 OA
HETATM   14  H   UNK N   1      35.311  13.199  13.613  0.00  0.00     0.219 HD
ENDBRANCH   9  13
ENDBRANCH   4   7
BRANCH   6  15
HETATM   15  O   UNK N   1      32.235  18.006   8.178  0.00  0.00    -0.343 OA
BRANCH  15  16
HETATM   16  C   UNK N   1      30.957  17.661   8.560  0.00  0.00     0.129 C 
HETATM   17  C   UNK N   1      30.232  18.798   9.235  0.00  0.00     0.032 C 
HETATM   18  C   UNK N   1      28.776  18.405   9.101  0.00  0.00     0.002 C 
HETATM   19  C   UNK N   1      28.680  17.632   7.794  0.00  0.00     0.002 C 
HETATM   20  C   UNK N   1      30.108  17.372   7.344  0.00  0.00     0.032 C 
ENDBRANCH  15  16
ENDBRANCH   6  15
BRANCH   5  21
HETATM   21  O   UNK N   1      33.392  17.880   5.590  0.00  0.00    -0.353 OA
HETATM   22  C   UNK N   1      32.648  17.475   4.504  0.00  0.00     0.210 C 
ENDBRANCH   5  21
TORSDOF 5
ENDMDL
MODEL 9
REMARK VINA RESULT:      -5.9      1.572      3.512
REMARK  5 active torsions:
REMARK  status: ('A' for Active; 'I' for Inactive)
REMARK    1  A    between atoms: C_12  and  C_11 
REMARK    2  A    between atoms: O_21  and  C_13 
REMARK    3  A    between atoms: O_20  and  C_14 
REMARK    4  A    between atoms: O_21  and  C_15 
REMARK    5  A    between atoms: O_19  and  C_16 
ROOT
HETATM    1  C   UNK N   1      30.637  17.709   8.556  0.00  0.00     0.010 A 
HETATM    2  C   UNK N   1      29.359  18.139   8.210  0.00  0.00     0.040 A 
HETATM    3  C   UNK N   1      31.061  17.110   6.252  0.00  0.00     0.047 A 
HETATM    4  C   UNK N   1      31.497  17.194   7.584  0.00  0.00    -0.049 A 
HETATM    5  C   UNK N   1      28.903  18.046   6.883  0.00  0.00     0.101 A 
HETATM    6  C   UNK N   1      29.769  17.517   5.890  0.00  0.00     0.103 A 
ENDROOT
BRANCH   4   7
HETATM    7  C   UNK N   1      32.846  16.682   8.012  0.00  0.00     0.044 C 
HETATM    8  C   UNK N   1      33.862  17.728   8.486  0.00  0.00     0.094 C 
HETATM    9  C   UNK N   1      34.516  16.987   9.588  0.00  0.00     0.111 C 
HETATM   10  N   UNK N   1      33.950  15.893   9.907  0.00  0.00    -0.374 N 
HETATM   11  C   UNK N   1      32.789  15.617   9.115  0.00  0.00     0.131 C 
ATOM     12  HN  UNK N   1      34.287  15.278  10.648  1.00  0.00     0.161 HD
BRANCH   9  13
HETATM   13  O   UNK N   1      35.616  17.429  10.226  0.00  0.00    -0.350 OA
HETATM   14  H   UNK N   1      35.823  18.343  10.233  0.00  0.00     0.219 HD
ENDBRANCH   9  13
ENDBRANCH   4   7
BRANCH   6  15
HETATM   15  O   UNK N   1      29.397  17.390   4.588  0.00  0.00    -0.343 OA
BRANCH  15  16
HETATM   16  C   UNK N   1      28.808  16.261   4.059  0.00  0.00     0.129 C 
HETATM   17  C   UNK N   1      27.460  16.548   3.450  0.00  0.00     0.032 C 
HETATM   18  C   UNK N   1      27.244  15.371   2.523  0.00  0.00     0.002 C 
HETATM   19  C   UNK N   1      28.630  14.970   2.042  0.00  0.00     0.002 C 
HETATM   20  C   UNK N   1      29.621  15.745   2.895  0.00  0.00     0.032 C 
ENDBRANCH  15  16
ENDBRANCH   6  15
BRANCH   5  21
HETATM   21  O   UNK N   1      27.660  18.472   6.553  0.00  0.00    -0.353 OA
HETATM   22  C   UNK N   1      27.334  19.796   6.365  0.00  0.00     0.210 C 
ENDBRANCH   5  21
TORSDOF 5
ENDMDL
