MODEL 1
REMARK VINA RESULT:      -7.3      0.000      0.000
REMARK  7 active torsions:
REMARK  status: ('A' for Active; 'I' for Inactive)
REMARK    1  A    between atoms: C_28  and  C_3 
REMARK    2  A    between atoms: C_7  and  O_22 
REMARK    3  A    between atoms: C_12  and  N_17 
REMARK       I    between atoms: N_18  and  C_20 
REMARK    4  A    between atoms: O_22  and  C_24 
REMARK    5  A    between atoms: C_25  and  C_24 
REMARK    6  A    between atoms: C_28  and  C_31 
REMARK    7  A    between atoms: C_31  and  N_35 
ROOT
HETATM    1  C   UNK N   1      35.797  14.791   6.042  0.00  0.00     0.206 C 
HETATM    2  C   UNK N   1      35.012  13.607   6.512  0.00  0.00     0.173 C 
HETATM    3  O   UNK N   1      35.241  15.905   6.672  0.00  0.00    -0.347 OA
HETATM    4  O   UNK N   1      34.233  14.052   7.588  0.00  0.00    -0.340 OA
HETATM    5  C   UNK N   1      34.599  15.391   7.817  0.00  0.00     0.212 C 
ENDROOT
BRANCH   2   6
HETATM    6  C   UNK N   1      34.154  13.160   5.341  0.00  0.00     0.209 C 
BRANCH   6   7
HETATM    7  O   UNK N   1      33.859  14.194   4.482  0.00  0.00    -0.349 OA
BRANCH   7   8
HETATM    8  C   UNK N   1      32.701  14.888   4.534  0.00  0.00     0.069 A 
HETATM    9  C   UNK N   1      31.499  14.272   4.907  0.00  0.00     0.039 A 
HETATM   10  C   UNK N   1      30.313  15.002   4.919  0.00  0.00     0.032 A 
HETATM   11  C   UNK N   1      30.301  16.356   4.543  0.00  0.00     0.030 A 
HETATM   12  C   UNK N   1      31.511  16.970   4.175  0.00  0.00     0.032 A 
HETATM   13  C   UNK N   1      32.703  16.240   4.178  0.00  0.00     0.039 A 
BRANCH  11  14
HETATM   14  N   UNK N   1      29.077  17.088   4.549  0.00  0.00    -0.378 N 
HETATM   15  C   UNK N   1      28.097  16.844   3.496  0.00  0.00     0.143 C 
HETATM   16  C   UNK N   1      26.755  17.565   3.696  0.00  0.00     0.145 C 
HETATM   17  N   UNK N   1      26.862  18.835   4.393  0.00  0.00    -0.349 N 
HETATM   18  C   UNK N   1      28.153  19.291   4.872  0.00  0.00     0.145 C 
HETATM   19  C   UNK N   1      25.743  19.576   4.637  0.00  0.00     0.215 C 
HETATM   20  C   UNK N   1      28.843  18.119   5.543  0.00  0.00     0.143 C 
HETATM   21  C   UNK N   1      24.395  19.106   4.174  0.00  0.00     0.117 C 
HETATM   22  O   UNK N   1      25.819  20.636   5.236  0.00  0.00    -0.274 OA
ENDBRANCH  11  14
ENDBRANCH   7   8
ENDBRANCH   6   7
ENDBRANCH   2   6
BRANCH   5  23
HETATM   23  C   UNK N   1      33.391  16.285   8.116  0.00  0.00     0.027 A 
HETATM   24  C   UNK N   1      32.142  15.639   8.214  0.00  0.00     0.016 A 
HETATM   25  C   UNK N   1      30.970  16.353   8.456  0.00  0.00     0.024 A 
HETATM   26  C   UNK N   1      31.019  17.733   8.618  0.00  0.00     0.035 A 
HETATM   27 Cl   UNK N   1      29.549  18.636   8.913  0.00  0.00    -0.084 Cl
HETATM   28  C   UNK N   1      32.239  18.399   8.541  0.00  0.00     0.048 A 
HETATM   29  C   UNK N   1      33.425  17.702   8.291  0.00  0.00     0.047 A 
HETATM   30 Cl   UNK N   1      34.879  18.678   8.220  0.00  0.00    -0.084 Cl
ENDBRANCH   5  23
BRANCH   5  31
HETATM   31  C   UNK N   1      35.532  15.451   9.055  0.00  0.00     0.203 C 
BRANCH  31  32
HETATM   32  N   UNK N   1      35.262  14.399  10.030  0.00  0.00    -0.346 N 
HETATM   33  C   UNK N   1      35.888  13.213  10.088  0.00  0.00     0.109 A 
HETATM   34  C   UNK N   1      35.334  12.502  11.134  0.00  0.00     0.106 A 
HETATM   35  N   UNK N   1      34.378  13.262  11.712  0.00  0.00    -0.361 N 
HETATM   36  C   UNK N   1      34.357  14.418  11.021  0.00  0.00     0.182 A 
ATOM     37  HN  UNK N   1      33.792  13.011  12.508  1.00  0.00     0.166 HD
ENDBRANCH  31  32
ENDBRANCH   5  31
TORSDOF 7
ENDMDL
MODEL 2
REMARK VINA RESULT:      -7.0      2.944      8.285
REMARK  7 active torsions:
REMARK  status: ('A' for Active; 'I' for Inactive)
REMARK    1  A    between atoms: C_28  and  C_3 
REMARK    2  A    between atoms: C_7  and  O_22 
REMARK    3  A    between atoms: C_12  and  N_17 
REMARK       I    between atoms: N_18  and  C_20 
REMARK    4  A    between atoms: O_22  and  C_24 
REMARK    5  A    between atoms: C_25  and  C_24 
REMARK    6  A    between atoms: C_28  and  C_31 
REMARK    7  A    between atoms: C_31  and  N_35 
ROOT
HETATM    1  C   UNK N   1      26.673  14.709   3.617  0.00  0.00     0.206 C 
HETATM    2  C   UNK N   1      27.166  15.787   2.704  0.00  0.00     0.173 C 
HETATM    3  O   UNK N   1      26.685  15.249   4.903  0.00  0.00    -0.347 OA
HETATM    4  O   UNK N   1      27.173  16.969   3.457  0.00  0.00    -0.340 OA
HETATM    5  C   UNK N   1      26.624  16.644   4.712  0.00  0.00     0.212 C 
ENDROOT
BRANCH   2   6
HETATM    6  C   UNK N   1      28.566  15.386   2.270  0.00  0.00     0.209 C 
BRANCH   6   7
HETATM    7  O   UNK N   1      29.512  16.319   2.628  0.00  0.00    -0.349 OA
BRANCH   7   8
HETATM    8  C   UNK N   1      30.265  16.212   3.744  0.00  0.00     0.069 A 
HETATM    9  C   UNK N   1      30.345  15.009   4.458  0.00  0.00     0.039 A 
HETATM   10  C   UNK N   1      31.100  14.936   5.625  0.00  0.00     0.032 A 
HETATM   11  C   UNK N   1      31.777  16.067   6.113  0.00  0.00     0.030 A 
HETATM   12  C   UNK N   1      31.699  17.270   5.390  0.00  0.00     0.032 A 
HETATM   13  C   UNK N   1      30.953  17.338   4.210  0.00  0.00     0.039 A 
BRANCH  11  14
HETATM   14  N   UNK N   1      32.538  15.980   7.317  0.00  0.00    -0.378 N 
HETATM   15  C   UNK N   1      33.942  16.377   7.300  0.00  0.00     0.143 C 
HETATM   16  C   UNK N   1      34.613  16.398   8.682  0.00  0.00     0.145 C 
HETATM   17  N   UNK N   1      34.081  15.420   9.616  0.00  0.00    -0.349 N 
HETATM   18  C   UNK N   1      32.978  14.567   9.219  0.00  0.00     0.145 C 
HETATM   19  C   UNK N   1      34.589  15.337  10.879  0.00  0.00     0.215 C 
HETATM   20  C   UNK N   1      31.946  15.431   8.522  0.00  0.00     0.143 C 
HETATM   21  C   UNK N   1      35.712  16.232  11.317  0.00  0.00     0.117 C 
HETATM   22  O   UNK N   1      34.139  14.531  11.677  0.00  0.00    -0.274 OA
ENDBRANCH  11  14
ENDBRANCH   7   8
ENDBRANCH   6   7
ENDBRANCH   2   6
BRANCH   5  23
HETATM   23  C   UNK N   1      27.379  17.307   5.868  0.00  0.00     0.027 A 
HETATM   24  C   UNK N   1      27.797  16.459   6.913  0.00  0.00     0.016 A 
HETATM   25  C   UNK N   1      28.469  16.955   8.029  0.00  0.00     0.024 A 
HETATM   26  C   UNK N   1      28.751  18.313   8.123  0.00  0.00     0.035 A 
HETATM   27 Cl   UNK N   1      29.586  18.943   9.527  0.00  0.00    -0.084 Cl
HETATM   28  C   UNK N   1      28.363  19.175   7.101  0.00  0.00     0.048 A 
HETATM   29  C   UNK N   1      27.681  18.699   5.977  0.00  0.00     0.047 A 
HETATM   30 Cl   UNK N   1      27.259  19.906   4.777  0.00  0.00    -0.084 Cl
ENDBRANCH   5  23
BRANCH   5  31
HETATM   31  C   UNK N   1      25.161  17.153   4.765  0.00  0.00     0.203 C 
BRANCH  31  32
HETATM   32  N   UNK N   1      24.207  16.122   5.165  0.00  0.00    -0.346 N 
HETATM   33  C   UNK N   1      24.107  15.588   6.391  0.00  0.00     0.109 A 
HETATM   34  C   UNK N   1      23.103  14.642   6.352  0.00  0.00     0.106 A 
HETATM   35  N   UNK N   1      22.591  14.609   5.102  0.00  0.00    -0.361 N 
HETATM   36  C   UNK N   1      23.281  15.527   4.396  0.00  0.00     0.182 A 
ATOM     37  HN  UNK N   1      21.838  14.012   4.762  1.00  0.00     0.166 HD
ENDBRANCH  31  32
ENDBRANCH   5  31
TORSDOF 7
ENDMDL
MODEL 3
REMARK VINA RESULT:      -7.0     12.085     16.467
REMARK  7 active torsions:
REMARK  status: ('A' for Active; 'I' for Inactive)
REMARK    1  A    between atoms: C_28  and  C_3 
REMARK    2  A    between atoms: C_7  and  O_22 
REMARK    3  A    between atoms: C_12  and  N_17 
REMARK       I    between atoms: N_18  and  C_20 
REMARK    4  A    between atoms: O_22  and  C_24 
REMARK    5  A    between atoms: C_25  and  C_24 
REMARK    6  A    between atoms: C_28  and  C_31 
REMARK    7  A    between atoms: C_31  and  N_35 
ROOT
HETATM    1  C   UNK N   1      25.187  26.154  -6.017  0.00  0.00     0.206 C 
HETATM    2  C   UNK N   1      26.210  27.146  -6.471  0.00  0.00     0.173 C 
HETATM    3  O   UNK N   1      25.769  25.444  -4.967  0.00  0.00    -0.347 OA
HETATM    4  O   UNK N   1      27.216  27.152  -5.496  0.00  0.00    -0.340 OA
HETATM    5  C   UNK N   1      26.778  26.294  -4.469  0.00  0.00     0.212 C 
ENDROOT
BRANCH   2   6
HETATM    6  C   UNK N   1      26.729  26.656  -7.813  0.00  0.00     0.209 C 
BRANCH   6   7
HETATM    7  O   UNK N   1      26.700  25.284  -7.916  0.00  0.00    -0.349 OA
BRANCH   7   8
HETATM    8  C   UNK N   1      27.706  24.492  -7.485  0.00  0.00     0.069 A 
HETATM    9  C   UNK N   1      27.452  23.253  -6.882  0.00  0.00     0.039 A 
HETATM   10  C   UNK N   1      28.507  22.473  -6.415  0.00  0.00     0.032 A 
HETATM   11  C   UNK N   1      29.834  22.920  -6.525  0.00  0.00     0.030 A 
HETATM   12  C   UNK N   1      30.084  24.161  -7.136  0.00  0.00     0.032 A 
HETATM   13  C   UNK N   1      29.026  24.938  -7.618  0.00  0.00     0.039 A 
BRANCH  11  14
HETATM   14  N   UNK N   1      30.903  22.115  -6.032  0.00  0.00    -0.378 N 
HETATM   15  C   UNK N   1      30.593  20.911  -5.270  0.00  0.00     0.143 C 
HETATM   16  C   UNK N   1      31.813  20.040  -4.933  0.00  0.00     0.145 C 
HETATM   17  N   UNK N   1      33.046  20.787  -4.758  0.00  0.00    -0.349 N 
HETATM   18  C   UNK N   1      33.055  22.224  -4.950  0.00  0.00     0.145 C 
HETATM   19  C   UNK N   1      34.205  20.131  -4.458  0.00  0.00     0.215 C 
HETATM   20  C   UNK N   1      32.281  22.531  -6.218  0.00  0.00     0.143 C 
HETATM   21  C   UNK N   1      34.221  18.641  -4.283  0.00  0.00     0.117 C 
HETATM   22  O   UNK N   1      35.249  20.747  -4.325  0.00  0.00    -0.274 OA
ENDBRANCH  11  14
ENDBRANCH   7   8
ENDBRANCH   6   7
ENDBRANCH   2   6
BRANCH   5  23
HETATM   23  C   UNK N   1      27.905  25.411  -3.925  0.00  0.00     0.027 A 
HETATM   24  C   UNK N   1      27.514  24.221  -3.278  0.00  0.00     0.016 A 
HETATM   25  C   UNK N   1      28.452  23.353  -2.721  0.00  0.00     0.024 A 
HETATM   26  C   UNK N   1      29.809  23.648  -2.808  0.00  0.00     0.035 A 
HETATM   27 Cl   UNK N   1      30.990  22.567  -2.102  0.00  0.00    -0.084 Cl
HETATM   28  C   UNK N   1      30.227  24.808  -3.453  0.00  0.00     0.048 A 
HETATM   29  C   UNK N   1      29.302  25.697  -4.011  0.00  0.00     0.047 A 
HETATM   30 Cl   UNK N   1      29.983  27.113  -4.788  0.00  0.00    -0.084 Cl
ENDBRANCH   5  23
BRANCH   5  31
HETATM   31  C   UNK N   1      26.254  27.151  -3.288  0.00  0.00     0.203 C 
BRANCH  31  32
HETATM   32  N   UNK N   1      26.797  28.506  -3.276  0.00  0.00    -0.346 N 
HETATM   33  C   UNK N   1      26.229  29.577  -3.852  0.00  0.00     0.109 A 
HETATM   34  C   UNK N   1      27.060  30.657  -3.630  0.00  0.00     0.106 A 
HETATM   35  N   UNK N   1      28.126  30.240  -2.913  0.00  0.00    -0.361 N 
HETATM   36  C   UNK N   1      27.939  28.922  -2.706  0.00  0.00     0.182 A 
ATOM     37  HN  UNK N   1      28.912  30.807  -2.594  1.00  0.00     0.166 HD
ENDBRANCH  31  32
ENDBRANCH   5  31
TORSDOF 7
ENDMDL
MODEL 4
REMARK VINA RESULT:      -7.0      2.368      3.751
REMARK  7 active torsions:
REMARK  status: ('A' for Active; 'I' for Inactive)
REMARK    1  A    between atoms: C_28  and  C_3 
REMARK    2  A    between atoms: C_7  and  O_22 
REMARK    3  A    between atoms: C_12  and  N_17 
REMARK       I    between atoms: N_18  and  C_20 
REMARK    4  A    between atoms: O_22  and  C_24 
REMARK    5  A    between atoms: C_25  and  C_24 
REMARK    6  A    between atoms: C_28  and  C_31 
REMARK    7  A    between atoms: C_31  and  N_35 
ROOT
HETATM    1  C   UNK N   1      34.148  15.021  10.474  0.00  0.00     0.206 C 
HETATM    2  C   UNK N   1      35.311  15.761   9.892  0.00  0.00     0.173 C 
HETATM    3  O   UNK N   1      33.627  14.238   9.444  0.00  0.00    -0.347 OA
HETATM    4  O   UNK N   1      35.573  15.170   8.649  0.00  0.00    -0.340 OA
HETATM    5  C   UNK N   1      34.692  14.078   8.534  0.00  0.00     0.212 C 
ENDROOT
BRANCH   2   6
HETATM    6  C   UNK N   1      34.877  17.210   9.746  0.00  0.00     0.209 C 
BRANCH   6   7
HETATM    7  O   UNK N   1      34.779  17.598   8.430  0.00  0.00    -0.349 OA
BRANCH   7   8
HETATM    8  C   UNK N   1      33.631  17.517   7.722  0.00  0.00     0.069 A 
HETATM    9  C   UNK N   1      32.385  17.454   8.359  0.00  0.00     0.039 A 
HETATM   10  C   UNK N   1      31.220  17.334   7.605  0.00  0.00     0.032 A 
HETATM   11  C   UNK N   1      31.277  17.258   6.204  0.00  0.00     0.030 A 
HETATM   12  C   UNK N   1      32.529  17.327   5.570  0.00  0.00     0.032 A 
HETATM   13  C   UNK N   1      33.698  17.462   6.326  0.00  0.00     0.039 A 
BRANCH  11  14
HETATM   14  N   UNK N   1      30.075  17.124   5.445  0.00  0.00    -0.378 N 
HETATM   15  C   UNK N   1      30.119  16.436   4.160  0.00  0.00     0.143 C 
HETATM   16  C   UNK N   1      28.744  16.209   3.513  0.00  0.00     0.145 C 
HETATM   17  N   UNK N   1      27.764  17.235   3.825  0.00  0.00    -0.349 N 
HETATM   18  C   UNK N   1      28.114  18.322   4.718  0.00  0.00     0.145 C 
HETATM   19  C   UNK N   1      26.501  17.149   3.315  0.00  0.00     0.215 C 
HETATM   20  C   UNK N   1      28.843  17.732   5.910  0.00  0.00     0.143 C 
HETATM   21  C   UNK N   1      26.112  16.016   2.412  0.00  0.00     0.117 C 
HETATM   22  O   UNK N   1      25.665  17.996   3.584  0.00  0.00    -0.274 OA
ENDBRANCH  11  14
ENDBRANCH   7   8
ENDBRANCH   6   7
ENDBRANCH   2   6
BRANCH   5  23
HETATM   23  C   UNK N   1      34.092  13.957   7.130  0.00  0.00     0.027 A 
HETATM   24  C   UNK N   1      32.692  13.818   7.055  0.00  0.00     0.016 A 
HETATM   25  C   UNK N   1      32.038  13.673   5.832  0.00  0.00     0.024 A 
HETATM   26  C   UNK N   1      32.770  13.676   4.650  0.00  0.00     0.035 A 
HETATM   27 Cl   UNK N   1      31.956  13.485   3.112  0.00  0.00    -0.084 Cl
HETATM   28  C   UNK N   1      34.153  13.826   4.689  0.00  0.00     0.048 A 
HETATM   29  C   UNK N   1      34.829  13.964   5.906  0.00  0.00     0.047 A 
HETATM   30 Cl   UNK N   1      36.569  14.142   5.793  0.00  0.00    -0.084 Cl
ENDBRANCH   5  23
BRANCH   5  31
HETATM   31  C   UNK N   1      35.475  12.770   8.815  0.00  0.00     0.203 C 
BRANCH  31  32
HETATM   32  N   UNK N   1      34.787  11.874   9.739  0.00  0.00    -0.346 N 
HETATM   33  C   UNK N   1      35.200  11.567  10.978  0.00  0.00     0.109 A 
HETATM   34  C   UNK N   1      34.287  10.681  11.513  0.00  0.00     0.106 A 
HETATM   35  N   UNK N   1      33.318  10.457  10.599  0.00  0.00    -0.361 N 
HETATM   36  C   UNK N   1      33.645  11.202   9.524  0.00  0.00     0.182 A 
ATOM     37  HN  UNK N   1      32.505   9.849  10.701  1.00  0.00     0.166 HD
ENDBRANCH  31  32
ENDBRANCH   5  31
TORSDOF 7
ENDMDL
MODEL 5
REMARK VINA RESULT:      -7.0      2.586      3.997
REMARK  7 active torsions:
REMARK  status: ('A' for Active; 'I' for Inactive)
REMARK    1  A    between atoms: C_28  and  C_3 
REMARK    2  A    between atoms: C_7  and  O_22 
REMARK    3  A    between atoms: C_12  and  N_17 
REMARK       I    between atoms: N_18  and  C_20 
REMARK    4  A    between atoms: O_22  and  C_24 
REMARK    5  A    between atoms: C_25  and  C_24 
REMARK    6  A    between atoms: C_28  and  C_31 
REMARK    7  A    between atoms: C_31  and  N_35 
ROOT
HETATM    1  C   UNK N   1      34.167  14.928  10.597  0.00  0.00     0.206 C 
HETATM    2  C   UNK N   1      35.351  15.684  10.082  0.00  0.00     0.173 C 
HETATM    3  O   UNK N   1      33.680  14.182   9.524  0.00  0.00    -0.347 OA
HETATM    4  O   UNK N   1      35.656  15.134   8.830  0.00  0.00    -0.340 OA
HETATM    5  C   UNK N   1      34.776  14.050   8.647  0.00  0.00     0.212 C 
ENDROOT
BRANCH   2   6
HETATM    6  C   UNK N   1      34.925  17.138   9.971  0.00  0.00     0.209 C 
BRANCH   6   7
HETATM    7  O   UNK N   1      34.852  17.565   8.665  0.00  0.00    -0.349 OA
BRANCH   7   8
HETATM    8  C   UNK N   1      33.725  17.480   7.926  0.00  0.00     0.069 A 
HETATM    9  C   UNK N   1      32.465  17.359   8.528  0.00  0.00     0.039 A 
HETATM   10  C   UNK N   1      31.322  17.237   7.741  0.00  0.00     0.032 A 
HETATM   11  C   UNK N   1      31.415  17.218   6.340  0.00  0.00     0.030 A 
HETATM   12  C   UNK N   1      32.680  17.345   5.741  0.00  0.00     0.032 A 
HETATM   13  C   UNK N   1      33.826  17.482   6.531  0.00  0.00     0.039 A 
BRANCH  11  14
HETATM   14  N   UNK N   1      30.237  17.081   5.547  0.00  0.00    -0.378 N 
HETATM   15  C   UNK N   1      28.939  17.366   6.148  0.00  0.00     0.143 C 
HETATM   16  C   UNK N   1      27.762  17.346   5.161  0.00  0.00     0.145 C 
HETATM   17  N   UNK N   1      27.932  16.420   4.054  0.00  0.00    -0.349 N 
HETATM   18  C   UNK N   1      29.157  15.653   3.933  0.00  0.00     0.145 C 
HETATM   19  C   UNK N   1      26.959  16.307   3.103  0.00  0.00     0.215 C 
HETATM   20  C   UNK N   1      30.322  16.590   4.184  0.00  0.00     0.143 C 
HETATM   21  C   UNK N   1      25.697  17.114   3.196  0.00  0.00     0.117 C 
HETATM   22  O   UNK N   1      27.099  15.546   2.161  0.00  0.00    -0.274 OA
ENDBRANCH  11  14
ENDBRANCH   7   8
ENDBRANCH   6   7
ENDBRANCH   2   6
BRANCH   5  23
HETATM   23  C   UNK N   1      34.226  13.979   7.219  0.00  0.00     0.027 A 
HETATM   24  C   UNK N   1      32.841  13.750   7.091  0.00  0.00     0.016 A 
HETATM   25  C   UNK N   1      32.234  13.640   5.840  0.00  0.00     0.024 A 
HETATM   26  C   UNK N   1      32.997  13.769   4.685  0.00  0.00     0.035 A 
HETATM   27 Cl   UNK N   1      32.241  13.622   3.113  0.00  0.00    -0.084 Cl
HETATM   28  C   UNK N   1      34.364  14.009   4.778  0.00  0.00     0.048 A 
HETATM   29  C   UNK N   1      34.995  14.115   6.022  0.00  0.00     0.047 A 
HETATM   30 Cl   UNK N   1      36.721  14.417   5.977  0.00  0.00    -0.084 Cl
ENDBRANCH   5  23
BRANCH   5  31
HETATM   31  C   UNK N   1      35.546  12.730   8.910  0.00  0.00     0.203 C 
BRANCH  31  32
HETATM   32  N   UNK N   1      36.803  12.930   9.626  0.00  0.00    -0.346 N 
HETATM   33  C   UNK N   1      37.979  13.242   9.061  0.00  0.00     0.109 A 
HETATM   34  C   UNK N   1      38.916  13.324  10.072  0.00  0.00     0.106 A 
HETATM   35  N   UNK N   1      38.304  13.069  11.248  0.00  0.00    -0.361 N 
HETATM   36  C   UNK N   1      37.011  12.835  10.949  0.00  0.00     0.182 A 
ATOM     37  HN  UNK N   1      38.732  13.055  12.174  1.00  0.00     0.166 HD
ENDBRANCH  31  32
ENDBRANCH   5  31
TORSDOF 7
ENDMDL
MODEL 6
REMARK VINA RESULT:      -6.6      2.999      5.111
REMARK  7 active torsions:
REMARK  status: ('A' for Active; 'I' for Inactive)
REMARK    1  A    between atoms: C_28  and  C_3 
REMARK    2  A    between atoms: C_7  and  O_22 
REMARK    3  A    between atoms: C_12  and  N_17 
REMARK       I    between atoms: N_18  and  C_20 
REMARK    4  A    between atoms: O_22  and  C_24 
REMARK    5  A    between atoms: C_25  and  C_24 
REMARK    6  A    between atoms: C_28  and  C_31 
REMARK    7  A    between atoms: C_31  and  N_35 
ROOT
HETATM    1  C   UNK N   1      31.431  16.380   8.862  0.00  0.00     0.206 C 
HETATM    2  C   UNK N   1      30.990  17.558   8.053  0.00  0.00     0.173 C 
HETATM    3  O   UNK N   1      32.125  15.542   7.990  0.00  0.00    -0.347 OA
HETATM    4  O   UNK N   1      31.679  17.481   6.836  0.00  0.00    -0.340 OA
HETATM    5  C   UNK N   1      32.555  16.384   6.943  0.00  0.00     0.212 C 
ENDROOT
BRANCH   2   6
HETATM    6  C   UNK N   1      29.489  17.420   7.861  0.00  0.00     0.209 C 
BRANCH   6   7
HETATM    7  O   UNK N   1      29.153  17.116   6.562  0.00  0.00    -0.349 OA
BRANCH   7   8
HETATM    8  C   UNK N   1      27.996  17.514   5.989  0.00  0.00     0.069 A 
HETATM    9  C   UNK N   1      27.129  16.595   5.382  0.00  0.00     0.039 A 
HETATM   10  C   UNK N   1      25.960  17.037   4.767  0.00  0.00     0.032 A 
HETATM   11  C   UNK N   1      25.642  18.404   4.732  0.00  0.00     0.030 A 
HETATM   12  C   UNK N   1      26.511  19.321   5.347  0.00  0.00     0.032 A 
HETATM   13  C   UNK N   1      27.677  18.876   5.977  0.00  0.00     0.039 A 
BRANCH  11  14
HETATM   14  N   UNK N   1      24.446  18.843   4.089  0.00  0.00    -0.378 N 
HETATM   15  C   UNK N   1      24.397  20.184   3.516  0.00  0.00     0.143 C 
HETATM   16  C   UNK N   1      23.125  20.486   2.710  0.00  0.00     0.145 C 
HETATM   17  N   UNK N   1      21.942  19.788   3.184  0.00  0.00    -0.349 N 
HETATM   18  C   UNK N   1      22.044  18.865   4.297  0.00  0.00     0.145 C 
HETATM   19  C   UNK N   1      20.746  19.967   2.552  0.00  0.00     0.215 C 
HETATM   20  C   UNK N   1      23.267  17.997   4.073  0.00  0.00     0.143 C 
HETATM   21  C   UNK N   1      20.627  20.898   1.381  0.00  0.00     0.117 C 
HETATM   22  O   UNK N   1      19.750  19.374   2.931  0.00  0.00    -0.274 OA
ENDBRANCH  11  14
ENDBRANCH   7   8
ENDBRANCH   6   7
ENDBRANCH   2   6
BRANCH   5  23
HETATM   23  C   UNK N   1      32.603  15.548   5.661  0.00  0.00     0.027 A 
HETATM   24  C   UNK N   1      32.591  14.148   5.824  0.00  0.00     0.016 A 
HETATM   25  C   UNK N   1      32.658  13.286   4.730  0.00  0.00     0.024 A 
HETATM   26  C   UNK N   1      32.728  13.805   3.441  0.00  0.00     0.035 A 
HETATM   27 Cl   UNK N   1      32.822  12.728   2.065  0.00  0.00    -0.084 Cl
HETATM   28  C   UNK N   1      32.727  15.183   3.246  0.00  0.00     0.048 A 
HETATM   29  C   UNK N   1      32.669  16.065   4.331  0.00  0.00     0.047 A 
HETATM   30 Cl   UNK N   1      32.679  17.770   3.925  0.00  0.00    -0.084 Cl
ENDBRANCH   5  23
BRANCH   5  31
HETATM   31  C   UNK N   1      33.989  16.911   7.204  0.00  0.00     0.203 C 
BRANCH  31  32
HETATM   32  N   UNK N   1      34.650  16.252   8.327  0.00  0.00    -0.346 N 
HETATM   33  C   UNK N   1      34.858  16.797   9.535  0.00  0.00     0.109 A 
HETATM   34  C   UNK N   1      35.523  15.862  10.302  0.00  0.00     0.106 A 
HETATM   35  N   UNK N   1      35.711  14.750   9.559  0.00  0.00    -0.361 N 
HETATM   36  C   UNK N   1      35.164  15.013   8.356  0.00  0.00     0.182 A 
ATOM     37  HN  UNK N   1      36.173  13.888   9.849  1.00  0.00     0.166 HD
ENDBRANCH  31  32
ENDBRANCH   5  31
TORSDOF 7
ENDMDL
MODEL 7
REMARK VINA RESULT:      -6.6      3.793      5.660
REMARK  7 active torsions:
REMARK  status: ('A' for Active; 'I' for Inactive)
REMARK    1  A    between atoms: C_28  and  C_3 
REMARK    2  A    between atoms: C_7  and  O_22 
REMARK    3  A    between atoms: C_12  and  N_17 
REMARK       I    between atoms: N_18  and  C_20 
REMARK    4  A    between atoms: O_22  and  C_24 
REMARK    5  A    between atoms: C_25  and  C_24 
REMARK    6  A    between atoms: C_28  and  C_31 
REMARK    7  A    between atoms: C_31  and  N_35 
ROOT
HETATM    1  C   UNK N   1      36.424  14.088  10.465  0.00  0.00     0.206 C 
HETATM    2  C   UNK N   1      35.393  13.021  10.280  0.00  0.00     0.173 C 
HETATM    3  O   UNK N   1      36.761  14.079  11.818  0.00  0.00    -0.347 OA
HETATM    4  O   UNK N   1      35.386  12.269  11.462  0.00  0.00    -0.340 OA
HETATM    5  C   UNK N   1      36.418  12.787  12.268  0.00  0.00     0.212 C 
ENDROOT
BRANCH   2   6
HETATM    6  C   UNK N   1      34.068  13.729  10.054  0.00  0.00     0.209 C 
BRANCH   6   7
HETATM    7  O   UNK N   1      33.687  13.719   8.732  0.00  0.00    -0.349 OA
BRANCH   7   8
HETATM    8  C   UNK N   1      32.762  14.563   8.226  0.00  0.00     0.069 A 
HETATM    9  C   UNK N   1      32.318  14.450   6.901  0.00  0.00     0.039 A 
HETATM   10  C   UNK N   1      31.391  15.356   6.394  0.00  0.00     0.032 A 
HETATM   11  C   UNK N   1      30.901  16.403   7.193  0.00  0.00     0.030 A 
HETATM   12  C   UNK N   1      31.345  16.509   8.522  0.00  0.00     0.032 A 
HETATM   13  C   UNK N   1      32.265  15.590   9.035  0.00  0.00     0.039 A 
BRANCH  11  14
HETATM   14  N   UNK N   1      29.959  17.331   6.656  0.00  0.00    -0.378 N 
HETATM   15  C   UNK N   1      28.923  17.877   7.526  0.00  0.00     0.143 C 
HETATM   16  C   UNK N   1      28.073  18.984   6.886  0.00  0.00     0.145 C 
HETATM   17  N   UNK N   1      27.903  18.848   5.450  0.00  0.00    -0.349 N 
HETATM   18  C   UNK N   1      28.554  17.760   4.745  0.00  0.00     0.145 C 
HETATM   19  C   UNK N   1      27.171  19.769   4.759  0.00  0.00     0.215 C 
HETATM   20  C   UNK N   1      29.982  17.668   5.245  0.00  0.00     0.143 C 
HETATM   21  C   UNK N   1      26.514  20.917   5.468  0.00  0.00     0.117 C 
HETATM   22  O   UNK N   1      27.036  19.673   3.550  0.00  0.00    -0.274 OA
ENDBRANCH  11  14
ENDBRANCH   7   8
ENDBRANCH   6   7
ENDBRANCH   2   6
BRANCH   5  23
HETATM   23  C   UNK N   1      36.009  12.899  13.740  0.00  0.00     0.027 A 
HETATM   24  C   UNK N   1      36.719  13.834  14.520  0.00  0.00     0.016 A 
HETATM   25  C   UNK N   1      36.451  14.003  15.877  0.00  0.00     0.024 A 
HETATM   26  C   UNK N   1      35.456  13.248  16.488  0.00  0.00     0.035 A 
HETATM   27 Cl   UNK N   1      35.122  13.450  18.194  0.00  0.00    -0.084 Cl
HETATM   28  C   UNK N   1      34.727  12.326  15.742  0.00  0.00     0.048 A 
HETATM   29  C   UNK N   1      34.985  12.135  14.381  0.00  0.00     0.047 A 
HETATM   30 Cl   UNK N   1      33.986  10.939  13.578  0.00  0.00    -0.084 Cl
ENDBRANCH   5  23
BRANCH   5  31
HETATM   31  C   UNK N   1      37.635  11.830  12.200  0.00  0.00     0.203 C 
BRANCH  31  32
HETATM   32  N   UNK N   1      37.274  10.426  12.372  0.00  0.00    -0.346 N 
HETATM   33  C   UNK N   1      36.681   9.656  11.447  0.00  0.00     0.109 A 
HETATM   34  C   UNK N   1      36.495   8.406  12.004  0.00  0.00     0.106 A 
HETATM   35  N   UNK N   1      36.982   8.420  13.264  0.00  0.00    -0.361 N 
HETATM   36  C   UNK N   1      37.456   9.666  13.464  0.00  0.00     0.182 A 
ATOM     37  HN  UNK N   1      36.989   7.646  13.929  1.00  0.00     0.166 HD
ENDBRANCH  31  32
ENDBRANCH   5  31
TORSDOF 7
ENDMDL
MODEL 8
REMARK VINA RESULT:      -6.6     12.384     16.781
REMARK  7 active torsions:
REMARK  status: ('A' for Active; 'I' for Inactive)
REMARK    1  A    between atoms: C_28  and  C_3 
REMARK    2  A    between atoms: C_7  and  O_22 
REMARK    3  A    between atoms: C_12  and  N_17 
REMARK       I    between atoms: N_18  and  C_20 
REMARK    4  A    between atoms: O_22  and  C_24 
REMARK    5  A    between atoms: C_25  and  C_24 
REMARK    6  A    between atoms: C_28  and  C_31 
REMARK    7  A    between atoms: C_31  and  N_35 
ROOT
HETATM    1  C   UNK N   1      25.725  27.685  -3.376  0.00  0.00     0.206 C 
HETATM    2  C   UNK N   1      25.500  28.055  -4.808  0.00  0.00     0.173 C 
HETATM    3  O   UNK N   1      27.102  27.750  -3.166  0.00  0.00    -0.347 OA
HETATM    4  O   UNK N   1      26.711  28.580  -5.275  0.00  0.00    -0.340 OA
HETATM    5  C   UNK N   1      27.581  28.618  -4.169  0.00  0.00     0.212 C 
ENDROOT
BRANCH   2   6
HETATM    6  C   UNK N   1      25.121  26.777  -5.536  0.00  0.00     0.209 C 
BRANCH   6   7
HETATM    7  O   UNK N   1      26.085  26.380  -6.434  0.00  0.00    -0.349 OA
BRANCH   7   8
HETATM    8  C   UNK N   1      27.057  25.494  -6.126  0.00  0.00     0.069 A 
HETATM    9  C   UNK N   1      26.946  24.644  -5.018  0.00  0.00     0.039 A 
HETATM   10  C   UNK N   1      27.979  23.766  -4.703  0.00  0.00     0.032 A 
HETATM   11  C   UNK N   1      29.151  23.729  -5.477  0.00  0.00     0.030 A 
HETATM   12  C   UNK N   1      29.255  24.579  -6.592  0.00  0.00     0.032 A 
HETATM   13  C   UNK N   1      28.211  25.451  -6.916  0.00  0.00     0.039 A 
BRANCH  11  14
HETATM   14  N   UNK N   1      30.206  22.832  -5.136  0.00  0.00    -0.378 N 
HETATM   15  C   UNK N   1      30.054  21.411  -5.428  0.00  0.00     0.143 C 
HETATM   16  C   UNK N   1      31.312  20.570  -5.169  0.00  0.00     0.145 C 
HETATM   17  N   UNK N   1      32.146  21.066  -4.088  0.00  0.00    -0.349 N 
HETATM   18  C   UNK N   1      31.781  22.286  -3.394  0.00  0.00     0.145 C 
HETATM   19  C   UNK N   1      33.297  20.411  -3.758  0.00  0.00     0.215 C 
HETATM   20  C   UNK N   1      31.382  23.314  -4.435  0.00  0.00     0.143 C 
HETATM   21  C   UNK N   1      33.705  19.163  -4.484  0.00  0.00     0.117 C 
HETATM   22  O   UNK N   1      34.013  20.828  -2.863  0.00  0.00    -0.274 OA
ENDBRANCH  11  14
ENDBRANCH   7   8
ENDBRANCH   6   7
ENDBRANCH   2   6
BRANCH   5  23
HETATM   23  C   UNK N   1      29.003  28.176  -4.529  0.00  0.00     0.027 A 
HETATM   24  C   UNK N   1      29.586  27.199  -3.697  0.00  0.00     0.016 A 
HETATM   25  C   UNK N   1      30.885  26.739  -3.913  0.00  0.00     0.024 A 
HETATM   26  C   UNK N   1      31.630  27.239  -4.975  0.00  0.00     0.035 A 
HETATM   27 Cl   UNK N   1      33.264  26.673  -5.244  0.00  0.00    -0.084 Cl
HETATM   28  C   UNK N   1      31.078  28.194  -5.823  0.00  0.00     0.048 A 
HETATM   29  C   UNK N   1      29.780  28.675  -5.620  0.00  0.00     0.047 A 
HETATM   30 Cl   UNK N   1      29.225  29.877  -6.768  0.00  0.00    -0.084 Cl
ENDBRANCH   5  23
BRANCH   5  31
HETATM   31  C   UNK N   1      27.670  30.076  -3.650  0.00  0.00     0.203 C 
BRANCH  31  32
HETATM   32  N   UNK N   1      28.521  30.217  -2.473  0.00  0.00    -0.346 N 
HETATM   33  C   UNK N   1      28.185  29.863  -1.223  0.00  0.00     0.109 A 
HETATM   34  C   UNK N   1      29.251  30.173  -0.403  0.00  0.00     0.106 A 
HETATM   35  N   UNK N   1      30.234  30.709  -1.158  0.00  0.00    -0.361 N 
HETATM   36  C   UNK N   1      29.764  30.721  -2.421  0.00  0.00     0.182 A 
ATOM     37  HN  UNK N   1      31.145  31.038  -0.838  1.00  0.00     0.166 HD
ENDBRANCH  31  32
ENDBRANCH   5  31
TORSDOF 7
ENDMDL
MODEL 9
REMARK VINA RESULT:      -6.6      4.593     11.409
REMARK  7 active torsions:
REMARK  status: ('A' for Active; 'I' for Inactive)
REMARK    1  A    between atoms: C_28  and  C_3 
REMARK    2  A    between atoms: C_7  and  O_22 
REMARK    3  A    between atoms: C_12  and  N_17 
REMARK       I    between atoms: N_18  and  C_20 
REMARK    4  A    between atoms: O_22  and  C_24 
REMARK    5  A    between atoms: C_25  and  C_24 
REMARK    6  A    between atoms: C_28  and  C_31 
REMARK    7  A    between atoms: C_31  and  N_35 
ROOT
HETATM    1  C   UNK N   1      20.792  19.713   2.560  0.00  0.00     0.206 C 
HETATM    2  C   UNK N   1      21.938  19.602   3.515  0.00  0.00     0.173 C 
HETATM    3  O   UNK N   1      20.507  18.415   2.137  0.00  0.00    -0.347 OA
HETATM    4  O   UNK N   1      22.077  18.239   3.808  0.00  0.00    -0.340 OA
HETATM    5  C   UNK N   1      21.020  17.582   3.152  0.00  0.00     0.212 C 
ENDROOT
BRANCH   2   6
HETATM    6  C   UNK N   1      23.159  20.153   2.798  0.00  0.00     0.209 C 
BRANCH   6   7
HETATM    7  O   UNK N   1      24.088  20.673   3.669  0.00  0.00    -0.349 OA
BRANCH   7   8
HETATM    8  C   UNK N   1      25.198  20.002   4.048  0.00  0.00     0.069 A 
HETATM    9  C   UNK N   1      25.580  18.810   3.418  0.00  0.00     0.039 A 
HETATM   10  C   UNK N   1      26.709  18.120   3.852  0.00  0.00     0.032 A 
HETATM   11  C   UNK N   1      27.469  18.597   4.932  0.00  0.00     0.030 A 
HETATM   12  C   UNK N   1      27.086  19.797   5.557  0.00  0.00     0.032 A 
HETATM   13  C   UNK N   1      25.961  20.497   5.111  0.00  0.00     0.039 A 
BRANCH  11  14
HETATM   14  N   UNK N   1      28.618  17.874   5.373  0.00  0.00    -0.378 N 
HETATM   15  C   UNK N   1      28.948  17.860   6.794  0.00  0.00     0.143 C 
HETATM   16  C   UNK N   1      30.103  16.920   7.170  0.00  0.00     0.145 C 
HETATM   17  N   UNK N   1      31.102  16.760   6.127  0.00  0.00    -0.349 N 
HETATM   18  C   UNK N   1      30.928  17.425   4.850  0.00  0.00     0.145 C 
HETATM   19  C   UNK N   1      32.179  15.948   6.334  0.00  0.00     0.215 C 
HETATM   20  C   UNK N   1      29.490  17.225   4.412  0.00  0.00     0.143 C 
HETATM   21  C   UNK N   1      32.361  15.230   7.639  0.00  0.00     0.117 C 
HETATM   22  O   UNK N   1      33.015  15.794   5.459  0.00  0.00    -0.274 OA
ENDBRANCH  11  14
ENDBRANCH   7   8
ENDBRANCH   6   7
ENDBRANCH   2   6
BRANCH   5  23
HETATM   23  C   UNK N   1      21.464  16.269   2.499  0.00  0.00     0.027 A 
HETATM   24  C   UNK N   1      20.668  15.797   1.435  0.00  0.00     0.016 A 
HETATM   25  C   UNK N   1      20.961  14.600   0.783  0.00  0.00     0.024 A 
HETATM   26  C   UNK N   1      22.066  13.850   1.170  0.00  0.00     0.035 A 
HETATM   27 Cl   UNK N   1      22.433  12.343   0.360  0.00  0.00    -0.084 Cl
HETATM   28  C   UNK N   1      22.880  14.297   2.207  0.00  0.00     0.048 A 
HETATM   29  C   UNK N   1      22.599  15.491   2.881  0.00  0.00     0.047 A 
HETATM   30 Cl   UNK N   1      23.713  15.919   4.164  0.00  0.00    -0.084 Cl
ENDBRANCH   5  23
BRANCH   5  31
HETATM   31  C   UNK N   1      19.925  17.230   4.193  0.00  0.00     0.203 C 
BRANCH  31  32
HETATM   32  N   UNK N   1      20.450  16.545   5.370  0.00  0.00    -0.346 N 
HETATM   33  C   UNK N   1      21.099  17.132   6.387  0.00  0.00     0.109 A 
HETATM   34  C   UNK N   1      21.443  16.144   7.286  0.00  0.00     0.106 A 
HETATM   35  N   UNK N   1      20.995  14.959   6.816  0.00  0.00    -0.361 N 
HETATM   36  C   UNK N   1      20.387  15.233   5.645  0.00  0.00     0.182 A 
ATOM     37  HN  UNK N   1      21.096  14.045   7.257  1.00  0.00     0.166 HD
ENDBRANCH  31  32
ENDBRANCH   5  31
TORSDOF 7
ENDMDL
