MODEL 1
REMARK VINA RESULT:      -6.7      0.000      0.000
REMARK  5 active torsions:
REMARK  status: ('A' for Active; 'I' for Inactive)
REMARK    1  A    between atoms: C_1  and  N_7 
REMARK    2  A    between atoms: N_7  and  C_10 
REMARK    3  A    between atoms: C_12  and  C_17 
REMARK    4  A    between atoms: C_17  and  C_18 
REMARK    5  A    between atoms: C_18  and  O_20 
ROOT
HETATM    1  C   UNK N   1      30.186  17.590   6.919  0.00  0.00     0.039 A 
HETATM    2  C   UNK N   1      31.109  17.156   5.961  0.00  0.00     0.030 A 
HETATM    3  C   UNK N   1      30.644  17.964   8.196  0.00  0.00    -0.021 A 
HETATM    4  C   UNK N   1      32.004  17.832   8.515  0.00  0.00     0.016 A 
HETATM    5  C   UNK N   1      32.907  17.360   7.565  0.00  0.00    -0.061 A 
HETATM    6  C   UNK N   1      32.465  17.037   6.283  0.00  0.00     0.009 A 
HETATM    7  C   UNK N   1      34.340  17.198   7.924  0.00  0.00     0.048 C 
ENDROOT
BRANCH   1   8
HETATM    8  N   UNK N   1      28.782  17.671   6.647  0.00  0.00    -0.352 N 
HETATM    9  H   UNK N   1      28.262  16.914   6.999  0.00  0.00     0.166 HD
BRANCH   8  10
HETATM   10  C   UNK N   1      27.998  18.647   5.960  0.00  0.00     0.093 A 
HETATM   11  C   UNK N   1      27.408  19.794   6.568  0.00  0.00     0.144 A 
HETATM   12  C   UNK N   1      26.711  20.720   5.791  0.00  0.00     0.045 A 
HETATM   13  F   UNK N   1      27.518  20.061   7.886  0.00  0.00    -0.204 F 
HETATM   14  C   UNK N   1      26.585  20.545   4.415  0.00  0.00     0.005 A 
HETATM   15  C   UNK N   1      27.161  19.436   3.804  0.00  0.00     0.026 A 
HETATM   16  C   UNK N   1      27.858  18.496   4.561  0.00  0.00     0.063 A 
HETATM   17 Cl   UNK N   1      28.592  17.131   3.731  0.00  0.00    -0.082 Cl
ENDBRANCH   8  10
ENDBRANCH   1   8
BRANCH   3  18
HETATM   18  C   UNK N   1      29.681  18.457   9.236  0.00  0.00     0.150 C 
BRANCH  18  19
HETATM   19  C   UNK N   1      28.938  17.334   9.895  0.00  0.00     0.143 C 
HETATM   20  O   UNK N   1      27.776  17.108   9.595  0.00  0.00    -0.650 OA
BRANCH  19  21
HETATM   21  O   UNK N   1      29.541  16.593  10.842  0.00  0.00    -0.776 OA
HETATM   22  H   UNK N   1      30.013  15.787  10.773  0.00  0.00     0.167 HD
ENDBRANCH  19  21
ENDBRANCH  18  19
ENDBRANCH   3  18
TORSDOF 5
ENDMDL
MODEL 2
REMARK VINA RESULT:      -6.5      7.625      9.781
REMARK  5 active torsions:
REMARK  status: ('A' for Active; 'I' for Inactive)
REMARK    1  A    between atoms: C_1  and  N_7 
REMARK    2  A    between atoms: N_7  and  C_10 
REMARK    3  A    between atoms: C_12  and  C_17 
REMARK    4  A    between atoms: C_17  and  C_18 
REMARK    5  A    between atoms: C_18  and  O_20 
ROOT
HETATM    1  C   UNK N   1      22.255  18.876   3.757  0.00  0.00     0.039 A 
HETATM    2  C   UNK N   1      23.380  18.227   4.279  0.00  0.00     0.030 A 
HETATM    3  C   UNK N   1      22.429  20.039   2.984  0.00  0.00    -0.021 A 
HETATM    4  C   UNK N   1      23.714  20.571   2.804  0.00  0.00     0.016 A 
HETATM    5  C   UNK N   1      24.822  19.939   3.363  0.00  0.00    -0.061 A 
HETATM    6  C   UNK N   1      24.659  18.758   4.088  0.00  0.00     0.009 A 
HETATM    7  C   UNK N   1      26.176  20.528   3.190  0.00  0.00     0.048 C 
ENDROOT
BRANCH   1   8
HETATM    8  N   UNK N   1      20.924  18.397   3.979  0.00  0.00    -0.352 N 
HETATM    9  H   UNK N   1      20.231  19.091   3.905  0.00  0.00     0.166 HD
BRANCH   8  10
HETATM   10  C   UNK N   1      20.415  17.099   4.288  0.00  0.00     0.093 A 
HETATM   11  C   UNK N   1      20.010  16.131   3.321  0.00  0.00     0.144 A 
HETATM   12  C   UNK N   1      19.586  14.866   3.729  0.00  0.00     0.045 A 
HETATM   13  F   UNK N   1      20.050  16.364   1.992  0.00  0.00    -0.204 F 
HETATM   14  C   UNK N   1      19.555  14.526   5.080  0.00  0.00     0.005 A 
HETATM   15  C   UNK N   1      19.954  15.455   6.036  0.00  0.00     0.026 A 
HETATM   16  C   UNK N   1      20.378  16.726   5.650  0.00  0.00     0.063 A 
HETATM   17 Cl   UNK N   1      20.900  17.848   6.899  0.00  0.00    -0.082 Cl
ENDBRANCH   8  10
ENDBRANCH   1   8
BRANCH   3  18
HETATM   18  C   UNK N   1      21.243  20.742   2.390  0.00  0.00     0.150 C 
BRANCH  18  19
HETATM   19  C   UNK N   1      20.967  20.295   0.986  0.00  0.00     0.143 C 
HETATM   20  O   UNK N   1      21.192  21.044   0.048  0.00  0.00    -0.650 OA
BRANCH  19  21
HETATM   21  O   UNK N   1      20.440  19.078   0.758  0.00  0.00    -0.776 OA
HETATM   22  H   UNK N   1      20.079  18.452   1.353  0.00  0.00     0.167 HD
ENDBRANCH  19  21
ENDBRANCH  18  19
ENDBRANCH   3  18
TORSDOF 5
ENDMDL
MODEL 3
REMARK VINA RESULT:      -6.5      1.965      4.918
REMARK  5 active torsions:
REMARK  status: ('A' for Active; 'I' for Inactive)
REMARK    1  A    between atoms: C_1  and  N_7 
REMARK    2  A    between atoms: N_7  and  C_10 
REMARK    3  A    between atoms: C_12  and  C_17 
REMARK    4  A    between atoms: C_17  and  C_18 
REMARK    5  A    between atoms: C_18  and  O_20 
ROOT
HETATM    1  C   UNK N   1      28.668  18.357   5.618  0.00  0.00     0.039 A 
HETATM    2  C   UNK N   1      28.160  19.131   4.569  0.00  0.00     0.030 A 
HETATM    3  C   UNK N   1      28.371  18.718   6.945  0.00  0.00    -0.021 A 
HETATM    4  C   UNK N   1      27.633  19.883   7.203  0.00  0.00     0.016 A 
HETATM    5  C   UNK N   1      27.166  20.668   6.151  0.00  0.00    -0.061 A 
HETATM    6  C   UNK N   1      27.416  20.285   4.833  0.00  0.00     0.009 A 
HETATM    7  C   UNK N   1      26.410  21.915   6.437  0.00  0.00     0.048 C 
ENDROOT
BRANCH   1   8
HETATM    8  N   UNK N   1      29.482  17.201   5.391  0.00  0.00    -0.352 N 
HETATM    9  H   UNK N   1      29.053  16.353   5.647  0.00  0.00     0.166 HD
BRANCH   8  10
HETATM   10  C   UNK N   1      30.800  17.050   4.863  0.00  0.00     0.093 A 
HETATM   11  C   UNK N   1      32.002  17.250   5.604  0.00  0.00     0.144 A 
HETATM   12  C   UNK N   1      33.241  17.014   5.008  0.00  0.00     0.045 A 
HETATM   13  F   UNK N   1      32.009  17.633   6.898  0.00  0.00    -0.204 F 
HETATM   14  C   UNK N   1      33.326  16.575   3.689  0.00  0.00     0.005 A 
HETATM   15  C   UNK N   1      32.163  16.366   2.954  0.00  0.00     0.026 A 
HETATM   16  C   UNK N   1      30.915  16.600   3.529  0.00  0.00     0.063 A 
HETATM   17 Cl   UNK N   1      29.479  16.290   2.563  0.00  0.00    -0.082 Cl
ENDBRANCH   8  10
ENDBRANCH   1   8
BRANCH   3  18
HETATM   18  C   UNK N   1      28.881  17.892   8.090  0.00  0.00     0.150 C 
BRANCH  18  19
HETATM   19  C   UNK N   1      27.800  17.060   8.711  0.00  0.00     0.143 C 
HETATM   20  O   UNK N   1      27.764  16.906   9.922  0.00  0.00    -0.650 OA
BRANCH  19  21
HETATM   21  O   UNK N   1      26.886  16.454   7.933  0.00  0.00    -0.776 OA
HETATM   22  H   UNK N   1      26.542  16.699   7.097  0.00  0.00     0.167 HD
ENDBRANCH  19  21
ENDBRANCH  18  19
ENDBRANCH   3  18
TORSDOF 5
ENDMDL
MODEL 4
REMARK VINA RESULT:      -6.4     11.379     13.411
REMARK  5 active torsions:
REMARK  status: ('A' for Active; 'I' for Inactive)
REMARK    1  A    between atoms: C_1  and  N_7 
REMARK    2  A    between atoms: N_7  and  C_10 
REMARK    3  A    between atoms: C_12  and  C_17 
REMARK    4  A    between atoms: C_17  and  C_18 
REMARK    5  A    between atoms: C_18  and  O_20 
ROOT
HETATM    1  C   UNK N   1      29.518  25.544  -4.038  0.00  0.00     0.039 A 
HETATM    2  C   UNK N   1      30.127  26.754  -4.389  0.00  0.00     0.030 A 
HETATM    3  C   UNK N   1      30.295  24.371  -3.990  0.00  0.00    -0.021 A 
HETATM    4  C   UNK N   1      31.647  24.415  -4.361  0.00  0.00     0.016 A 
HETATM    5  C   UNK N   1      32.232  25.619  -4.748  0.00  0.00    -0.061 A 
HETATM    6  C   UNK N   1      31.478  26.792  -4.747  0.00  0.00     0.009 A 
HETATM    7  C   UNK N   1      33.658  25.647  -5.166  0.00  0.00     0.048 C 
ENDROOT
BRANCH   1   8
HETATM    8  N   UNK N   1      28.125  25.453  -3.720  0.00  0.00    -0.352 N 
HETATM    9  H   UNK N   1      27.924  24.847  -2.972  0.00  0.00     0.166 HD
BRANCH   8  10
HETATM   10  C   UNK N   1      26.973  26.078  -4.287  0.00  0.00     0.093 A 
HETATM   11  C   UNK N   1      26.433  27.329  -3.864  0.00  0.00     0.144 A 
HETATM   12  C   UNK N   1      25.339  27.882  -4.530  0.00  0.00     0.045 A 
HETATM   13  F   UNK N   1      26.959  28.047  -2.850  0.00  0.00    -0.204 F 
HETATM   14  C   UNK N   1      24.760  27.229  -5.615  0.00  0.00     0.005 A 
HETATM   15  C   UNK N   1      25.279  26.011  -6.046  0.00  0.00     0.026 A 
HETATM   16  C   UNK N   1      26.369  25.439  -5.394  0.00  0.00     0.063 A 
HETATM   17 Cl   UNK N   1      27.002  23.915  -6.001  0.00  0.00    -0.082 Cl
ENDBRANCH   8  10
ENDBRANCH   1   8
BRANCH   3  18
HETATM   18  C   UNK N   1      29.674  23.064  -3.593  0.00  0.00     0.150 C 
BRANCH  18  19
HETATM   19  C   UNK N   1      29.410  22.989  -2.119  0.00  0.00     0.143 C 
HETATM   20  O   UNK N   1      28.263  22.985  -1.701  0.00  0.00    -0.650 OA
BRANCH  19  21
HETATM   21  O   UNK N   1      30.438  22.956  -1.252  0.00  0.00    -0.776 OA
HETATM   22  H   UNK N   1      31.063  23.616  -1.025  0.00  0.00     0.167 HD
ENDBRANCH  19  21
ENDBRANCH  18  19
ENDBRANCH   3  18
TORSDOF 5
ENDMDL
MODEL 5
REMARK VINA RESULT:      -6.4     11.448     13.578
REMARK  5 active torsions:
REMARK  status: ('A' for Active; 'I' for Inactive)
REMARK    1  A    between atoms: C_1  and  N_7 
REMARK    2  A    between atoms: N_7  and  C_10 
REMARK    3  A    between atoms: C_12  and  C_17 
REMARK    4  A    between atoms: C_17  and  C_18 
REMARK    5  A    between atoms: C_18  and  O_20 
ROOT
HETATM    1  C   UNK N   1      28.879  23.356  -5.198  0.00  0.00     0.039 A 
HETATM    2  C   UNK N   1      28.251  22.687  -6.254  0.00  0.00     0.030 A 
HETATM    3  C   UNK N   1      30.146  22.923  -4.765  0.00  0.00    -0.021 A 
HETATM    4  C   UNK N   1      30.731  21.788  -5.347  0.00  0.00     0.016 A 
HETATM    5  C   UNK N   1      30.077  21.106  -6.370  0.00  0.00    -0.061 A 
HETATM    6  C   UNK N   1      28.844  21.562  -6.836  0.00  0.00     0.009 A 
HETATM    7  C   UNK N   1      30.694  19.888  -6.959  0.00  0.00     0.048 C 
ENDROOT
BRANCH   1   8
HETATM    8  N   UNK N   1      28.279  24.476  -4.537  0.00  0.00    -0.352 N 
HETATM    9  H   UNK N   1      28.574  24.596  -3.606  0.00  0.00     0.166 HD
BRANCH   8  10
HETATM   10  C   UNK N   1      27.332  25.450  -4.977  0.00  0.00     0.093 A 
HETATM   11  C   UNK N   1      25.946  25.196  -5.200  0.00  0.00     0.144 A 
HETATM   12  C   UNK N   1      25.093  26.236  -5.570  0.00  0.00     0.045 A 
HETATM   13  F   UNK N   1      25.389  23.978  -5.033  0.00  0.00    -0.204 F 
HETATM   14  C   UNK N   1      25.575  27.534  -5.722  0.00  0.00     0.005 A 
HETATM   15  C   UNK N   1      26.923  27.801  -5.501  0.00  0.00     0.026 A 
HETATM   16  C   UNK N   1      27.793  26.776  -5.135  0.00  0.00     0.063 A 
HETATM   17 Cl   UNK N   1      29.479  27.177  -4.838  0.00  0.00    -0.082 Cl
ENDBRANCH   8  10
ENDBRANCH   1   8
BRANCH   3  18
HETATM   18  C   UNK N   1      30.855  23.637  -3.652  0.00  0.00     0.150 C 
BRANCH  18  19
HETATM   19  C   UNK N   1      30.915  22.814  -2.401  0.00  0.00     0.143 C 
HETATM   20  O   UNK N   1      30.121  23.015  -1.495  0.00  0.00    -0.650 OA
BRANCH  19  21
HETATM   21  O   UNK N   1      31.865  21.871  -2.260  0.00  0.00    -0.776 OA
HETATM   22  H   UNK N   1      32.131  21.186  -2.840  0.00  0.00     0.167 HD
ENDBRANCH  19  21
ENDBRANCH  18  19
ENDBRANCH   3  18
TORSDOF 5
ENDMDL
MODEL 6
REMARK VINA RESULT:      -6.3      7.343      9.346
REMARK  5 active torsions:
REMARK  status: ('A' for Active; 'I' for Inactive)
REMARK    1  A    between atoms: C_1  and  N_7 
REMARK    2  A    between atoms: N_7  and  C_10 
REMARK    3  A    between atoms: C_12  and  C_17 
REMARK    4  A    between atoms: C_17  and  C_18 
REMARK    5  A    between atoms: C_18  and  O_20 
ROOT
HETATM    1  C   UNK N   1      22.557  18.785   3.766  0.00  0.00     0.039 A 
HETATM    2  C   UNK N   1      23.727  18.141   4.181  0.00  0.00     0.030 A 
HETATM    3  C   UNK N   1      22.653  20.012   3.083  0.00  0.00    -0.021 A 
HETATM    4  C   UNK N   1      23.909  20.606   2.889  0.00  0.00     0.016 A 
HETATM    5  C   UNK N   1      25.064  19.974   3.342  0.00  0.00    -0.061 A 
HETATM    6  C   UNK N   1      24.977  18.733   3.975  0.00  0.00     0.009 A 
HETATM    7  C   UNK N   1      26.386  20.626   3.156  0.00  0.00     0.048 C 
ENDROOT
BRANCH   1   8
HETATM    8  N   UNK N   1      21.255  18.240   4.009  0.00  0.00    -0.352 N 
HETATM    9  H   UNK N   1      20.518  18.802   3.680  0.00  0.00     0.166 HD
BRANCH   8  10
HETATM   10  C   UNK N   1      20.828  17.032   4.640  0.00  0.00     0.093 A 
HETATM   11  C   UNK N   1      20.593  16.884   6.039  0.00  0.00     0.144 A 
HETATM   12  C   UNK N   1      20.116  15.674   6.546  0.00  0.00     0.045 A 
HETATM   13  F   UNK N   1      20.777  17.887   6.923  0.00  0.00    -0.204 F 
HETATM   14  C   UNK N   1      19.857  14.599   5.699  0.00  0.00     0.005 A 
HETATM   15  C   UNK N   1      20.073  14.729   4.331  0.00  0.00     0.026 A 
HETATM   16  C   UNK N   1      20.554  15.927   3.804  0.00  0.00     0.063 A 
HETATM   17 Cl   UNK N   1      20.779  16.045   2.064  0.00  0.00    -0.082 Cl
ENDBRANCH   8  10
ENDBRANCH   1   8
BRANCH   3  18
HETATM   18  C   UNK N   1      21.416  20.714   2.603  0.00  0.00     0.150 C 
BRANCH  18  19
HETATM   19  C   UNK N   1      21.007  20.266   1.233  0.00  0.00     0.143 C 
HETATM   20  O   UNK N   1      21.342  20.911   0.251  0.00  0.00    -0.650 OA
BRANCH  19  21
HETATM   21  O   UNK N   1      20.244  19.168   1.083  0.00  0.00    -0.776 OA
HETATM   22  H   UNK N   1      20.412  18.371   0.622  0.00  0.00     0.167 HD
ENDBRANCH  19  21
ENDBRANCH  18  19
ENDBRANCH   3  18
TORSDOF 5
ENDMDL
MODEL 7
REMARK VINA RESULT:      -6.3     12.854     15.123
REMARK  5 active torsions:
REMARK  status: ('A' for Active; 'I' for Inactive)
REMARK    1  A    between atoms: C_1  and  N_7 
REMARK    2  A    between atoms: N_7  and  C_10 
REMARK    3  A    between atoms: C_12  and  C_17 
REMARK    4  A    between atoms: C_17  and  C_18 
REMARK    5  A    between atoms: C_18  and  O_20 
ROOT
HETATM    1  C   UNK N   1      25.651  24.983  -5.265  0.00  0.00     0.039 A 
HETATM    2  C   UNK N   1      25.032  26.083  -5.870  0.00  0.00     0.030 A 
HETATM    3  C   UNK N   1      26.382  25.173  -4.077  0.00  0.00    -0.021 A 
HETATM    4  C   UNK N   1      26.540  26.465  -3.554  0.00  0.00     0.016 A 
HETATM    5  C   UNK N   1      25.952  27.557  -4.188  0.00  0.00    -0.061 A 
HETATM    6  C   UNK N   1      25.185  27.366  -5.337  0.00  0.00     0.009 A 
HETATM    7  C   UNK N   1      26.150  28.925  -3.641  0.00  0.00     0.048 C 
ENDROOT
BRANCH   1   8
HETATM    8  N   UNK N   1      25.566  23.662  -5.810  0.00  0.00    -0.352 N 
HETATM    9  H   UNK N   1      25.184  22.998  -5.193  0.00  0.00     0.166 HD
BRANCH   8  10
HETATM   10  C   UNK N   1      25.934  23.128  -7.082  0.00  0.00     0.093 A 
HETATM   11  C   UNK N   1      26.933  23.679  -7.939  0.00  0.00     0.144 A 
HETATM   12  C   UNK N   1      27.260  23.042  -9.136  0.00  0.00     0.045 A 
HETATM   13  F   UNK N   1      27.625  24.796  -7.632  0.00  0.00    -0.204 F 
HETATM   14  C   UNK N   1      26.625  21.860  -9.512  0.00  0.00     0.005 A 
HETATM   15  C   UNK N   1      25.654  21.304  -8.684  0.00  0.00     0.026 A 
HETATM   16  C   UNK N   1      25.309  21.927  -7.485  0.00  0.00     0.063 A 
HETATM   17 Cl   UNK N   1      24.098  21.163  -6.465  0.00  0.00    -0.082 Cl
ENDBRANCH   8  10
ENDBRANCH   1   8
BRANCH   3  18
HETATM   18  C   UNK N   1      27.036  24.008  -3.392  0.00  0.00     0.150 C 
BRANCH  18  19
HETATM   19  C   UNK N   1      28.469  23.845  -3.800  0.00  0.00     0.143 C 
HETATM   20  O   UNK N   1      28.750  23.555  -4.952  0.00  0.00    -0.650 OA
BRANCH  19  21
HETATM   21  O   UNK N   1      29.448  23.988  -2.888  0.00  0.00    -0.776 OA
HETATM   22  H   UNK N   1      29.403  24.187  -1.974  0.00  0.00     0.167 HD
ENDBRANCH  19  21
ENDBRANCH  18  19
ENDBRANCH   3  18
TORSDOF 5
ENDMDL
MODEL 8
REMARK VINA RESULT:      -6.2      1.833      2.124
REMARK  5 active torsions:
REMARK  status: ('A' for Active; 'I' for Inactive)
REMARK    1  A    between atoms: C_1  and  N_7 
REMARK    2  A    between atoms: N_7  and  C_10 
REMARK    3  A    between atoms: C_12  and  C_17 
REMARK    4  A    between atoms: C_17  and  C_18 
REMARK    5  A    between atoms: C_18  and  O_20 
ROOT
HETATM    1  C   UNK N   1      29.426  17.749   6.600  0.00  0.00     0.039 A 
HETATM    2  C   UNK N   1      30.163  17.304   5.497  0.00  0.00     0.030 A 
HETATM    3  C   UNK N   1      30.078  17.934   7.834  0.00  0.00    -0.021 A 
HETATM    4  C   UNK N   1      31.435  17.604   7.961  0.00  0.00     0.016 A 
HETATM    5  C   UNK N   1      32.149  17.123   6.866  0.00  0.00    -0.061 A 
HETATM    6  C   UNK N   1      31.518  16.986   5.629  0.00  0.00     0.009 A 
HETATM    7  C   UNK N   1      33.579  16.749   7.020  0.00  0.00     0.048 C 
ENDROOT
BRANCH   1   8
HETATM    8  N   UNK N   1      28.024  18.030   6.521  0.00  0.00    -0.352 N 
HETATM    9  H   UNK N   1      27.545  17.921   7.373  0.00  0.00     0.166 HD
BRANCH   8  10
HETATM   10  C   UNK N   1      27.192  18.438   5.435  0.00  0.00     0.093 A 
HETATM   11  C   UNK N   1      26.546  17.550   4.525  0.00  0.00     0.144 A 
HETATM   12  C   UNK N   1      25.701  18.052   3.535  0.00  0.00     0.045 A 
HETATM   13  F   UNK N   1      26.681  16.209   4.591  0.00  0.00    -0.204 F 
HETATM   14  C   UNK N   1      25.470  19.421   3.421  0.00  0.00     0.005 A 
HETATM   15  C   UNK N   1      26.086  20.301   4.306  0.00  0.00     0.026 A 
HETATM   16  C   UNK N   1      26.937  19.822   5.300  0.00  0.00     0.063 A 
HETATM   17 Cl   UNK N   1      27.663  20.977   6.409  0.00  0.00    -0.082 Cl
ENDBRANCH   8  10
ENDBRANCH   1   8
BRANCH   3  18
HETATM   18  C   UNK N   1      29.319  18.435   9.028  0.00  0.00     0.150 C 
BRANCH  18  19
HETATM   19  C   UNK N   1      28.731  17.316   9.833  0.00  0.00     0.143 C 
HETATM   20  O   UNK N   1      27.584  16.950   9.629  0.00  0.00    -0.650 OA
BRANCH  19  21
HETATM   21  O   UNK N   1      29.456  16.732  10.805  0.00  0.00    -0.776 OA
HETATM   22  H   UNK N   1      30.347  16.445  10.808  0.00  0.00     0.167 HD
ENDBRANCH  19  21
ENDBRANCH  18  19
ENDBRANCH   3  18
TORSDOF 5
ENDMDL
MODEL 9
REMARK VINA RESULT:      -6.2      8.419     10.761
REMARK  5 active torsions:
REMARK  status: ('A' for Active; 'I' for Inactive)
REMARK    1  A    between atoms: C_1  and  N_7 
REMARK    2  A    between atoms: N_7  and  C_10 
REMARK    3  A    between atoms: C_12  and  C_17 
REMARK    4  A    between atoms: C_17  and  C_18 
REMARK    5  A    between atoms: C_18  and  O_20 
ROOT
HETATM    1  C   UNK N   1      35.159  12.796  11.164  0.00  0.00     0.039 A 
HETATM    2  C   UNK N   1      35.654  11.557  10.743  0.00  0.00     0.030 A 
HETATM    3  C   UNK N   1      35.233  13.898  10.292  0.00  0.00    -0.021 A 
HETATM    4  C   UNK N   1      35.863  13.761   9.046  0.00  0.00     0.016 A 
HETATM    5  C   UNK N   1      36.388  12.531   8.655  0.00  0.00    -0.061 A 
HETATM    6  C   UNK N   1      36.271  11.424   9.495  0.00  0.00     0.009 A 
HETATM    7  C   UNK N   1      37.079  12.405   7.344  0.00  0.00     0.048 C 
ENDROOT
BRANCH   1   8
HETATM    8  N   UNK N   1      34.571  12.986  12.456  0.00  0.00    -0.352 N 
HETATM    9  H   UNK N   1      33.891  13.696  12.485  0.00  0.00     0.166 HD
BRANCH   8  10
HETATM   10  C   UNK N   1      34.790  12.339  13.709  0.00  0.00     0.093 A 
HETATM   11  C   UNK N   1      34.186  11.110  14.108  0.00  0.00     0.144 A 
HETATM   12  C   UNK N   1      34.518  10.529  15.333  0.00  0.00     0.045 A 
HETATM   13  F   UNK N   1      33.311  10.438  13.330  0.00  0.00    -0.204 F 
HETATM   14  C   UNK N   1      35.444  11.133  16.180  0.00  0.00     0.005 A 
HETATM   15  C   UNK N   1      36.050  12.327  15.803  0.00  0.00     0.026 A 
HETATM   16  C   UNK N   1      35.730  12.927  14.586  0.00  0.00     0.063 A 
HETATM   17 Cl   UNK N   1      36.549  14.420  14.148  0.00  0.00    -0.082 Cl
ENDBRANCH   8  10
ENDBRANCH   1   8
BRANCH   3  18
HETATM   18  C   UNK N   1      34.687  15.233  10.706  0.00  0.00     0.150 C 
BRANCH  18  19
HETATM   19  C   UNK N   1      35.738  16.302  10.694  0.00  0.00     0.143 C 
HETATM   20  O   UNK N   1      35.460  17.432  10.322  0.00  0.00    -0.650 OA
BRANCH  19  21
HETATM   21  O   UNK N   1      36.998  16.011  11.064  0.00  0.00    -0.776 OA
HETATM   22  H   UNK N   1      37.812  16.178  10.632  0.00  0.00     0.167 HD
ENDBRANCH  19  21
ENDBRANCH  18  19
ENDBRANCH   3  18
TORSDOF 5
ENDMDL
