MODEL 1
REMARK VINA RESULT:      -8.7      0.000      0.000
REMARK  13 active torsions:
REMARK  status: ('A' for Active; 'I' for Inactive)
REMARK    1  A    between atoms: C_35  and  C_3 
REMARK    2  A    between atoms: C_27  and  C_20 
REMARK    3  A    between atoms: O_53  and  C_20 
REMARK    4  A    between atoms: C_37  and  C_22 
REMARK    5  A    between atoms: N_48  and  C_22 
REMARK    6  A    between atoms: C_35  and  C_26 
REMARK    7  A    between atoms: C_26  and  O_51 
REMARK    8  A    between atoms: N_46  and  C_29 
REMARK    9  A    between atoms: N_47  and  C_30 
REMARK   10  A    between atoms: N_49  and  C_31 
REMARK   11  A    between atoms: O_53  and  C_32 
REMARK   12  A    between atoms: C_37  and  C_33 
REMARK   13  A    between atoms: C_35  and  N_50 
ROOT
HETATM    1  C   UNK N   1      32.494  17.482   5.546  0.00  0.00     0.032 A 
HETATM    2  C   UNK N   1      31.118  15.672   6.350  0.00  0.00     0.032 A 
HETATM    3  C   UNK N   1      31.769  17.553   4.366  0.00  0.00     0.039 A 
HETATM    4  C   UNK N   1      30.365  15.784   5.215  0.00  0.00     0.039 A 
HETATM    5  C   UNK N   1      32.191  16.494   6.530  0.00  0.00     0.030 A 
HETATM    6  C   UNK N   1      30.695  16.690   4.205  0.00  0.00     0.068 A 
ENDROOT
BRANCH   5   7
HETATM    7  N   UNK N   1      32.623  16.624   7.863  0.00  0.00    -0.378 N 
HETATM    8  C   UNK N   1      33.952  17.096   8.026  0.00  0.00     0.143 C 
HETATM    9  C   UNK N   1      34.820  15.987   7.532  0.00  0.00     0.143 C 
HETATM   10  N   UNK N   1      34.344  14.633   7.923  0.00  0.00    -0.378 N 
HETATM   11  C   UNK N   1      33.034  14.395   8.546  0.00  0.00     0.143 C 
HETATM   12  C   UNK N   1      32.232  15.643   8.817  0.00  0.00     0.143 C 
BRANCH  10  13
HETATM   13  C   UNK N   1      35.356  13.697   8.202  0.00  0.00     0.030 C 
HETATM   14  C   UNK N   1      34.872  12.445   8.633  0.00  0.00     0.031 C 
HETATM   15  C   UNK N   1      35.137  12.036   9.928  0.00  0.00     0.032 C 
HETATM   16  C   UNK N   1      35.913  12.871  10.718  0.00  0.00     0.045 C 
HETATM   17  C   UNK N   1      36.606  13.930  10.135  0.00  0.00     0.032 C 
HETATM   18  C   UNK N   1      36.427  14.267   8.854  0.00  0.00     0.031 C 
BRANCH  16  19
HETATM   19  N   UNK N   1      36.329  12.473  11.998  0.00  0.00    -0.258 N 
HETATM   20  C   UNK N   1      37.492  12.016  12.499  0.00  0.00     0.210 A 
HETATM   21  N   UNK N   1      37.423  12.039  13.860  0.00  0.00    -0.289 N 
HETATM   22  N   UNK N   1      36.233  12.529  14.173  0.00  0.00    -0.234 N 
ATOM     23  HN  UNK N   1      38.149  11.738  14.511  1.00  0.00     0.188 HD
HETATM   24  C   UNK N   1      35.577  12.779  13.063  0.00  0.00     0.349 A 
HETATM   25  O   UNK N   1      34.502  13.336  13.025  0.00  0.00    -0.244 OA
BRANCH  22  26
HETATM   26  C   UNK N   1      35.682  12.920  15.467  0.00  0.00     0.141 C 
BRANCH  26  27
HETATM   27  C   UNK N   1      35.962  11.831  16.525  0.00  0.00     0.025 C 
HETATM   28  C   UNK N   1      35.153  10.544  16.363  0.00  0.00     0.007 C 
ENDBRANCH  26  27
BRANCH  26  29
HETATM   29  C   UNK N   1      36.257  14.243  15.905  0.00  0.00     0.139 C 
HETATM   30  C   UNK N   1      36.215  14.367  17.422  0.00  0.00     0.041 C 
BRANCH  29  31
HETATM   31  O   UNK N   1      37.584  14.321  15.486  0.00  0.00    -0.394 OA
HETATM   32  H   UNK N   1      38.292  13.873  15.975  0.00  0.00     0.210 HD
ENDBRANCH  29  31
ENDBRANCH  26  29
ENDBRANCH  22  26
ENDBRANCH  16  19
ENDBRANCH  10  13
ENDBRANCH   5   7
BRANCH   6  33
HETATM   33  O   UNK N   1      30.129  16.545   2.994  0.00  0.00    -0.351 OA
BRANCH  33  34
HETATM   34  C   UNK N   1      29.015  15.714   2.840  0.00  0.00     0.182 C 
BRANCH  34  35
HETATM   35  C   UNK N   1      27.659  16.441   3.070  0.00  0.00     0.037 C 
HETATM   36  C   UNK N   1      27.711  17.806   3.659  0.00  0.00     0.054 C 
HETATM   37  C   UNK N   1      26.591  17.761   4.699  0.00  0.00     0.109 C 
HETATM   38  O   UNK N   1      25.881  16.555   4.588  0.00  0.00    -0.373 OA
HETATM   39  C   UNK N   1      26.809  15.671   4.065  0.00  0.00     0.176 C 
BRANCH  37  40
HETATM   40  C   UNK N   1      25.584  18.928   4.495  0.00  0.00     0.193 C 
BRANCH  40  41
HETATM   41  N   UNK N   1      24.142  18.650   4.635  0.00  0.00    -0.284 N 
HETATM   42  C   UNK N   1      23.117  18.988   3.830  0.00  0.00     0.201 A 
HETATM   43  N   UNK N   1      21.959  18.511   4.337  0.00  0.00    -0.346 N 
HETATM   44  C   UNK N   1      22.324  17.872   5.470  0.00  0.00     0.198 A 
ATOM     45  HN  UNK N   1      21.020  18.610   3.951  1.00  0.00     0.167 HD
HETATM   46  N   UNK N   1      23.656  17.959   5.649  0.00  0.00    -0.293 N 
ATOM     47  HN  UNK N   1      24.189  17.564   6.424  1.00  0.00     0.188 HD
ENDBRANCH  40  41
ENDBRANCH  37  40
BRANCH  37  48
HETATM   48  C   UNK N   1      27.281  17.826   6.064  0.00  0.00     0.017 A 
HETATM   49  C   UNK N   1      27.189  16.728   6.928  0.00  0.00     0.016 A 
HETATM   50  C   UNK N   1      27.756  16.770   8.199  0.00  0.00     0.043 A 
HETATM   51  C   UNK N   1      28.421  17.916   8.630  0.00  0.00     0.119 A 
HETATM   52  C   UNK N   1      28.539  19.013   7.792  0.00  0.00     0.085 A 
HETATM   53  F   UNK N   1      28.939  17.975   9.876  0.00  0.00    -0.206 F 
HETATM   54  C   UNK N   1      27.989  18.985   6.518  0.00  0.00     0.128 A 
HETATM   55  F   UNK N   1      28.119  20.114   5.785  0.00  0.00    -0.205 F 
ENDBRANCH  37  48
ENDBRANCH  34  35
ENDBRANCH  33  34
ENDBRANCH   6  33
TORSDOF 13
ENDMDL
MODEL 2
REMARK VINA RESULT:      -8.5      4.388      7.113
REMARK  13 active torsions:
REMARK  status: ('A' for Active; 'I' for Inactive)
REMARK    1  A    between atoms: C_35  and  C_3 
REMARK    2  A    between atoms: C_27  and  C_20 
REMARK    3  A    between atoms: O_53  and  C_20 
REMARK    4  A    between atoms: C_37  and  C_22 
REMARK    5  A    between atoms: N_48  and  C_22 
REMARK    6  A    between atoms: C_35  and  C_26 
REMARK    7  A    between atoms: C_26  and  O_51 
REMARK    8  A    between atoms: N_46  and  C_29 
REMARK    9  A    between atoms: N_47  and  C_30 
REMARK   10  A    between atoms: N_49  and  C_31 
REMARK   11  A    between atoms: O_53  and  C_32 
REMARK   12  A    between atoms: C_37  and  C_33 
REMARK   13  A    between atoms: C_35  and  N_50 
ROOT
HETATM    1  C   UNK N   1      27.310  12.446   4.644  0.00  0.00     0.032 A 
HETATM    2  C   UNK N   1      26.442  13.365   2.590  0.00  0.00     0.032 A 
HETATM    3  C   UNK N   1      26.097  11.833   4.920  0.00  0.00     0.039 A 
HETATM    4  C   UNK N   1      25.267  12.710   2.831  0.00  0.00     0.039 A 
HETATM    5  C   UNK N   1      27.466  13.262   3.484  0.00  0.00     0.030 A 
HETATM    6  C   UNK N   1      25.068  11.972   4.000  0.00  0.00     0.068 A 
ENDROOT
BRANCH   5   7
HETATM    7  N   UNK N   1      28.738  13.576   2.969  0.00  0.00    -0.378 N 
HETATM    8  C   UNK N   1      29.814  13.435   3.886  0.00  0.00     0.143 C 
HETATM    9  C   UNK N   1      29.615  14.523   4.887  0.00  0.00     0.143 C 
HETATM   10  N   UNK N   1      29.166  15.811   4.292  0.00  0.00    -0.378 N 
HETATM   11  C   UNK N   1      28.749  15.942   2.889  0.00  0.00     0.143 C 
HETATM   12  C   UNK N   1      28.873  14.677   2.078  0.00  0.00     0.143 C 
BRANCH  10  13
HETATM   13  C   UNK N   1      29.672  16.969   4.912  0.00  0.00     0.030 C 
HETATM   14  C   UNK N   1      30.954  17.343   4.462  0.00  0.00     0.031 C 
HETATM   15  C   UNK N   1      32.017  17.280   5.345  0.00  0.00     0.032 C 
HETATM   16  C   UNK N   1      31.745  16.894   6.649  0.00  0.00     0.045 C 
HETATM   17  C   UNK N   1      30.427  16.840   7.096  0.00  0.00     0.032 C 
HETATM   18  C   UNK N   1      29.394  17.000   6.262  0.00  0.00     0.031 C 
BRANCH  16  19
HETATM   19  N   UNK N   1      32.744  16.924   7.635  0.00  0.00    -0.258 N 
HETATM   20  C   UNK N   1      33.145  17.848   8.527  0.00  0.00     0.210 A 
HETATM   21  N   UNK N   1      33.981  17.258   9.427  0.00  0.00    -0.289 N 
HETATM   22  N   UNK N   1      34.064  15.980   9.088  0.00  0.00    -0.234 N 
ATOM     23  HN  UNK N   1      34.451  17.713  10.210  1.00  0.00     0.188 HD
HETATM   24  C   UNK N   1      33.334  15.783   8.014  0.00  0.00     0.349 A 
HETATM   25  O   UNK N   1      33.124  14.692   7.531  0.00  0.00    -0.244 OA
BRANCH  22  26
HETATM   26  C   UNK N   1      34.687  14.857   9.782  0.00  0.00     0.141 C 
BRANCH  26  27
HETATM   27  C   UNK N   1      36.151  14.682   9.323  0.00  0.00     0.025 C 
HETATM   28  C   UNK N   1      36.409  13.474   8.424  0.00  0.00     0.007 C 
ENDBRANCH  26  27
BRANCH  26  29
HETATM   29  C   UNK N   1      34.620  15.059  11.275  0.00  0.00     0.139 C 
HETATM   30  C   UNK N   1      35.026  13.786  12.004  0.00  0.00     0.041 C 
BRANCH  29  31
HETATM   31  O   UNK N   1      35.498  16.080  11.633  0.00  0.00    -0.394 OA
HETATM   32  H   UNK N   1      35.275  16.711  12.335  0.00  0.00     0.210 HD
ENDBRANCH  29  31
ENDBRANCH  26  29
ENDBRANCH  22  26
ENDBRANCH  16  19
ENDBRANCH  10  13
ENDBRANCH   5   7
BRANCH   6  33
HETATM   33  O   UNK N   1      23.816  11.620   4.338  0.00  0.00    -0.351 OA
BRANCH  33  34
HETATM   34  C   UNK N   1      23.449  11.560   5.686  0.00  0.00     0.182 C 
BRANCH  34  35
HETATM   35  C   UNK N   1      22.432  12.663   6.104  0.00  0.00     0.037 C 
HETATM   36  C   UNK N   1      22.895  13.673   7.093  0.00  0.00     0.054 C 
HETATM   37  C   UNK N   1      21.702  13.777   8.044  0.00  0.00     0.109 C 
HETATM   38  O   UNK N   1      20.625  13.027   7.546  0.00  0.00    -0.373 OA
HETATM   39  C   UNK N   1      21.231  12.038   6.790  0.00  0.00     0.176 C 
BRANCH  37  40
HETATM   40  C   UNK N   1      21.229  15.251   8.196  0.00  0.00     0.193 C 
BRANCH  40  41
HETATM   41  N   UNK N   1      20.950  16.032   6.977  0.00  0.00    -0.284 N 
HETATM   42  C   UNK N   1      21.511  17.175   6.538  0.00  0.00     0.201 A 
HETATM   43  N   UNK N   1      20.959  17.533   5.357  0.00  0.00    -0.346 N 
HETATM   44  C   UNK N   1      20.052  16.565   5.101  0.00  0.00     0.198 A 
ATOM     45  HN  UNK N   1      21.179  18.350   4.787  1.00  0.00     0.167 HD
HETATM   46  N   UNK N   1      20.049  15.651   6.090  0.00  0.00    -0.293 N 
ATOM     47  HN  UNK N   1      19.460  14.820   6.143  1.00  0.00     0.188 HD
ENDBRANCH  40  41
ENDBRANCH  37  40
BRANCH  37  48
HETATM   48  C   UNK N   1      22.171  13.181   9.374  0.00  0.00     0.017 A 
HETATM   49  C   UNK N   1      23.524  12.862   9.539  0.00  0.00     0.016 A 
HETATM   50  C   UNK N   1      23.979  12.267  10.713  0.00  0.00     0.043 A 
HETATM   51  C   UNK N   1      23.085  11.975  11.741  0.00  0.00     0.119 A 
HETATM   52  C   UNK N   1      21.742  12.290  11.610  0.00  0.00     0.085 A 
HETATM   53  F   UNK N   1      23.515  11.363  12.865  0.00  0.00    -0.206 F 
HETATM   54  C   UNK N   1      21.272  12.893  10.451  0.00  0.00     0.128 A 
HETATM   55  F   UNK N   1      19.942  13.129  10.396  0.00  0.00    -0.205 F 
ENDBRANCH  37  48
ENDBRANCH  34  35
ENDBRANCH  33  34
ENDBRANCH   6  33
TORSDOF 13
ENDMDL
MODEL 3
REMARK VINA RESULT:      -8.4      4.320     13.496
REMARK  13 active torsions:
REMARK  status: ('A' for Active; 'I' for Inactive)
REMARK    1  A    between atoms: C_35  and  C_3 
REMARK    2  A    between atoms: C_27  and  C_20 
REMARK    3  A    between atoms: O_53  and  C_20 
REMARK    4  A    between atoms: C_37  and  C_22 
REMARK    5  A    between atoms: N_48  and  C_22 
REMARK    6  A    between atoms: C_35  and  C_26 
REMARK    7  A    between atoms: C_26  and  O_51 
REMARK    8  A    between atoms: N_46  and  C_29 
REMARK    9  A    between atoms: N_47  and  C_30 
REMARK   10  A    between atoms: N_49  and  C_31 
REMARK   11  A    between atoms: O_53  and  C_32 
REMARK   12  A    between atoms: C_37  and  C_33 
REMARK   13  A    between atoms: C_35  and  N_50 
ROOT
HETATM    1  C   UNK N   1      37.723  10.168  13.214  0.00  0.00     0.032 A 
HETATM    2  C   UNK N   1      35.824   8.682  13.271  0.00  0.00     0.032 A 
HETATM    3  C   UNK N   1      38.271   9.564  14.335  0.00  0.00     0.039 A 
HETATM    4  C   UNK N   1      36.395   8.046  14.337  0.00  0.00     0.039 A 
HETATM    5  C   UNK N   1      36.458   9.750  12.705  0.00  0.00     0.030 A 
HETATM    6  C   UNK N   1      37.594   8.492  14.899  0.00  0.00     0.068 A 
ENDROOT
BRANCH   5   7
HETATM    7  N   UNK N   1      36.054  10.052  11.391  0.00  0.00    -0.378 N 
HETATM    8  C   UNK N   1      37.106  10.373  10.494  0.00  0.00     0.143 C 
HETATM    9  C   UNK N   1      37.627  11.691  10.962  0.00  0.00     0.143 C 
HETATM   10  N   UNK N   1      36.563  12.635  11.399  0.00  0.00    -0.378 N 
HETATM   11  C   UNK N   1      35.157  12.236  11.562  0.00  0.00     0.143 C 
HETATM   12  C   UNK N   1      34.864  10.805  11.187  0.00  0.00     0.143 C 
BRANCH  10  13
HETATM   13  C   UNK N   1      36.807  13.990  11.113  0.00  0.00     0.030 C 
HETATM   14  C   UNK N   1      36.102  14.884  11.945  0.00  0.00     0.031 C 
HETATM   15  C   UNK N   1      35.125  15.689  11.385  0.00  0.00     0.032 C 
HETATM   16  C   UNK N   1      34.929  15.600  10.014  0.00  0.00     0.045 C 
HETATM   17  C   UNK N   1      35.861  14.931   9.223  0.00  0.00     0.032 C 
HETATM   18  C   UNK N   1      36.867  14.234   9.758  0.00  0.00     0.031 C 
BRANCH  16  19
HETATM   19  N   UNK N   1      34.047  16.468   9.353  0.00  0.00    -0.258 N 
HETATM   20  C   UNK N   1      34.212  17.589   8.627  0.00  0.00     0.210 A 
HETATM   21  N   UNK N   1      33.042  17.878   7.991  0.00  0.00    -0.289 N 
HETATM   22  N   UNK N   1      32.185  16.922   8.318  0.00  0.00    -0.234 N 
ATOM     23  HN  UNK N   1      32.862  18.676   7.381  1.00  0.00     0.188 HD
HETATM   24  C   UNK N   1      32.781  16.086   9.137  0.00  0.00     0.349 A 
HETATM   25  O   UNK N   1      32.287  15.049   9.522  0.00  0.00    -0.244 OA
BRANCH  22  26
HETATM   26  C   UNK N   1      30.846  16.638   7.809  0.00  0.00     0.141 C 
BRANCH  26  27
HETATM   27  C   UNK N   1      29.924  17.862   8.002  0.00  0.00     0.025 C 
HETATM   28  C   UNK N   1      29.734  18.309   9.451  0.00  0.00     0.007 C 
ENDBRANCH  26  27
BRANCH  26  29
HETATM   29  C   UNK N   1      30.909  16.247   6.354  0.00  0.00     0.139 C 
HETATM   30  C   UNK N   1      29.508  16.011   5.805  0.00  0.00     0.041 C 
BRANCH  29  31
HETATM   31  O   UNK N   1      31.505  17.279   5.633  0.00  0.00    -0.394 OA
HETATM   32  H   UNK N   1      31.548  17.254   4.664  0.00  0.00     0.210 HD
ENDBRANCH  29  31
ENDBRANCH  26  29
ENDBRANCH  22  26
ENDBRANCH  16  19
ENDBRANCH  10  13
ENDBRANCH   5   7
BRANCH   6  33
HETATM   33  O   UNK N   1      37.945   8.045  16.117  0.00  0.00    -0.351 OA
BRANCH  33  34
HETATM   34  C   UNK N   1      37.224   7.005  16.711  0.00  0.00     0.182 C 
BRANCH  34  35
HETATM   35  C   UNK N   1      36.423   7.442  17.972  0.00  0.00     0.037 C 
HETATM   36  C   UNK N   1      35.052   7.977  17.754  0.00  0.00     0.054 C 
HETATM   37  C   UNK N   1      35.020   9.194  18.679  0.00  0.00     0.109 C 
HETATM   38  O   UNK N   1      36.190   9.239  19.454  0.00  0.00    -0.373 OA
HETATM   39  C   UNK N   1      37.129   8.589  18.673  0.00  0.00     0.176 C 
BRANCH  37  40
HETATM   40  C   UNK N   1      33.806   9.133  19.650  0.00  0.00     0.193 C 
BRANCH  40  41
HETATM   41  N   UNK N   1      34.024   9.445  21.074  0.00  0.00    -0.284 N 
HETATM   42  C   UNK N   1      33.504  10.431  21.830  0.00  0.00     0.201 A 
HETATM   43  N   UNK N   1      33.968  10.332  23.096  0.00  0.00    -0.346 N 
HETATM   44  C   UNK N   1      34.781   9.253  23.074  0.00  0.00     0.198 A 
ATOM     45  HN  UNK N   1      33.753  10.937  23.889  1.00  0.00     0.167 HD
HETATM   46  N   UNK N   1      34.813   8.715  21.840  0.00  0.00    -0.293 N 
ATOM     47  HN  UNK N   1      35.348   7.895  21.552  1.00  0.00     0.188 HD
ENDBRANCH  40  41
ENDBRANCH  37  40
BRANCH  37  48
HETATM   48  C   UNK N   1      34.965  10.418  17.762  0.00  0.00     0.017 A 
HETATM   49  C   UNK N   1      34.660  10.242  16.406  0.00  0.00     0.016 A 
HETATM   50  C   UNK N   1      34.655  11.324  15.529  0.00  0.00     0.043 A 
HETATM   51  C   UNK N   1      34.962  12.601  15.993  0.00  0.00     0.119 A 
HETATM   52  C   UNK N   1      35.255  12.807  17.332  0.00  0.00     0.085 A 
HETATM   53  F   UNK N   1      34.996  13.646  15.139  0.00  0.00    -0.206 F 
HETATM   54  C   UNK N   1      35.255  11.743  18.222  0.00  0.00     0.128 A 
HETATM   55  F   UNK N   1      35.590  12.031  19.500  0.00  0.00    -0.205 F 
ENDBRANCH  37  48
ENDBRANCH  34  35
ENDBRANCH  33  34
ENDBRANCH   6  33
TORSDOF 13
ENDMDL
MODEL 4
REMARK VINA RESULT:      -8.3      2.635      4.597
REMARK  13 active torsions:
REMARK  status: ('A' for Active; 'I' for Inactive)
REMARK    1  A    between atoms: C_35  and  C_3 
REMARK    2  A    between atoms: C_27  and  C_20 
REMARK    3  A    between atoms: O_53  and  C_20 
REMARK    4  A    between atoms: C_37  and  C_22 
REMARK    5  A    between atoms: N_48  and  C_22 
REMARK    6  A    between atoms: C_35  and  C_26 
REMARK    7  A    between atoms: C_26  and  O_51 
REMARK    8  A    between atoms: N_46  and  C_29 
REMARK    9  A    between atoms: N_47  and  C_30 
REMARK   10  A    between atoms: N_49  and  C_31 
REMARK   11  A    between atoms: O_53  and  C_32 
REMARK   12  A    between atoms: C_37  and  C_33 
REMARK   13  A    between atoms: C_35  and  N_50 
ROOT
HETATM    1  C   UNK N   1      28.966  13.815   4.180  0.00  0.00     0.032 A 
HETATM    2  C   UNK N   1      29.024  15.776   2.778  0.00  0.00     0.032 A 
HETATM    3  C   UNK N   1      27.679  13.514   3.762  0.00  0.00     0.039 A 
HETATM    4  C   UNK N   1      27.780  15.444   2.319  0.00  0.00     0.039 A 
HETATM    5  C   UNK N   1      29.627  14.991   3.715  0.00  0.00     0.030 A 
HETATM    6  C   UNK N   1      27.084  14.343   2.822  0.00  0.00     0.068 A 
ENDROOT
BRANCH   5   7
HETATM    7  N   UNK N   1      31.025  15.133   3.798  0.00  0.00    -0.378 N 
HETATM    8  C   UNK N   1      31.653  14.357   4.807  0.00  0.00     0.143 C 
HETATM    9  C   UNK N   1      31.209  14.964   6.096  0.00  0.00     0.143 C 
HETATM   10  N   UNK N   1      31.160  16.451   6.072  0.00  0.00    -0.378 N 
HETATM   11  C   UNK N   1      31.320  17.237   4.841  0.00  0.00     0.143 C 
HETATM   12  C   UNK N   1      31.604  16.419   3.607  0.00  0.00     0.143 C 
BRANCH  10  13
HETATM   13  C   UNK N   1      31.515  17.084   7.277  0.00  0.00     0.030 C 
HETATM   14  C   UNK N   1      32.632  17.937   7.166  0.00  0.00     0.031 C 
HETATM   15  C   UNK N   1      33.796  17.606   7.837  0.00  0.00     0.032 C 
HETATM   16  C   UNK N   1      33.778  16.466   8.627  0.00  0.00     0.045 C 
HETATM   17  C   UNK N   1      32.564  15.852   8.931  0.00  0.00     0.032 C 
HETATM   18  C   UNK N   1      31.419  16.236   8.359  0.00  0.00     0.031 C 
BRANCH  16  19
HETATM   19  N   UNK N   1      34.875  16.130   9.435  0.00  0.00    -0.258 N 
HETATM   20  C   UNK N   1      35.403  16.656  10.555  0.00  0.00     0.210 A 
HETATM   21  N   UNK N   1      36.305  15.776  11.073  0.00  0.00    -0.289 N 
HETATM   22  N   UNK N   1      36.301  14.716  10.278  0.00  0.00    -0.234 N 
ATOM     23  HN  UNK N   1      36.872  15.908  11.910  1.00  0.00     0.188 HD
HETATM   24  C   UNK N   1      35.455  14.930   9.296  0.00  0.00     0.349 A 
HETATM   25  O   UNK N   1      35.153  14.096   8.471  0.00  0.00    -0.244 OA
BRANCH  22  26
HETATM   26  C   UNK N   1      36.948  13.416  10.433  0.00  0.00     0.141 C 
BRANCH  26  27
HETATM   27  C   UNK N   1      38.468  13.536  10.189  0.00  0.00     0.025 C 
HETATM   28  C   UNK N   1      38.875  13.794   8.738  0.00  0.00     0.007 C 
ENDBRANCH  26  27
BRANCH  26  29
HETATM   29  C   UNK N   1      36.675  12.853  11.805  0.00  0.00     0.139 C 
HETATM   30  C   UNK N   1      37.349  11.498  11.969  0.00  0.00     0.041 C 
BRANCH  29  31
HETATM   31  O   UNK N   1      37.188  13.726  12.763  0.00  0.00    -0.394 OA
HETATM   32  H   UNK N   1      36.965  13.628  13.702  0.00  0.00     0.210 HD
ENDBRANCH  29  31
ENDBRANCH  26  29
ENDBRANCH  22  26
ENDBRANCH  16  19
ENDBRANCH  10  13
ENDBRANCH   5   7
BRANCH   6  33
HETATM   33  O   UNK N   1      25.766  14.243   2.581  0.00  0.00    -0.351 OA
BRANCH  33  34
HETATM   34  C   UNK N   1      24.911  13.755   3.573  0.00  0.00     0.182 C 
BRANCH  34  35
HETATM   35  C   UNK N   1      23.950  14.833   4.154  0.00  0.00     0.037 C 
HETATM   36  C   UNK N   1      23.907  16.148   3.461  0.00  0.00     0.054 C 
HETATM   37  C   UNK N   1      23.927  17.138   4.627  0.00  0.00     0.109 C 
HETATM   38  O   UNK N   1      23.826  16.447   5.845  0.00  0.00    -0.373 OA
HETATM   39  C   UNK N   1      24.367  15.204   5.566  0.00  0.00     0.176 C 
BRANCH  37  40
HETATM   40  C   UNK N   1      22.735  18.134   4.542  0.00  0.00     0.193 C 
BRANCH  40  41
HETATM   41  N   UNK N   1      21.384  17.598   4.289  0.00  0.00    -0.284 N 
HETATM   42  C   UNK N   1      20.539  17.838   3.269  0.00  0.00     0.201 A 
HETATM   43  N   UNK N   1      19.407  17.117   3.432  0.00  0.00    -0.346 N 
HETATM   44  C   UNK N   1      19.603  16.435   4.582  0.00  0.00     0.198 A 
ATOM     45  HN  UNK N   1      18.588  17.093   2.824  1.00  0.00     0.167 HD
HETATM   46  N   UNK N   1      20.810  16.730   5.102  0.00  0.00    -0.293 N 
ATOM     47  HN  UNK N   1      21.205  16.353   5.963  1.00  0.00     0.188 HD
ENDBRANCH  40  41
ENDBRANCH  37  40
BRANCH  37  48
HETATM   48  C   UNK N   1      25.280  17.850   4.551  0.00  0.00     0.017 A 
HETATM   49  C   UNK N   1      26.349  17.364   5.314  0.00  0.00     0.016 A 
HETATM   50  C   UNK N   1      27.579  18.016   5.315  0.00  0.00     0.043 A 
HETATM   51  C   UNK N   1      27.759  19.171   4.556  0.00  0.00     0.119 A 
HETATM   52  C   UNK N   1      26.722  19.667   3.782  0.00  0.00     0.085 A 
HETATM   53  F   UNK N   1      28.938  19.828   4.584  0.00  0.00    -0.206 F 
HETATM   54  C   UNK N   1      25.493  19.025   3.761  0.00  0.00     0.128 A 
HETATM   55  F   UNK N   1      24.529  19.601   3.008  0.00  0.00    -0.205 F 
ENDBRANCH  37  48
ENDBRANCH  34  35
ENDBRANCH  33  34
ENDBRANCH   6  33
TORSDOF 13
ENDMDL
MODEL 5
REMARK VINA RESULT:      -8.3      3.066     12.208
REMARK  13 active torsions:
REMARK  status: ('A' for Active; 'I' for Inactive)
REMARK    1  A    between atoms: C_35  and  C_3 
REMARK    2  A    between atoms: C_27  and  C_20 
REMARK    3  A    between atoms: O_53  and  C_20 
REMARK    4  A    between atoms: C_37  and  C_22 
REMARK    5  A    between atoms: N_48  and  C_22 
REMARK    6  A    between atoms: C_35  and  C_26 
REMARK    7  A    between atoms: C_26  and  O_51 
REMARK    8  A    between atoms: N_46  and  C_29 
REMARK    9  A    between atoms: N_47  and  C_30 
REMARK   10  A    between atoms: N_49  and  C_31 
REMARK   11  A    between atoms: O_53  and  C_32 
REMARK   12  A    between atoms: C_37  and  C_33 
REMARK   13  A    between atoms: C_35  and  N_50 
ROOT
HETATM    1  C   UNK N   1      37.236  11.864   9.613  0.00  0.00     0.032 A 
HETATM    2  C   UNK N   1      35.207  10.790   8.875  0.00  0.00     0.032 A 
HETATM    3  C   UNK N   1      37.475  10.854  10.533  0.00  0.00     0.039 A 
HETATM    4  C   UNK N   1      35.475   9.764   9.737  0.00  0.00     0.039 A 
HETATM    5  C   UNK N   1      36.059  11.853   8.807  0.00  0.00     0.030 A 
HETATM    6  C   UNK N   1      36.580   9.796  10.591  0.00  0.00     0.068 A 
ENDROOT
BRANCH   5   7
HETATM    7  N   UNK N   1      35.964  12.615   7.628  0.00  0.00    -0.378 N 
HETATM    8  C   UNK N   1      36.662  13.852   7.650  0.00  0.00     0.143 C 
HETATM    9  C   UNK N   1      35.915  14.702   8.622  0.00  0.00     0.143 C 
HETATM   10  N   UNK N   1      34.436  14.560   8.529  0.00  0.00    -0.378 N 
HETATM   11  C   UNK N   1      33.781  13.527   7.716  0.00  0.00     0.143 C 
HETATM   12  C   UNK N   1      34.727  12.657   6.927  0.00  0.00     0.143 C 
BRANCH  10  13
HETATM   13  C   UNK N   1      33.703  15.737   8.767  0.00  0.00     0.030 C 
HETATM   14  C   UNK N   1      32.333  15.516   9.011  0.00  0.00     0.031 C 
HETATM   15  C   UNK N   1      31.406  15.983   8.096  0.00  0.00     0.032 C 
HETATM   16  C   UNK N   1      31.885  16.692   7.004  0.00  0.00     0.045 C 
HETATM   17  C   UNK N   1      33.207  17.134   6.990  0.00  0.00     0.032 C 
HETATM   18  C   UNK N   1      34.082  16.764   7.930  0.00  0.00     0.031 C 
BRANCH  16  19
HETATM   19  N   UNK N   1      31.006  17.305   6.098  0.00  0.00    -0.258 N 
HETATM   20  C   UNK N   1      30.946  17.366   4.755  0.00  0.00     0.210 A 
HETATM   21  N   UNK N   1      29.731  17.865   4.391  0.00  0.00    -0.289 N 
HETATM   22  N   UNK N   1      29.057  18.081   5.511  0.00  0.00    -0.234 N 
ATOM     23  HN  UNK N   1      29.404  18.038   3.440  1.00  0.00     0.188 HD
HETATM   24  C   UNK N   1      29.820  17.755   6.530  0.00  0.00     0.349 A 
HETATM   25  O   UNK N   1      29.441  17.740   7.680  0.00  0.00    -0.244 OA
BRANCH  22  26
HETATM   26  C   UNK N   1      27.662  18.458   5.717  0.00  0.00     0.141 C 
BRANCH  26  27
HETATM   27  C   UNK N   1      27.386  19.857   5.126  0.00  0.00     0.025 C 
HETATM   28  C   UNK N   1      27.557  21.020   6.103  0.00  0.00     0.007 C 
ENDBRANCH  26  27
BRANCH  26  29
HETATM   29  C   UNK N   1      26.744  17.432   5.100  0.00  0.00     0.139 C 
HETATM   30  C   UNK N   1      26.167  17.953   3.791  0.00  0.00     0.041 C 
BRANCH  29  31
HETATM   31  O   UNK N   1      27.471  16.273   4.840  0.00  0.00    -0.394 OA
HETATM   32  H   UNK N   1      27.143  15.604   4.218  0.00  0.00     0.210 HD
ENDBRANCH  29  31
ENDBRANCH  26  29
ENDBRANCH  22  26
ENDBRANCH  16  19
ENDBRANCH  10  13
ENDBRANCH   5   7
BRANCH   6  33
HETATM   33  O   UNK N   1      36.626   8.937  11.624  0.00  0.00    -0.351 OA
BRANCH  33  34
HETATM   34  C   UNK N   1      37.572   9.116  12.637  0.00  0.00     0.182 C 
BRANCH  34  35
HETATM   35  C   UNK N   1      36.955   9.568  13.993  0.00  0.00     0.037 C 
HETATM   36  C   UNK N   1      35.617  10.216  13.948  0.00  0.00     0.054 C 
HETATM   37  C   UNK N   1      35.788  11.397  14.904  0.00  0.00     0.109 C 
HETATM   38  O   UNK N   1      37.037  11.321  15.541  0.00  0.00    -0.373 OA
HETATM   39  C   UNK N   1      37.827  10.628  14.641  0.00  0.00     0.176 C 
BRANCH  37  40
HETATM   40  C   UNK N   1      34.689  11.396  16.004  0.00  0.00     0.193 C 
BRANCH  40  41
HETATM   41  N   UNK N   1      34.989  12.026  17.303  0.00  0.00    -0.284 N 
HETATM   42  C   UNK N   1      34.934  13.321  17.666  0.00  0.00     0.201 A 
HETATM   43  N   UNK N   1      35.280  13.449  18.967  0.00  0.00    -0.346 N 
HETATM   44  C   UNK N   1      35.541  12.186  19.372  0.00  0.00     0.198 A 
ATOM     45  HN  UNK N   1      35.332  14.305  19.518  1.00  0.00     0.167 HD
HETATM   46  N   UNK N   1      35.363  11.321  18.356  0.00  0.00    -0.293 N 
ATOM     47  HN  UNK N   1      35.492  10.310  18.393  1.00  0.00     0.188 HD
ENDBRANCH  40  41
ENDBRANCH  37  40
BRANCH  37  48
HETATM   48  C   UNK N   1      35.733  12.655  14.033  0.00  0.00     0.017 A 
HETATM   49  C   UNK N   1      35.003  12.626  12.838  0.00  0.00     0.016 A 
HETATM   50  C   UNK N   1      34.975  13.732  11.992  0.00  0.00     0.043 A 
HETATM   51  C   UNK N   1      35.682  14.886  12.326  0.00  0.00     0.119 A 
HETATM   52  C   UNK N   1      36.402  14.947  13.508  0.00  0.00     0.085 A 
HETATM   53  F   UNK N   1      35.688  15.946  11.490  0.00  0.00    -0.206 F 
HETATM   54  C   UNK N   1      36.434  13.859  14.368  0.00  0.00     0.128 A 
HETATM   55  F   UNK N   1      37.192  13.995  15.478  0.00  0.00    -0.205 F 
ENDBRANCH  37  48
ENDBRANCH  34  35
ENDBRANCH  33  34
ENDBRANCH   6  33
TORSDOF 13
ENDMDL
MODEL 6
REMARK VINA RESULT:      -8.2      3.366      5.728
REMARK  13 active torsions:
REMARK  status: ('A' for Active; 'I' for Inactive)
REMARK    1  A    between atoms: C_35  and  C_3 
REMARK    2  A    between atoms: C_27  and  C_20 
REMARK    3  A    between atoms: O_53  and  C_20 
REMARK    4  A    between atoms: C_37  and  C_22 
REMARK    5  A    between atoms: N_48  and  C_22 
REMARK    6  A    between atoms: C_35  and  C_26 
REMARK    7  A    between atoms: C_26  and  O_51 
REMARK    8  A    between atoms: N_46  and  C_29 
REMARK    9  A    between atoms: N_47  and  C_30 
REMARK   10  A    between atoms: N_49  and  C_31 
REMARK   11  A    between atoms: O_53  and  C_32 
REMARK   12  A    between atoms: C_37  and  C_33 
REMARK   13  A    between atoms: C_35  and  N_50 
ROOT
HETATM    1  C   UNK N   1      28.740  14.278   4.839  0.00  0.00     0.032 A 
HETATM    2  C   UNK N   1      29.318  15.375   2.771  0.00  0.00     0.032 A 
HETATM    3  C   UNK N   1      27.397  14.263   4.494  0.00  0.00     0.039 A 
HETATM    4  C   UNK N   1      28.004  15.304   2.403  0.00  0.00     0.039 A 
HETATM    5  C   UNK N   1      29.706  14.887   3.983  0.00  0.00     0.030 A 
HETATM    6  C   UNK N   1      27.032  14.785   3.261  0.00  0.00     0.068 A 
ENDROOT
BRANCH   5   7
HETATM    7  N   UNK N   1      31.078  14.595   4.095  0.00  0.00    -0.378 N 
HETATM    8  C   UNK N   1      31.476  14.022   5.332  0.00  0.00     0.143 C 
HETATM    9  C   UNK N   1      31.316  15.116   6.334  0.00  0.00     0.143 C 
HETATM   10  N   UNK N   1      31.743  16.452   5.838  0.00  0.00    -0.378 N 
HETATM   11  C   UNK N   1      32.083  16.712   4.432  0.00  0.00     0.143 C 
HETATM   12  C   UNK N   1      32.027  15.498   3.538  0.00  0.00     0.143 C 
BRANCH  10  13
HETATM   13  C   UNK N   1      32.343  17.287   6.798  0.00  0.00     0.030 C 
HETATM   14  C   UNK N   1      33.708  17.543   6.558  0.00  0.00     0.031 C 
HETATM   15  C   UNK N   1      34.647  17.055   7.450  0.00  0.00     0.032 C 
HETATM   16  C   UNK N   1      34.178  16.377   8.566  0.00  0.00     0.045 C 
HETATM   17  C   UNK N   1      32.825  16.431   8.893  0.00  0.00     0.032 C 
HETATM   18  C   UNK N   1      31.926  16.992   8.078  0.00  0.00     0.031 C 
BRANCH  16  19
HETATM   19  N   UNK N   1      35.056  15.960   9.579  0.00  0.00    -0.258 N 
HETATM   20  C   UNK N   1      35.553  16.550  10.682  0.00  0.00     0.210 A 
HETATM   21  N   UNK N   1      36.148  15.601  11.458  0.00  0.00    -0.289 N 
HETATM   22  N   UNK N   1      35.990  14.443  10.833  0.00  0.00    -0.234 N 
ATOM     23  HN  UNK N   1      36.623  15.753  12.348  1.00  0.00     0.188 HD
HETATM   24  C   UNK N   1      35.347  14.659   9.708  0.00  0.00     0.349 A 
HETATM   25  O   UNK N   1      34.959  13.778   8.972  0.00  0.00    -0.244 OA
BRANCH  22  26
HETATM   26  C   UNK N   1      36.285  13.083  11.273  0.00  0.00     0.141 C 
BRANCH  26  27
HETATM   27  C   UNK N   1      37.808  12.882  11.426  0.00  0.00     0.025 C 
HETATM   28  C   UNK N   1      38.633  13.199  10.178  0.00  0.00     0.007 C 
ENDBRANCH  26  27
BRANCH  26  29
HETATM   29  C   UNK N   1      35.579  12.787  12.572  0.00  0.00     0.139 C 
HETATM   30  C   UNK N   1      36.508  13.035  13.752  0.00  0.00     0.041 C 
BRANCH  29  31
HETATM   31  O   UNK N   1      34.473  13.627  12.689  0.00  0.00    -0.394 OA
HETATM   32  H   UNK N   1      33.822  13.701  11.973  0.00  0.00     0.210 HD
ENDBRANCH  29  31
ENDBRANCH  26  29
ENDBRANCH  22  26
ENDBRANCH  16  19
ENDBRANCH  10  13
ENDBRANCH   5   7
BRANCH   6  33
HETATM   33  O   UNK N   1      25.737  15.025   2.993  0.00  0.00    -0.351 OA
BRANCH  33  34
HETATM   34  C   UNK N   1      25.183  16.274   3.290  0.00  0.00     0.182 C 
BRANCH  34  35
HETATM   35  C   UNK N   1      23.953  16.200   4.242  0.00  0.00     0.037 C 
HETATM   36  C   UNK N   1      22.616  16.036   3.612  0.00  0.00     0.054 C 
HETATM   37  C   UNK N   1      21.757  17.032   4.392  0.00  0.00     0.109 C 
HETATM   38  O   UNK N   1      22.498  17.575   5.454  0.00  0.00    -0.373 OA
HETATM   39  C   UNK N   1      23.810  17.497   5.018  0.00  0.00     0.176 C 
BRANCH  37  40
HETATM   40  C   UNK N   1      20.498  16.343   4.991  0.00  0.00     0.193 C 
BRANCH  40  41
HETATM   41  N   UNK N   1      20.439  16.122   6.448  0.00  0.00    -0.284 N 
HETATM   42  C   UNK N   1      20.417  14.971   7.144  0.00  0.00     0.201 A 
HETATM   43  N   UNK N   1      20.378  15.236   8.470  0.00  0.00    -0.346 N 
HETATM   44  C   UNK N   1      20.381  16.585   8.543  0.00  0.00     0.198 A 
ATOM     45  HN  UNK N   1      20.352  14.568   9.240  1.00  0.00     0.167 HD
HETATM   46  N   UNK N   1      20.419  17.123   7.309  0.00  0.00    -0.293 N 
ATOM     47  HN  UNK N   1      20.429  18.117   7.083  1.00  0.00     0.188 HD
ENDBRANCH  40  41
ENDBRANCH  37  40
BRANCH  37  48
HETATM   48  C   UNK N   1      21.394  18.141   3.402  0.00  0.00     0.017 A 
HETATM   49  C   UNK N   1      21.809  19.452   3.664  0.00  0.00     0.016 A 
HETATM   50  C   UNK N   1      21.450  20.497   2.816  0.00  0.00     0.043 A 
HETATM   51  C   UNK N   1      20.664  20.248   1.692  0.00  0.00     0.119 A 
HETATM   52  C   UNK N   1      20.249  18.958   1.402  0.00  0.00     0.085 A 
HETATM   53  F   UNK N   1      20.282  21.264   0.889  0.00  0.00    -0.206 F 
HETATM   54  C   UNK N   1      20.605  17.903   2.230  0.00  0.00     0.128 A 
HETATM   55  F   UNK N   1      20.124  16.687   1.890  0.00  0.00    -0.205 F 
ENDBRANCH  37  48
ENDBRANCH  34  35
ENDBRANCH  33  34
ENDBRANCH   6  33
TORSDOF 13
ENDMDL
MODEL 7
REMARK VINA RESULT:      -8.1      3.091      4.904
REMARK  13 active torsions:
REMARK  status: ('A' for Active; 'I' for Inactive)
REMARK    1  A    between atoms: C_35  and  C_3 
REMARK    2  A    between atoms: C_27  and  C_20 
REMARK    3  A    between atoms: O_53  and  C_20 
REMARK    4  A    between atoms: C_37  and  C_22 
REMARK    5  A    between atoms: N_48  and  C_22 
REMARK    6  A    between atoms: C_35  and  C_26 
REMARK    7  A    between atoms: C_26  and  O_51 
REMARK    8  A    between atoms: N_46  and  C_29 
REMARK    9  A    between atoms: N_47  and  C_30 
REMARK   10  A    between atoms: N_49  and  C_31 
REMARK   11  A    between atoms: O_53  and  C_32 
REMARK   12  A    between atoms: C_37  and  C_33 
REMARK   13  A    between atoms: C_35  and  N_50 
ROOT
HETATM    1  C   UNK N   1      29.458  13.741   4.335  0.00  0.00     0.032 A 
HETATM    2  C   UNK N   1      29.194  15.849   3.193  0.00  0.00     0.032 A 
HETATM    3  C   UNK N   1      28.148  13.386   4.051  0.00  0.00     0.039 A 
HETATM    4  C   UNK N   1      27.923  15.472   2.860  0.00  0.00     0.039 A 
HETATM    5  C   UNK N   1      29.971  15.013   3.939  0.00  0.00     0.030 A 
HETATM    6  C   UNK N   1      27.377  14.266   3.307  0.00  0.00     0.068 A 
ENDROOT
BRANCH   5   7
HETATM    7  N   UNK N   1      31.355  15.258   3.859  0.00  0.00    -0.378 N 
HETATM    8  C   UNK N   1      32.150  14.550   4.798  0.00  0.00     0.143 C 
HETATM    9  C   UNK N   1      31.812  15.149   6.122  0.00  0.00     0.143 C 
HETATM   10  N   UNK N   1      31.649  16.628   6.087  0.00  0.00    -0.378 N 
HETATM   11  C   UNK N   1      31.608  17.399   4.837  0.00  0.00     0.143 C 
HETATM   12  C   UNK N   1      31.810  16.579   3.587  0.00  0.00     0.143 C 
BRANCH  10  13
HETATM   13  C   UNK N   1      32.091  17.309   7.236  0.00  0.00     0.030 C 
HETATM   14  C   UNK N   1      33.334  17.954   7.074  0.00  0.00     0.031 C 
HETATM   15  C   UNK N   1      34.421  17.504   7.803  0.00  0.00     0.032 C 
HETATM   16  C   UNK N   1      34.207  16.465   8.696  0.00  0.00     0.045 C 
HETATM   17  C   UNK N   1      32.906  16.089   9.025  0.00  0.00     0.032 C 
HETATM   18  C   UNK N   1      31.846  16.597   8.390  0.00  0.00     0.031 C 
BRANCH  16  19
HETATM   19  N   UNK N   1      35.226  16.035   9.561  0.00  0.00    -0.258 N 
HETATM   20  C   UNK N   1      35.703  16.486  10.735  0.00  0.00     0.210 A 
HETATM   21  N   UNK N   1      36.518  15.536  11.274  0.00  0.00    -0.289 N 
HETATM   22  N   UNK N   1      36.511  14.509  10.436  0.00  0.00    -0.234 N 
ATOM     23  HN  UNK N   1      37.032  15.601  12.153  1.00  0.00     0.188 HD
HETATM   24  C   UNK N   1      35.749  14.810   9.410  0.00  0.00     0.349 A 
HETATM   25  O   UNK N   1      35.460  14.029   8.531  0.00  0.00    -0.244 OA
BRANCH  22  26
HETATM   26  C   UNK N   1      37.075  13.170  10.577  0.00  0.00     0.141 C 
BRANCH  26  27
HETATM   27  C   UNK N   1      38.605  13.203  10.375  0.00  0.00     0.025 C 
HETATM   28  C   UNK N   1      39.068  13.174   8.918  0.00  0.00     0.007 C 
ENDBRANCH  26  27
BRANCH  26  29
HETATM   29  C   UNK N   1      36.732  12.596  11.929  0.00  0.00     0.139 C 
HETATM   30  C   UNK N   1      37.280  11.182  12.062  0.00  0.00     0.041 C 
BRANCH  29  31
HETATM   31  O   UNK N   1      37.304  13.393  12.918  0.00  0.00    -0.394 OA
HETATM   32  H   UNK N   1      38.036  13.066  13.464  0.00  0.00     0.210 HD
ENDBRANCH  29  31
ENDBRANCH  26  29
ENDBRANCH  22  26
ENDBRANCH  16  19
ENDBRANCH  10  13
ENDBRANCH   5   7
BRANCH   6  33
HETATM   33  O   UNK N   1      26.047  14.088   3.227  0.00  0.00    -0.351 OA
BRANCH  33  34
HETATM   34  C   UNK N   1      25.301  14.819   2.297  0.00  0.00     0.182 C 
BRANCH  34  35
HETATM   35  C   UNK N   1      23.936  15.322   2.852  0.00  0.00     0.037 C 
HETATM   36  C   UNK N   1      23.973  16.199   4.053  0.00  0.00     0.054 C 
HETATM   37  C   UNK N   1      22.848  15.625   4.916  0.00  0.00     0.109 C 
HETATM   38  O   UNK N   1      22.150  14.638   4.201  0.00  0.00    -0.373 OA
HETATM   39  C   UNK N   1      23.089  14.149   3.310  0.00  0.00     0.176 C 
BRANCH  37  40
HETATM   40  C   UNK N   1      21.831  16.729   5.323  0.00  0.00     0.193 C 
BRANCH  40  41
HETATM   41  N   UNK N   1      20.977  17.323   4.278  0.00  0.00    -0.284 N 
HETATM   42  C   UNK N   1      19.857  16.844   3.705  0.00  0.00     0.201 A 
HETATM   43  N   UNK N   1      19.389  17.732   2.799  0.00  0.00    -0.346 N 
HETATM   44  C   UNK N   1      20.264  18.760   2.850  0.00  0.00     0.198 A 
ATOM     45  HN  UNK N   1      18.561  17.645   2.209  1.00  0.00     0.167 HD
HETATM   46  N   UNK N   1      21.231  18.508   3.753  0.00  0.00    -0.293 N 
ATOM     47  HN  UNK N   1      22.013  19.119   3.987  1.00  0.00     0.188 HD
ENDBRANCH  40  41
ENDBRANCH  37  40
BRANCH  37  48
HETATM   48  C   UNK N   1      23.531  14.992   6.131  0.00  0.00     0.017 A 
HETATM   49  C   UNK N   1      24.908  15.171   6.309  0.00  0.00     0.016 A 
HETATM   50  C   UNK N   1      25.575  14.565   7.371  0.00  0.00     0.043 A 
HETATM   51  C   UNK N   1      24.875  13.764   8.271  0.00  0.00     0.119 A 
HETATM   52  C   UNK N   1      23.509  13.580   8.126  0.00  0.00     0.085 A 
HETATM   53  F   UNK N   1      25.524  13.144   9.279  0.00  0.00    -0.206 F 
HETATM   54  C   UNK N   1      22.826  14.184   7.080  0.00  0.00     0.128 A 
HETATM   55  F   UNK N   1      21.503  13.917   6.995  0.00  0.00    -0.205 F 
ENDBRANCH  37  48
ENDBRANCH  34  35
ENDBRANCH  33  34
ENDBRANCH   6  33
TORSDOF 13
ENDMDL
MODEL 8
REMARK VINA RESULT:      -8.0      3.189     12.378
REMARK  13 active torsions:
REMARK  status: ('A' for Active; 'I' for Inactive)
REMARK    1  A    between atoms: C_35  and  C_3 
REMARK    2  A    between atoms: C_27  and  C_20 
REMARK    3  A    between atoms: O_53  and  C_20 
REMARK    4  A    between atoms: C_37  and  C_22 
REMARK    5  A    between atoms: N_48  and  C_22 
REMARK    6  A    between atoms: C_35  and  C_26 
REMARK    7  A    between atoms: C_26  and  O_51 
REMARK    8  A    between atoms: N_46  and  C_29 
REMARK    9  A    between atoms: N_47  and  C_30 
REMARK   10  A    between atoms: N_49  and  C_31 
REMARK   11  A    between atoms: O_53  and  C_32 
REMARK   12  A    between atoms: C_37  and  C_33 
REMARK   13  A    between atoms: C_35  and  N_50 
ROOT
HETATM    1  C   UNK N   1      31.589  14.173   2.856  0.00  0.00     0.032 A 
HETATM    2  C   UNK N   1      30.844  12.568   4.494  0.00  0.00     0.032 A 
HETATM    3  C   UNK N   1      32.917  13.870   3.114  0.00  0.00     0.039 A 
HETATM    4  C   UNK N   1      32.150  12.224   4.703  0.00  0.00     0.039 A 
HETATM    5  C   UNK N   1      30.541  13.545   3.592  0.00  0.00     0.030 A 
HETATM    6  C   UNK N   1      33.193  12.884   4.050  0.00  0.00     0.068 A 
ENDROOT
BRANCH   5   7
HETATM    7  N   UNK N   1      29.215  13.527   3.119  0.00  0.00    -0.378 N 
HETATM    8  C   UNK N   1      28.887  14.556   2.198  0.00  0.00     0.143 C 
HETATM    9  C   UNK N   1      28.906  15.814   3.000  0.00  0.00     0.143 C 
HETATM   10  N   UNK N   1      28.317  15.668   4.359  0.00  0.00    -0.378 N 
HETATM   11  C   UNK N   1      27.953  14.367   4.937  0.00  0.00     0.143 C 
HETATM   12  C   UNK N   1      28.163  13.191   4.018  0.00  0.00     0.143 C 
BRANCH  10  13
HETATM   13  C   UNK N   1      27.614  16.790   4.834  0.00  0.00     0.030 C 
HETATM   14  C   UNK N   1      26.701  16.497   5.867  0.00  0.00     0.031 C 
HETATM   15  C   UNK N   1      25.347  16.652   5.626  0.00  0.00     0.032 C 
HETATM   16  C   UNK N   1      24.969  17.140   4.384  0.00  0.00     0.045 C 
HETATM   17  C   UNK N   1      25.925  17.695   3.536  0.00  0.00     0.032 C 
HETATM   18  C   UNK N   1      27.231  17.635   3.814  0.00  0.00     0.031 C 
BRANCH  16  19
HETATM   19  N   UNK N   1      23.627  17.443   4.106  0.00  0.00    -0.258 N 
HETATM   20  C   UNK N   1      22.911  18.582   4.102  0.00  0.00     0.210 A 
HETATM   21  N   UNK N   1      21.714  18.347   3.493  0.00  0.00    -0.289 N 
HETATM   22  N   UNK N   1      21.722  17.078   3.114  0.00  0.00    -0.234 N 
ATOM     23  HN  UNK N   1      20.959  19.020   3.356  1.00  0.00     0.188 HD
HETATM   24  C   UNK N   1      22.859  16.536   3.487  0.00  0.00     0.349 A 
HETATM   25  O   UNK N   1      23.204  15.415   3.185  0.00  0.00    -0.244 OA
BRANCH  22  26
HETATM   26  C   UNK N   1      20.778  16.332   2.287  0.00  0.00     0.141 C 
BRANCH  26  27
HETATM   27  C   UNK N   1      19.707  15.653   3.169  0.00  0.00     0.025 C 
HETATM   28  C   UNK N   1      19.640  14.131   3.052  0.00  0.00     0.007 C 
ENDBRANCH  26  27
BRANCH  26  29
HETATM   29  C   UNK N   1      20.130  17.245   1.276  0.00  0.00     0.139 C 
HETATM   30  C   UNK N   1      19.562  16.437   0.117  0.00  0.00     0.041 C 
BRANCH  29  31
HETATM   31  O   UNK N   1      19.090  17.937   1.892  0.00  0.00    -0.394 OA
HETATM   32  H   UNK N   1      18.883  17.802   2.830  0.00  0.00     0.210 HD
ENDBRANCH  29  31
ENDBRANCH  26  29
ENDBRANCH  22  26
ENDBRANCH  16  19
ENDBRANCH  10  13
ENDBRANCH   5   7
BRANCH   6  33
HETATM   33  O   UNK N   1      34.445  12.736   4.516  0.00  0.00    -0.351 OA
BRANCH  33  34
HETATM   34  C   UNK N   1      34.655  12.238   5.806  0.00  0.00     0.182 C 
BRANCH  34  35
HETATM   35  C   UNK N   1      35.042  13.334   6.841  0.00  0.00     0.037 C 
HETATM   36  C   UNK N   1      33.932  14.002   7.571  0.00  0.00     0.054 C 
HETATM   37  C   UNK N   1      34.344  15.474   7.525  0.00  0.00     0.109 C 
HETATM   38  O   UNK N   1      35.629  15.596   6.972  0.00  0.00    -0.373 OA
HETATM   39  C   UNK N   1      35.741  14.490   6.148  0.00  0.00     0.176 C 
BRANCH  37  40
HETATM   40  C   UNK N   1      34.376  16.096   8.951  0.00  0.00     0.193 C 
BRANCH  40  41
HETATM   41  N   UNK N   1      35.044  15.348  10.032  0.00  0.00    -0.284 N 
HETATM   42  C   UNK N   1      34.563  14.938  11.220  0.00  0.00     0.201 A 
HETATM   43  N   UNK N   1      35.522  14.267  11.897  0.00  0.00    -0.346 N 
HETATM   44  C   UNK N   1      36.592  14.286  11.073  0.00  0.00     0.198 A 
ATOM     45  HN  UNK N   1      35.453  13.842  12.822  1.00  0.00     0.167 HD
HETATM   46  N   UNK N   1      36.297  14.946   9.937  0.00  0.00    -0.293 N 
ATOM     47  HN  UNK N   1      36.926  15.104   9.149  1.00  0.00     0.188 HD
ENDBRANCH  40  41
ENDBRANCH  37  40
BRANCH  37  48
HETATM   48  C   UNK N   1      33.326  16.168   6.615  0.00  0.00     0.017 A 
HETATM   49  C   UNK N   1      33.779  16.833   5.469  0.00  0.00     0.016 A 
HETATM   50  C   UNK N   1      32.891  17.522   4.647  0.00  0.00     0.043 A 
HETATM   51  C   UNK N   1      31.534  17.563   4.961  0.00  0.00     0.119 A 
HETATM   52  C   UNK N   1      31.057  16.903   6.083  0.00  0.00     0.085 A 
HETATM   53  F   UNK N   1      30.676  18.262   4.188  0.00  0.00    -0.206 F 
HETATM   54  C   UNK N   1      31.925  16.203   6.908  0.00  0.00     0.128 A 
HETATM   55  F   UNK N   1      31.377  15.623   7.999  0.00  0.00    -0.205 F 
ENDBRANCH  37  48
ENDBRANCH  34  35
ENDBRANCH  33  34
ENDBRANCH   6  33
TORSDOF 13
ENDMDL
MODEL 9
REMARK VINA RESULT:      -7.9      3.031      5.269
REMARK  13 active torsions:
REMARK  status: ('A' for Active; 'I' for Inactive)
REMARK    1  A    between atoms: C_35  and  C_3 
REMARK    2  A    between atoms: C_27  and  C_20 
REMARK    3  A    between atoms: O_53  and  C_20 
REMARK    4  A    between atoms: C_37  and  C_22 
REMARK    5  A    between atoms: N_48  and  C_22 
REMARK    6  A    between atoms: C_35  and  C_26 
REMARK    7  A    between atoms: C_26  and  O_51 
REMARK    8  A    between atoms: N_46  and  C_29 
REMARK    9  A    between atoms: N_47  and  C_30 
REMARK   10  A    between atoms: N_49  and  C_31 
REMARK   11  A    between atoms: O_53  and  C_32 
REMARK   12  A    between atoms: C_37  and  C_33 
REMARK   13  A    between atoms: C_35  and  N_50 
ROOT
HETATM    1  C   UNK N   1      28.662  14.046   4.987  0.00  0.00     0.032 A 
HETATM    2  C   UNK N   1      28.808  16.165   3.845  0.00  0.00     0.032 A 
HETATM    3  C   UNK N   1      27.277  14.071   4.927  0.00  0.00     0.039 A 
HETATM    4  C   UNK N   1      27.446  16.159   3.730  0.00  0.00     0.039 A 
HETATM    5  C   UNK N   1      29.434  15.133   4.480  0.00  0.00     0.030 A 
HETATM    6  C   UNK N   1      26.669  15.144   4.291  0.00  0.00     0.068 A 
ENDROOT
BRANCH   5   7
HETATM    7  N   UNK N   1      30.800  14.988   4.173  0.00  0.00    -0.378 N 
HETATM    8  C   UNK N   1      31.576  14.329   5.162  0.00  0.00     0.143 C 
HETATM    9  C   UNK N   1      31.623  15.278   6.313  0.00  0.00     0.143 C 
HETATM   10  N   UNK N   1      31.786  16.701   5.912  0.00  0.00    -0.378 N 
HETATM   11  C   UNK N   1      31.691  17.154   4.517  0.00  0.00     0.143 C 
HETATM   12  C   UNK N   1      31.478  16.051   3.512  0.00  0.00     0.143 C 
BRANCH  10  13
HETATM   13  C   UNK N   1      32.568  17.485   6.780  0.00  0.00     0.030 C 
HETATM   14  C   UNK N   1      33.949  17.442   6.501  0.00  0.00     0.031 C 
HETATM   15  C   UNK N   1      34.799  16.862   7.425  0.00  0.00     0.032 C 
HETATM   16  C   UNK N   1      34.240  16.396   8.607  0.00  0.00     0.045 C 
HETATM   17  C   UNK N   1      32.935  16.748   8.942  0.00  0.00     0.032 C 
HETATM   18  C   UNK N   1      32.140  17.399   8.087  0.00  0.00     0.031 C 
BRANCH  16  19
HETATM   19  N   UNK N   1      35.049  15.909   9.645  0.00  0.00    -0.258 N 
HETATM   20  C   UNK N   1      35.620  16.474  10.725  0.00  0.00     0.210 A 
HETATM   21  N   UNK N   1      36.076  15.488  11.548  0.00  0.00    -0.289 N 
HETATM   22  N   UNK N   1      35.759  14.337  10.975  0.00  0.00    -0.234 N 
ATOM     23  HN  UNK N   1      36.565  15.614  12.435  1.00  0.00     0.188 HD
HETATM   24  C   UNK N   1      35.155  14.587   9.836  0.00  0.00     0.349 A 
HETATM   25  O   UNK N   1      34.650  13.735   9.138  0.00  0.00    -0.244 OA
BRANCH  22  26
HETATM   26  C   UNK N   1      35.861  12.970  11.479  0.00  0.00     0.141 C 
BRANCH  26  27
HETATM   27  C   UNK N   1      37.304  12.668  11.936  0.00  0.00     0.025 C 
HETATM   28  C   UNK N   1      38.367  12.778  10.843  0.00  0.00     0.007 C 
ENDBRANCH  26  27
BRANCH  26  29
HETATM   29  C   UNK N   1      34.891  12.756  12.614  0.00  0.00     0.139 C 
HETATM   30  C   UNK N   1      35.098  11.384  13.240  0.00  0.00     0.041 C 
BRANCH  29  31
HETATM   31  O   UNK N   1      35.109  13.729  13.587  0.00  0.00    -0.394 OA
HETATM   32  H   UNK N   1      34.783  14.636  13.472  0.00  0.00     0.210 HD
ENDBRANCH  29  31
ENDBRANCH  26  29
ENDBRANCH  22  26
ENDBRANCH  16  19
ENDBRANCH  10  13
ENDBRANCH   5   7
BRANCH   6  33
HETATM   33  O   UNK N   1      25.347  15.341   4.430  0.00  0.00    -0.351 OA
BRANCH  33  34
HETATM   34  C   UNK N   1      24.832  16.641   4.427  0.00  0.00     0.182 C 
BRANCH  34  35
HETATM   35  C   UNK N   1      23.387  16.739   3.856  0.00  0.00     0.037 C 
HETATM   36  C   UNK N   1      22.393  17.508   4.651  0.00  0.00     0.054 C 
HETATM   37  C   UNK N   1      21.159  16.606   4.599  0.00  0.00     0.109 C 
HETATM   38  O   UNK N   1      21.388  15.527   3.731  0.00  0.00    -0.373 OA
HETATM   39  C   UNK N   1      22.762  15.358   3.769  0.00  0.00     0.176 C 
BRANCH  37  40
HETATM   40  C   UNK N   1      19.915  17.382   4.080  0.00  0.00     0.193 C 
BRANCH  40  41
HETATM   41  N   UNK N   1      20.101  18.379   3.009  0.00  0.00    -0.284 N 
HETATM   42  C   UNK N   1      20.220  18.204   1.679  0.00  0.00     0.201 A 
HETATM   43  N   UNK N   1      20.359  19.402   1.069  0.00  0.00    -0.346 N 
HETATM   44  C   UNK N   1      20.317  20.301   2.077  0.00  0.00     0.198 A 
ATOM     45  HN  UNK N   1      20.471  19.586   0.072  1.00  0.00     0.167 HD
HETATM   46  N   UNK N   1      20.159  19.674   3.258  0.00  0.00    -0.293 N 
ATOM     47  HN  UNK N   1      20.096  20.118   4.174  1.00  0.00     0.188 HD
ENDBRANCH  40  41
ENDBRANCH  37  40
BRANCH  37  48
HETATM   48  C   UNK N   1      20.960  16.084   6.024  0.00  0.00     0.017 A 
HETATM   49  C   UNK N   1      20.882  14.702   6.239  0.00  0.00     0.016 A 
HETATM   50  C   UNK N   1      20.645  14.190   7.513  0.00  0.00     0.043 A 
HETATM   51  C   UNK N   1      20.478  15.054   8.594  0.00  0.00     0.119 A 
HETATM   52  C   UNK N   1      20.562  16.425   8.412  0.00  0.00     0.085 A 
HETATM   53  F   UNK N   1      20.210  14.563   9.823  0.00  0.00    -0.206 F 
HETATM   54  C   UNK N   1      20.807  16.953   7.153  0.00  0.00     0.128 A 
HETATM   55  F   UNK N   1      20.835  18.301   7.063  0.00  0.00    -0.205 F 
ENDBRANCH  37  48
ENDBRANCH  34  35
ENDBRANCH  33  34
ENDBRANCH   6  33
TORSDOF 13
ENDMDL
