REMARK  4 active torsions:
REMARK  status: ('A' for Active; 'I' for Inactive)
REMARK    1  A    between atoms: N_3  and  C_6 
REMARK    2  A    between atoms: C_4  and  N_3 
REMARK    3  A    between atoms: C_5  and  C_4 
REMARK    4  A    between atoms: C_7  and  C_5 
ROOT
HETATM    1  C   UNK N   1      -3.630   0.322   0.116  0.00  0.00    -0.087 C 
HETATM    2  C   UNK N   1      -4.335  -0.588  -0.238  0.00  0.00     0.013 C 
HETATM    3  C   UNK N   1      -2.771   1.442   0.520  0.00  0.00     0.364 C 
ENDROOT
BRANCH   3   4
HETATM    4  N   UNK N   1      -1.529   1.504  -0.250  0.00  0.00     0.099 N 
HETATM    5  C   UNK N   1      -1.054   2.874  -0.089  0.00  0.00     0.311 C 
BRANCH   4   6
HETATM    6  C   UNK N   1      -0.512   0.556   0.267  0.00  0.00     0.223 C 
HETATM    7  C   UNK N   1      -0.921  -0.873  -0.081  0.00  0.00     0.043 C 
BRANCH   6   8
HETATM    8  C   UNK N   1       0.849   0.843  -0.404  0.00  0.00     0.074 C 
BRANCH   8   9
HETATM    9  C   UNK N   1       2.078   0.036  -0.062  0.00  0.00    -0.056 A 
HETATM   10  C   UNK N   1       3.314   0.697  -0.004  0.00  0.00     0.007 A 
HETATM   11  C   UNK N   1       4.506  -0.031   0.090  0.00  0.00     0.001 A 
HETATM   12  C   UNK N   1       4.471  -1.428   0.114  0.00  0.00     0.000 A 
HETATM   13  C   UNK N   1       3.244  -2.095   0.062  0.00  0.00     0.001 A 
HETATM   14  C   UNK N   1       2.053  -1.366  -0.043  0.00  0.00     0.007 A 
ENDBRANCH   8   9
ENDBRANCH   6   8
ENDBRANCH   4   6
ENDBRANCH   3   4
TORSDOF 4
