MODEL 1
REMARK VINA RESULT:      -5.8      0.000      0.000
REMARK  7 active torsions:
REMARK  status: ('A' for Active; 'I' for Inactive)
REMARK    1  A    between atoms: N_1  and  C_14 
REMARK       I    between atoms: C_9  and  N_13 
REMARK    2  A    between atoms: C_14  and  O_15 
REMARK    3  A    between atoms: O_15  and  C_16 
REMARK    4  A    between atoms: C_16  and  C_17 
REMARK    5  A    between atoms: C_16  and  C_18 
REMARK    6  A    between atoms: C_17  and  O_20 
REMARK    7  A    between atoms: C_18  and  O_19 
ROOT
HETATM    1  N   UNK N   1      33.476  17.539   7.446  0.00  0.00    -0.305 N 
HETATM    2  C   UNK N   1      32.172  17.429   7.723  0.00  0.00     0.158 A 
HETATM    3  C   UNK N   1      31.485  17.262   6.575  0.00  0.00     0.147 A 
HETATM    4  N   UNK N   1      32.333  17.257   5.530  0.00  0.00    -0.345 N 
ATOM      5  HN  UNK N   1      32.109  17.144   4.542  1.00  0.00     0.167 HD
HETATM    6  C   UNK N   1      33.558  17.437   6.093  0.00  0.00     0.187 A 
HETATM    7  N   UNK N   1      31.564  17.488   8.934  0.00  0.00    -0.174 N 
ATOM      8  HN  UNK N   1      32.107  17.617   9.789  1.00  0.00     0.186 HD
HETATM    9  C   UNK N   1      30.199  17.370   8.976  0.00  0.00     0.680 A 
HETATM   10  N   UNK N   1      29.478  17.199   7.818  0.00  0.00    -0.154 N 
HETATM   11  C   UNK N   1      30.110  17.140   6.594  0.00  0.00     0.290 A 
HETATM   12  O   UNK N   1      29.470  16.997   5.569  0.00  0.00    -0.265 OA
HETATM   13  N   UNK N   1      29.528  17.433  10.213  0.00  0.00    -0.234 N 
HETATM   14  H   UNK N   1      28.498  17.115   7.864  0.00  0.00     0.187 HD
HETATM   15  H   UNK N   1      28.543  17.419  10.240  0.00  0.00     0.174 HD
HETATM   16  H   UNK N   1      30.042  17.493  11.050  0.00  0.00     0.174 HD
ENDROOT
BRANCH   1  17
HETATM   17  C   UNK N   1      34.583  17.765   8.370  0.00  0.00     0.301 C 
BRANCH  17  18
HETATM   18  O   UNK N   1      34.262  17.295   9.652  0.00  0.00    -0.362 OA
BRANCH  18  19
HETATM   19  C   UNK N   1      34.981  16.100   9.802  0.00  0.00     0.170 C 
BRANCH  19  20
HETATM   20  C   UNK N   1      35.770  16.120  11.103  0.00  0.00     0.198 C 
BRANCH  20  21
HETATM   21  O   UNK N   1      37.140  16.033  10.844  0.00  0.00    -0.398 OA
HETATM   22  H   UNK N   1      37.734  15.335  11.160  0.00  0.00     0.209 HD
ENDBRANCH  20  21
ENDBRANCH  19  20
BRANCH  19  23
HETATM   23  C   UNK N   1      34.020  14.923   9.776  0.00  0.00     0.198 C 
BRANCH  23  24
HETATM   24  O   UNK N   1      32.906  15.215  10.562  0.00  0.00    -0.398 OA
HETATM   25  H   UNK N   1      32.309  14.730  11.153  0.00  0.00     0.209 HD
ENDBRANCH  23  24
ENDBRANCH  19  23
ENDBRANCH  18  19
ENDBRANCH  17  18
ENDBRANCH   1  17
TORSDOF 7
ENDMDL
MODEL 2
REMARK VINA RESULT:      -5.5      7.986     11.956
REMARK  7 active torsions:
REMARK  status: ('A' for Active; 'I' for Inactive)
REMARK    1  A    between atoms: N_1  and  C_14 
REMARK       I    between atoms: C_9  and  N_13 
REMARK    2  A    between atoms: C_14  and  O_15 
REMARK    3  A    between atoms: O_15  and  C_16 
REMARK    4  A    between atoms: C_16  and  C_17 
REMARK    5  A    between atoms: C_16  and  C_18 
REMARK    6  A    between atoms: C_17  and  O_20 
REMARK    7  A    between atoms: C_18  and  O_19 
ROOT
HETATM    1  N   UNK N   1      23.460  19.525   3.588  0.00  0.00    -0.305 N 
HETATM    2  C   UNK N   1      24.429  18.836   4.199  0.00  0.00     0.158 A 
HETATM    3  C   UNK N   1      25.622  19.394   3.911  0.00  0.00     0.147 A 
HETATM    4  N   UNK N   1      25.447  20.460   3.108  0.00  0.00    -0.345 N 
ATOM      5  HN  UNK N   1      26.160  21.083   2.729  1.00  0.00     0.167 HD
HETATM    6  C   UNK N   1      24.101  20.517   2.917  0.00  0.00     0.187 A 
HETATM    7  N   UNK N   1      24.310  17.733   4.980  0.00  0.00    -0.174 N 
ATOM      8  HN  UNK N   1      23.395  17.329   5.182  1.00  0.00     0.186 HD
HETATM    9  C   UNK N   1      25.456  17.178   5.488  0.00  0.00     0.680 A 
HETATM   10  N   UNK N   1      26.682  17.729   5.207  0.00  0.00    -0.154 N 
HETATM   11  C   UNK N   1      26.788  18.850   4.412  0.00  0.00     0.290 A 
HETATM   12  O   UNK N   1      27.876  19.334   4.158  0.00  0.00    -0.265 OA
HETATM   13  N   UNK N   1      25.376  16.027   6.297  0.00  0.00    -0.234 N 
HETATM   14  H   UNK N   1      27.496  17.319   5.579  0.00  0.00     0.187 HD
HETATM   15  H   UNK N   1      26.201  15.585   6.606  0.00  0.00     0.174 HD
HETATM   16  H   UNK N   1      24.498  15.664   6.553  0.00  0.00     0.174 HD
ENDROOT
BRANCH   1  17
HETATM   17  C   UNK N   1      22.023  19.264   3.589  0.00  0.00     0.301 C 
BRANCH  17  18
HETATM   18  O   UNK N   1      21.302  20.461   3.466  0.00  0.00    -0.362 OA
BRANCH  18  19
HETATM   19  C   UNK N   1      20.329  20.213   2.488  0.00  0.00     0.170 C 
BRANCH  19  20
HETATM   20  C   UNK N   1      20.891  20.491   1.102  0.00  0.00     0.198 C 
BRANCH  20  21
HETATM   21  O   UNK N   1      20.525  19.476   0.215  0.00  0.00    -0.398 OA
HETATM   22  H   UNK N   1      20.800  19.407  -0.713  0.00  0.00     0.209 HD
ENDBRANCH  20  21
ENDBRANCH  19  20
BRANCH  19  23
HETATM   23  C   UNK N   1      19.857  18.772   2.596  0.00  0.00     0.198 C 
BRANCH  23  24
HETATM   24  O   UNK N   1      18.479  18.718   2.391  0.00  0.00    -0.398 OA
HETATM   25  H   UNK N   1      17.821  19.204   1.869  0.00  0.00     0.209 HD
ENDBRANCH  23  24
ENDBRANCH  19  23
ENDBRANCH  18  19
ENDBRANCH  17  18
ENDBRANCH   1  17
TORSDOF 7
ENDMDL
MODEL 3
REMARK VINA RESULT:      -5.5      2.981      4.614
REMARK  7 active torsions:
REMARK  status: ('A' for Active; 'I' for Inactive)
REMARK    1  A    between atoms: N_1  and  C_14 
REMARK       I    between atoms: C_9  and  N_13 
REMARK    2  A    between atoms: C_14  and  O_15 
REMARK    3  A    between atoms: O_15  and  C_16 
REMARK    4  A    between atoms: C_16  and  C_17 
REMARK    5  A    between atoms: C_16  and  C_18 
REMARK    6  A    between atoms: C_17  and  O_20 
REMARK    7  A    between atoms: C_18  and  O_19 
ROOT
HETATM    1  N   UNK N   1      34.756  15.312  10.460  0.00  0.00    -0.305 N 
HETATM    2  C   UNK N   1      34.399  15.906   9.317  0.00  0.00     0.158 A 
HETATM    3  C   UNK N   1      34.799  17.193   9.339  0.00  0.00     0.147 A 
HETATM    4  N   UNK N   1      35.429  17.457  10.498  0.00  0.00    -0.345 N 
ATOM      5  HN  UNK N   1      35.845  18.338  10.799  1.00  0.00     0.167 HD
HETATM    6  C   UNK N   1      35.384  16.279  11.178  0.00  0.00     0.187 A 
HETATM    7  N   UNK N   1      33.723  15.371   8.269  0.00  0.00    -0.174 N 
ATOM      8  HN  UNK N   1      33.429  14.394   8.277  1.00  0.00     0.186 HD
HETATM    9  C   UNK N   1      33.445  16.184   7.200  0.00  0.00     0.680 A 
HETATM   10  N   UNK N   1      33.844  17.498   7.201  0.00  0.00    -0.154 N 
HETATM   11  C   UNK N   1      34.531  18.028   8.272  0.00  0.00     0.290 A 
HETATM   12  O   UNK N   1      34.877  19.195   8.275  0.00  0.00    -0.265 OA
HETATM   13  N   UNK N   1      32.738  15.669   6.095  0.00  0.00    -0.234 N 
HETATM   14  H   UNK N   1      33.638  18.070   6.426  0.00  0.00     0.187 HD
HETATM   15  H   UNK N   1      32.476  16.267   5.357  0.00  0.00     0.174 HD
HETATM   16  H   UNK N   1      32.505  14.714   6.061  0.00  0.00     0.174 HD
ENDROOT
BRANCH   1  17
HETATM   17  C   UNK N   1      34.502  13.939  10.886  0.00  0.00     0.301 C 
BRANCH  17  18
HETATM   18  O   UNK N   1      34.541  13.840  12.285  0.00  0.00    -0.362 OA
BRANCH  18  19
HETATM   19  C   UNK N   1      35.217  12.642  12.556  0.00  0.00     0.170 C 
BRANCH  19  20
HETATM   20  C   UNK N   1      36.705  12.905  12.736  0.00  0.00     0.198 C 
BRANCH  20  21
HETATM   21  O   UNK N   1      36.907  14.076  13.470  0.00  0.00    -0.398 OA
HETATM   22  H   UNK N   1      36.331  14.411  14.175  0.00  0.00     0.209 HD
ENDBRANCH  20  21
ENDBRANCH  19  20
BRANCH  19  23
HETATM   23  C   UNK N   1      34.632  11.999  13.803  0.00  0.00     0.198 C 
BRANCH  23  24
HETATM   24  O   UNK N   1      34.532  12.954  14.814  0.00  0.00    -0.398 OA
HETATM   25  H   UNK N   1      35.129  13.568  15.270  0.00  0.00     0.209 HD
ENDBRANCH  23  24
ENDBRANCH  19  23
ENDBRANCH  18  19
ENDBRANCH  17  18
ENDBRANCH   1  17
TORSDOF 7
ENDMDL
MODEL 4
REMARK VINA RESULT:      -5.4      1.930      2.862
REMARK  7 active torsions:
REMARK  status: ('A' for Active; 'I' for Inactive)
REMARK    1  A    between atoms: N_1  and  C_14 
REMARK       I    between atoms: C_9  and  N_13 
REMARK    2  A    between atoms: C_14  and  O_15 
REMARK    3  A    between atoms: O_15  and  C_16 
REMARK    4  A    between atoms: C_16  and  C_17 
REMARK    5  A    between atoms: C_16  and  C_18 
REMARK    6  A    between atoms: C_17  and  O_20 
REMARK    7  A    between atoms: C_18  and  O_19 
ROOT
HETATM    1  N   UNK N   1      31.267  17.268   5.883  0.00  0.00    -0.305 N 
HETATM    2  C   UNK N   1      30.041  17.573   6.321  0.00  0.00     0.158 A 
HETATM    3  C   UNK N   1      29.208  17.694   5.268  0.00  0.00     0.147 A 
HETATM    4  N   UNK N   1      29.880  17.466   4.124  0.00  0.00    -0.345 N 
ATOM      5  HN  UNK N   1      29.518  17.481   3.172  1.00  0.00     0.167 HD
HETATM    6  C   UNK N   1      31.153  17.211   4.530  0.00  0.00     0.187 A 
HETATM    7  N   UNK N   1      29.631  17.766   7.600  0.00  0.00    -0.174 N 
ATOM      8  HN  UNK N   1      30.282  17.670   8.380  1.00  0.00     0.186 HD
HETATM    9  C   UNK N   1      28.317  18.096   7.812  0.00  0.00     0.680 A 
HETATM   10  N   UNK N   1      27.451  18.224   6.754  0.00  0.00    -0.154 N 
HETATM   11  C   UNK N   1      27.881  18.025   5.460  0.00  0.00     0.290 A 
HETATM   12  O   UNK N   1      27.115  18.147   4.522  0.00  0.00    -0.265 OA
HETATM   13  N   UNK N   1      27.853  18.312   9.125  0.00  0.00    -0.234 N 
HETATM   14  H   UNK N   1      26.510  18.461   6.922  0.00  0.00     0.187 HD
HETATM   15  H   UNK N   1      26.929  18.617   9.276  0.00  0.00     0.174 HD
HETATM   16  H   UNK N   1      28.453  18.160   9.891  0.00  0.00     0.174 HD
ENDROOT
BRANCH   1  17
HETATM   17  C   UNK N   1      32.486  17.077   6.662  0.00  0.00     0.301 C 
BRANCH  17  18
HETATM   18  O   UNK N   1      32.189  16.957   8.027  0.00  0.00    -0.362 OA
BRANCH  18  19
HETATM   19  C   UNK N   1      33.282  17.523   8.699  0.00  0.00     0.170 C 
BRANCH  19  20
HETATM   20  C   UNK N   1      34.051  16.448   9.453  0.00  0.00     0.198 C 
BRANCH  20  21
HETATM   21  O   UNK N   1      34.763  17.012  10.515  0.00  0.00    -0.398 OA
HETATM   22  H   UNK N   1      35.551  17.571  10.435  0.00  0.00     0.209 HD
ENDBRANCH  20  21
ENDBRANCH  19  20
BRANCH  19  23
HETATM   23  C   UNK N   1      34.184  18.226   7.699  0.00  0.00     0.198 C 
BRANCH  23  24
HETATM   24  O   UNK N   1      35.043  19.091   8.377  0.00  0.00    -0.398 OA
HETATM   25  H   UNK N   1      35.813  19.010   8.961  0.00  0.00     0.209 HD
ENDBRANCH  23  24
ENDBRANCH  19  23
ENDBRANCH  18  19
ENDBRANCH  17  18
ENDBRANCH   1  17
TORSDOF 7
ENDMDL
MODEL 5
REMARK VINA RESULT:      -5.4      2.517      5.488
REMARK  7 active torsions:
REMARK  status: ('A' for Active; 'I' for Inactive)
REMARK    1  A    between atoms: N_1  and  C_14 
REMARK       I    between atoms: C_9  and  N_13 
REMARK    2  A    between atoms: C_14  and  O_15 
REMARK    3  A    between atoms: O_15  and  C_16 
REMARK    4  A    between atoms: C_16  and  C_17 
REMARK    5  A    between atoms: C_16  and  C_18 
REMARK    6  A    between atoms: C_17  and  O_20 
REMARK    7  A    between atoms: C_18  and  O_19 
ROOT
HETATM    1  N   UNK N   1      32.640  17.276   8.009  0.00  0.00    -0.305 N 
HETATM    2  C   UNK N   1      33.255  16.285   8.664  0.00  0.00     0.158 A 
HETATM    3  C   UNK N   1      34.411  16.744   9.184  0.00  0.00     0.147 A 
HETATM    4  N   UNK N   1      34.566  18.045   8.878  0.00  0.00    -0.345 N 
ATOM      5  HN  UNK N   1      35.335  18.662   9.136  1.00  0.00     0.167 HD
HETATM    6  C   UNK N   1      33.461  18.350   8.145  0.00  0.00     0.187 A 
HETATM    7  N   UNK N   1      32.852  14.997   8.806  0.00  0.00    -0.174 N 
ATOM      8  HN  UNK N   1      31.973  14.674   8.402  1.00  0.00     0.186 HD
HETATM    9  C   UNK N   1      33.663  14.143   9.509  0.00  0.00     0.680 A 
HETATM   10  N   UNK N   1      34.846  14.590  10.048  0.00  0.00    -0.154 N 
HETATM   11  C   UNK N   1      35.242  15.901   9.895  0.00  0.00     0.290 A 
HETATM   12  O   UNK N   1      36.293  16.294  10.366  0.00  0.00    -0.265 OA
HETATM   13  N   UNK N   1      33.286  12.796   9.673  0.00  0.00    -0.234 N 
HETATM   14  H   UNK N   1      35.417  13.965  10.550  0.00  0.00     0.187 HD
HETATM   15  H   UNK N   1      33.898  12.164  10.117  0.00  0.00     0.174 HD
HETATM   16  H   UNK N   1      32.411  12.486   9.344  0.00  0.00     0.174 HD
ENDROOT
BRANCH   1  17
HETATM   17  C   UNK N   1      31.385  17.229   7.266  0.00  0.00     0.301 C 
BRANCH  17  18
HETATM   18  O   UNK N   1      30.315  16.919   8.118  0.00  0.00    -0.362 OA
BRANCH  18  19
HETATM   19  C   UNK N   1      29.624  18.124   8.306  0.00  0.00     0.170 C 
BRANCH  19  20
HETATM   20  C   UNK N   1      28.142  17.934   8.017  0.00  0.00     0.198 C 
BRANCH  20  21
HETATM   21  O   UNK N   1      27.392  18.114   9.182  0.00  0.00    -0.398 OA
HETATM   22  H   UNK N   1      26.440  17.955   9.273  0.00  0.00     0.209 HD
ENDBRANCH  20  21
ENDBRANCH  19  20
BRANCH  19  23
HETATM   23  C   UNK N   1      29.835  18.614   9.729  0.00  0.00     0.198 C 
BRANCH  23  24
HETATM   24  O   UNK N   1      29.765  17.533  10.607  0.00  0.00    -0.398 OA
HETATM   25  H   UNK N   1      29.449  16.617  10.578  0.00  0.00     0.209 HD
ENDBRANCH  23  24
ENDBRANCH  19  23
ENDBRANCH  18  19
ENDBRANCH  17  18
ENDBRANCH   1  17
TORSDOF 7
ENDMDL
MODEL 6
REMARK VINA RESULT:      -5.3      2.216      3.252
REMARK  7 active torsions:
REMARK  status: ('A' for Active; 'I' for Inactive)
REMARK    1  A    between atoms: N_1  and  C_14 
REMARK       I    between atoms: C_9  and  N_13 
REMARK    2  A    between atoms: C_14  and  O_15 
REMARK    3  A    between atoms: O_15  and  C_16 
REMARK    4  A    between atoms: C_16  and  C_17 
REMARK    5  A    between atoms: C_16  and  C_18 
REMARK    6  A    between atoms: C_17  and  O_20 
REMARK    7  A    between atoms: C_18  and  O_19 
ROOT
HETATM    1  N   UNK N   1      30.586  16.594   5.747  0.00  0.00    -0.305 N 
HETATM    2  C   UNK N   1      29.595  17.341   6.246  0.00  0.00     0.158 A 
HETATM    3  C   UNK N   1      29.026  18.049   5.251  0.00  0.00     0.147 A 
HETATM    4  N   UNK N   1      29.635  17.771   4.084  0.00  0.00    -0.345 N 
ATOM      5  HN  UNK N   1      29.422  18.147   3.160  1.00  0.00     0.167 HD
HETATM    6  C   UNK N   1      30.602  16.874   4.417  0.00  0.00     0.187 A 
HETATM    7  N   UNK N   1      29.187  17.439   7.536  0.00  0.00    -0.174 N 
ATOM      8  HN  UNK N   1      29.636  16.893   8.272  1.00  0.00     0.186 HD
HETATM    9  C   UNK N   1      28.153  18.294   7.821  0.00  0.00     0.680 A 
HETATM   10  N   UNK N   1      27.558  19.025   6.822  0.00  0.00    -0.154 N 
HETATM   11  C   UNK N   1      27.983  18.916   5.516  0.00  0.00     0.290 A 
HETATM   12  O   UNK N   1      27.460  19.570   4.633  0.00  0.00    -0.265 OA
HETATM   13  N   UNK N   1      27.704  18.430   9.150  0.00  0.00    -0.234 N 
HETATM   14  H   UNK N   1      26.817  19.635   7.042  0.00  0.00     0.187 HD
HETATM   15  H   UNK N   1      27.010  19.094   9.368  0.00  0.00     0.174 HD
HETATM   16  H   UNK N   1      28.084  17.863   9.859  0.00  0.00     0.174 HD
ENDROOT
BRANCH   1  17
HETATM   17  C   UNK N   1      31.494  15.701   6.458  0.00  0.00     0.301 C 
BRANCH  17  18
HETATM   18  O   UNK N   1      31.720  16.160   7.765  0.00  0.00    -0.362 OA
BRANCH  18  19
HETATM   19  C   UNK N   1      33.087  16.466   7.823  0.00  0.00     0.170 C 
BRANCH  19  20
HETATM   20  C   UNK N   1      33.303  17.957   7.609  0.00  0.00     0.198 C 
BRANCH  20  21
HETATM   21  O   UNK N   1      34.547  18.189   7.018  0.00  0.00    -0.398 OA
HETATM   22  H   UNK N   1      34.907  19.056   6.774  0.00  0.00     0.209 HD
ENDBRANCH  20  21
ENDBRANCH  19  20
BRANCH  19  23
HETATM   23  C   UNK N   1      33.648  16.030   9.167  0.00  0.00     0.198 C 
BRANCH  23  24
HETATM   24  O   UNK N   1      34.171  17.138   9.832  0.00  0.00    -0.398 OA
HETATM   25  H   UNK N   1      33.833  17.977  10.184  0.00  0.00     0.209 HD
ENDBRANCH  23  24
ENDBRANCH  19  23
ENDBRANCH  18  19
ENDBRANCH  17  18
ENDBRANCH   1  17
TORSDOF 7
ENDMDL
MODEL 7
REMARK VINA RESULT:      -5.2     12.909     14.853
REMARK  7 active torsions:
REMARK  status: ('A' for Active; 'I' for Inactive)
REMARK    1  A    between atoms: N_1  and  C_14 
REMARK       I    between atoms: C_9  and  N_13 
REMARK    2  A    between atoms: C_14  and  O_15 
REMARK    3  A    between atoms: O_15  and  C_16 
REMARK    4  A    between atoms: C_16  and  C_17 
REMARK    5  A    between atoms: C_16  and  C_18 
REMARK    6  A    between atoms: C_17  and  O_20 
REMARK    7  A    between atoms: C_18  and  O_19 
ROOT
HETATM    1  N   UNK N   1      42.469  23.212   0.772  0.00  0.00    -0.305 N 
HETATM    2  C   UNK N   1      42.981  22.578   1.832  0.00  0.00     0.158 A 
HETATM    3  C   UNK N   1      42.108  21.643   2.257  0.00  0.00     0.147 A 
HETATM    4  N   UNK N   1      41.012  21.651   1.476  0.00  0.00    -0.345 N 
ATOM      5  HN  UNK N   1      40.187  21.056   1.548  1.00  0.00     0.167 HD
HETATM    6  C   UNK N   1      41.256  22.635   0.569  0.00  0.00     0.187 A 
HETATM    7  N   UNK N   1      44.170  22.799   2.448  0.00  0.00    -0.174 N 
ATOM      8  HN  UNK N   1      44.813  23.514   2.107  1.00  0.00     0.186 HD
HETATM    9  C   UNK N   1      44.480  22.033   3.542  0.00  0.00     0.680 A 
HETATM   10  N   UNK N   1      43.605  21.074   3.992  0.00  0.00    -0.154 N 
HETATM   11  C   UNK N   1      42.401  20.861   3.356  0.00  0.00     0.290 A 
HETATM   12  O   UNK N   1      41.624  20.016   3.761  0.00  0.00    -0.265 OA
HETATM   13  N   UNK N   1      45.701  22.237   4.215  0.00  0.00    -0.234 N 
HETATM   14  H   UNK N   1      43.842  20.532   4.779  0.00  0.00     0.187 HD
HETATM   15  H   UNK N   1      45.896  21.737   5.041  0.00  0.00     0.174 HD
HETATM   16  H   UNK N   1      46.358  22.877   3.860  0.00  0.00     0.174 HD
ENDROOT
BRANCH   1  17
HETATM   17  C   UNK N   1      43.045  24.316   0.010  0.00  0.00     0.301 C 
BRANCH  17  18
HETATM   18  O   UNK N   1      43.519  25.318   0.869  0.00  0.00    -0.362 OA
BRANCH  18  19
HETATM   19  C   UNK N   1      44.769  25.691   0.356  0.00  0.00     0.170 C 
BRANCH  19  20
HETATM   20  C   UNK N   1      45.667  26.202   1.474  0.00  0.00     0.198 C 
BRANCH  20  21
HETATM   21  O   UNK N   1      45.317  25.609   2.690  0.00  0.00    -0.398 OA
HETATM   22  H   UNK N   1      44.442  25.645   3.107  0.00  0.00     0.209 HD
ENDBRANCH  20  21
ENDBRANCH  19  20
BRANCH  19  23
HETATM   23  C   UNK N   1      45.407  24.500  -0.341  0.00  0.00     0.198 C 
BRANCH  23  24
HETATM   24  O   UNK N   1      46.344  23.912   0.508  0.00  0.00    -0.398 OA
HETATM   25  H   UNK N   1      46.992  23.192   0.457  0.00  0.00     0.209 HD
ENDBRANCH  23  24
ENDBRANCH  19  23
ENDBRANCH  18  19
ENDBRANCH  17  18
ENDBRANCH   1  17
TORSDOF 7
ENDMDL
MODEL 8
REMARK VINA RESULT:      -5.1      2.356      4.140
REMARK  7 active torsions:
REMARK  status: ('A' for Active; 'I' for Inactive)
REMARK    1  A    between atoms: N_1  and  C_14 
REMARK       I    between atoms: C_9  and  N_13 
REMARK    2  A    between atoms: C_14  and  O_15 
REMARK    3  A    between atoms: O_15  and  C_16 
REMARK    4  A    between atoms: C_16  and  C_17 
REMARK    5  A    between atoms: C_16  and  C_18 
REMARK    6  A    between atoms: C_17  and  O_20 
REMARK    7  A    between atoms: C_18  and  O_19 
ROOT
HETATM    1  N   UNK N   1      29.703  17.828   8.272  0.00  0.00    -0.305 N 
HETATM    2  C   UNK N   1      29.248  17.987   7.025  0.00  0.00     0.158 A 
HETATM    3  C   UNK N   1      28.091  18.679   7.057  0.00  0.00     0.147 A 
HETATM    4  N   UNK N   1      27.776  18.985   8.329  0.00  0.00    -0.345 N 
ATOM      5  HN  UNK N   1      26.967  19.505   8.666  1.00  0.00     0.167 HD
HETATM    6  C   UNK N   1      28.785  18.442   9.063  0.00  0.00     0.187 A 
HETATM    7  N   UNK N   1      29.795  17.535   5.868  0.00  0.00    -0.174 N 
ATOM      8  HN  UNK N   1      30.671  17.012   5.871  1.00  0.00     0.186 HD
HETATM    9  C   UNK N   1      29.134  17.802   4.697  0.00  0.00     0.680 A 
HETATM   10  N   UNK N   1      27.954  18.505   4.706  0.00  0.00    -0.154 N 
HETATM   11  C   UNK N   1      27.411  18.958   5.889  0.00  0.00     0.290 A 
HETATM   12  O   UNK N   1      26.361  19.575   5.897  0.00  0.00    -0.265 OA
HETATM   13  N   UNK N   1      29.665  17.344   3.474  0.00  0.00    -0.234 N 
HETATM   14  H   UNK N   1      27.491  18.689   3.857  0.00  0.00     0.187 HD
HETATM   15  H   UNK N   1      29.158  17.472   2.639  0.00  0.00     0.174 HD
HETATM   16  H   UNK N   1      30.540  16.894   3.455  0.00  0.00     0.174 HD
ENDROOT
BRANCH   1  17
HETATM   17  C   UNK N   1      30.898  17.117   8.717  0.00  0.00     0.301 C 
BRANCH  17  18
HETATM   18  O   UNK N   1      32.048  17.659   8.124  0.00  0.00    -0.362 OA
BRANCH  18  19
HETATM   19  C   UNK N   1      32.892  16.567   7.878  0.00  0.00     0.170 C 
BRANCH  19  20
HETATM   20  C   UNK N   1      33.912  16.920   6.806  0.00  0.00     0.198 C 
BRANCH  20  21
HETATM   21  O   UNK N   1      34.452  18.186   7.045  0.00  0.00    -0.398 OA
HETATM   22  H   UNK N   1      35.332  18.489   6.771  0.00  0.00     0.209 HD
ENDBRANCH  20  21
ENDBRANCH  19  20
BRANCH  19  23
HETATM   23  C   UNK N   1      33.587  16.162   9.167  0.00  0.00     0.198 C 
BRANCH  23  24
HETATM   24  O   UNK N   1      34.221  17.273   9.721  0.00  0.00    -0.398 OA
HETATM   25  H   UNK N   1      35.001  17.815   9.524  0.00  0.00     0.209 HD
ENDBRANCH  23  24
ENDBRANCH  19  23
ENDBRANCH  18  19
ENDBRANCH  17  18
ENDBRANCH   1  17
TORSDOF 7
ENDMDL
MODEL 9
REMARK VINA RESULT:      -5.1      5.610      8.170
REMARK  7 active torsions:
REMARK  status: ('A' for Active; 'I' for Inactive)
REMARK    1  A    between atoms: N_1  and  C_14 
REMARK       I    between atoms: C_9  and  N_13 
REMARK    2  A    between atoms: C_14  and  O_15 
REMARK    3  A    between atoms: O_15  and  C_16 
REMARK    4  A    between atoms: C_16  and  C_17 
REMARK    5  A    between atoms: C_16  and  C_18 
REMARK    6  A    between atoms: C_17  and  O_20 
REMARK    7  A    between atoms: C_18  and  O_19 
ROOT
HETATM    1  N   UNK N   1      35.991  13.875  13.734  0.00  0.00    -0.305 N 
HETATM    2  C   UNK N   1      35.363  12.694  13.748  0.00  0.00     0.158 A 
HETATM    3  C   UNK N   1      35.509  12.126  14.961  0.00  0.00     0.147 A 
HETATM    4  N   UNK N   1      36.232  12.931  15.761  0.00  0.00    -0.345 N 
ATOM      5  HN  UNK N   1      36.500  12.774  16.731  1.00  0.00     0.167 HD
HETATM    6  C   UNK N   1      36.525  14.005  14.977  0.00  0.00     0.187 A 
HETATM    7  N   UNK N   1      34.688  12.092  12.737  0.00  0.00    -0.174 N 
ATOM      8  HN  UNK N   1      34.593  12.542  11.826  1.00  0.00     0.186 HD
HETATM    9  C   UNK N   1      34.138  10.859  12.976  0.00  0.00     0.680 A 
HETATM   10  N   UNK N   1      34.273  10.261  14.205  0.00  0.00    -0.154 N 
HETATM   11  C   UNK N   1      34.962  10.885  15.223  0.00  0.00     0.290 A 
HETATM   12  O   UNK N   1      35.088  10.351  16.309  0.00  0.00    -0.265 OA
HETATM   13  N   UNK N   1      33.435  10.196  11.950  0.00  0.00    -0.234 N 
HETATM   14  H   UNK N   1      33.873   9.375  14.362  0.00  0.00     0.187 HD
HETATM   15  H   UNK N   1      33.099   9.281  12.096  0.00  0.00     0.174 HD
HETATM   16  H   UNK N   1      33.281  10.645  11.088  0.00  0.00     0.174 HD
ENDROOT
BRANCH   1  17
HETATM   17  C   UNK N   1      36.126  14.817  12.627  0.00  0.00     0.301 C 
BRANCH  17  18
HETATM   18  O   UNK N   1      36.123  14.142  11.398  0.00  0.00    -0.362 OA
BRANCH  18  19
HETATM   19  C   UNK N   1      35.489  15.008  10.497  0.00  0.00     0.170 C 
BRANCH  19  20
HETATM   20  C   UNK N   1      34.108  14.478  10.137  0.00  0.00     0.198 C 
BRANCH  20  21
HETATM   21  O   UNK N   1      33.154  14.947  11.044  0.00  0.00    -0.398 OA
HETATM   22  H   UNK N   1      33.169  15.810  11.487  0.00  0.00     0.209 HD
ENDBRANCH  20  21
ENDBRANCH  19  20
BRANCH  19  23
HETATM   23  C   UNK N   1      35.386  16.395  11.111  0.00  0.00     0.198 C 
BRANCH  23  24
HETATM   24  O   UNK N   1      34.703  17.240  10.238  0.00  0.00    -0.398 OA
HETATM   25  H   UNK N   1      33.991  17.897  10.301  0.00  0.00     0.209 HD
ENDBRANCH  23  24
ENDBRANCH  19  23
ENDBRANCH  18  19
ENDBRANCH  17  18
ENDBRANCH   1  17
TORSDOF 7
ENDMDL
