MODEL 1
REMARK VINA RESULT:      -7.6      0.000      0.000
REMARK  10 active torsions:
REMARK  status: ('A' for Active; 'I' for Inactive)
REMARK    1  A    between atoms: C_2  and  C_1 
REMARK    2  A    between atoms: O_22  and  C_2 
REMARK    3  A    between atoms: C_3  and  C_11 
REMARK       I    between atoms: N_17  and  C_3 
REMARK    4  A    between atoms: N_4  and  C_15 
REMARK    5  A    between atoms: C_21  and  N_6 
REMARK    6  A    between atoms: O_28  and  C_8 
REMARK    7  A    between atoms: C_9  and  C_12 
REMARK    8  A    between atoms: O_16  and  C_9 
REMARK    9  A    between atoms: C_12  and  C_23 
REMARK   10  A    between atoms: C_23  and  N_17 
ROOT
HETATM    1  C   UNK N   1      24.903  19.678   3.596  0.00  0.00     0.032 A 
HETATM    2  C   UNK N   1      25.941  20.590   3.362  0.00  0.00     0.019 A 
HETATM    3  C   UNK N   1      25.211  18.376   4.017  0.00  0.00     0.019 A 
HETATM    4  C   UNK N   1      27.578  18.925   3.959  0.00  0.00     0.048 A 
HETATM    5  C   UNK N   1      26.550  18.002   4.198  0.00  0.00     0.032 A 
HETATM    6  C   UNK N   1      27.265  20.221   3.540  0.00  0.00     0.032 A 
ENDROOT
BRANCH   4   7
HETATM    7  N   UNK N   1      28.924  18.542   4.143  0.00  0.00    -0.300 N 
HETATM    8  N   UNK N   1      29.281  17.901   5.152  0.00  0.00    -0.300 N 
ATOM      9  HN  UNK N   1      28.592  17.647   5.861  1.00  0.00     0.187 HD
ATOM     10  HN  UNK N   1      29.617  18.793   3.438  1.00  0.00     0.187 HD
BRANCH   8  11
HETATM   11  C   UNK N   1      30.632  17.523   5.324  0.00  0.00     0.049 A 
HETATM   12  C   UNK N   1      31.082  17.069   6.567  0.00  0.00     0.052 A 
HETATM   13  C   UNK N   1      32.412  16.690   6.759  0.00  0.00     0.072 A 
HETATM   14  C   UNK N   1      33.309  16.772   5.671  0.00  0.00     0.082 A 
HETATM   15  C   UNK N   1      32.858  17.227   4.426  0.00  0.00     0.040 A 
HETATM   16  C   UNK N   1      31.523  17.602   4.252  0.00  0.00     0.034 A 
BRANCH  13  17
HETATM   17  C   UNK N   1      32.822  16.217   8.104  0.00  0.00     0.179 C 
HETATM   18  O   UNK N   1      33.733  15.410   8.215  0.00  0.00    -0.646 OA
BRANCH  17  19
HETATM   19  O   UNK N   1      32.204  16.664   9.212  0.00  0.00    -0.773 OA
HETATM   20  H   UNK N   1      31.801  16.057   9.803  0.00  0.00     0.167 HD
ENDBRANCH  17  19
ENDBRANCH  13  17
BRANCH  14  21
HETATM   21  O   UNK N   1      34.599  16.419   5.808  0.00  0.00    -0.360 OA
HETATM   22  H   UNK N   1      35.016  16.484   6.645  0.00  0.00     0.217 HD
ENDBRANCH  14  21
ENDBRANCH   8  11
ENDBRANCH   4   7
BRANCH   1  23
HETATM   23  C   UNK N   1      23.518  20.132   3.389  0.00  0.00     0.251 C 
HETATM   24  O   UNK N   1      23.268  21.286   3.066  0.00  0.00    -0.268 OA
HETATM   25  N   UNK N   1      22.529  19.227   3.567  0.00  0.00    -0.356 N 
HETATM   26  H   UNK N   1      22.799  18.317   3.826  0.00  0.00     0.162 HD
BRANCH  25  27
HETATM   27  C   UNK N   1      21.125  19.469   3.415  0.00  0.00     0.133 C 
BRANCH  27  28
HETATM   28  C   UNK N   1      20.841  19.245   1.938  0.00  0.00     0.129 C 
BRANCH  28  29
HETATM   29  C   UNK N   1      20.845  20.471   1.090  0.00  0.00     0.140 C 
HETATM   30  O   UNK N   1      20.868  20.397  -0.128  0.00  0.00    -0.650 OA
BRANCH  29  31
HETATM   31  O   UNK N   1      20.822  21.677   1.686  0.00  0.00    -0.776 OA
HETATM   32  H   UNK N   1      21.566  21.974   2.173  0.00  0.00     0.167 HD
ENDBRANCH  29  31
ENDBRANCH  28  29
ENDBRANCH  27  28
ENDBRANCH  25  27
ENDBRANCH   1  23
TORSDOF 10
ENDMDL
MODEL 2
REMARK VINA RESULT:      -7.4      2.404     10.503
REMARK  10 active torsions:
REMARK  status: ('A' for Active; 'I' for Inactive)
REMARK    1  A    between atoms: C_2  and  C_1 
REMARK    2  A    between atoms: O_22  and  C_2 
REMARK    3  A    between atoms: C_3  and  C_11 
REMARK       I    between atoms: N_17  and  C_3 
REMARK    4  A    between atoms: N_4  and  C_15 
REMARK    5  A    between atoms: C_21  and  N_6 
REMARK    6  A    between atoms: O_28  and  C_8 
REMARK    7  A    between atoms: C_9  and  C_12 
REMARK    8  A    between atoms: O_16  and  C_9 
REMARK    9  A    between atoms: C_12  and  C_23 
REMARK   10  A    between atoms: C_23  and  N_17 
ROOT
HETATM    1  C   UNK N   1      30.119  17.207   7.952  0.00  0.00     0.032 A 
HETATM    2  C   UNK N   1      29.941  16.995   6.578  0.00  0.00     0.019 A 
HETATM    3  C   UNK N   1      29.220  18.030   8.646  0.00  0.00     0.019 A 
HETATM    4  C   UNK N   1      27.990  18.410   6.584  0.00  0.00     0.048 A 
HETATM    5  C   UNK N   1      28.156  18.630   7.959  0.00  0.00     0.032 A 
HETATM    6  C   UNK N   1      28.890  17.589   5.899  0.00  0.00     0.032 A 
ENDROOT
BRANCH   4   7
HETATM    7  N   UNK N   1      26.916  19.018   5.899  0.00  0.00    -0.300 N 
HETATM    8  N   UNK N   1      26.343  18.441   4.954  0.00  0.00    -0.300 N 
ATOM      9  HN  UNK N   1      26.651  17.512   4.666  1.00  0.00     0.187 HD
ATOM     10  HN  UNK N   1      26.603  19.946   6.183  1.00  0.00     0.187 HD
BRANCH   8  11
HETATM   11  C   UNK N   1      25.269  19.061   4.276  0.00  0.00     0.049 A 
HETATM   12  C   UNK N   1      23.950  18.712   4.582  0.00  0.00     0.052 A 
HETATM   13  C   UNK N   1      22.874  19.312   3.926  0.00  0.00     0.072 A 
HETATM   14  C   UNK N   1      23.135  20.288   2.937  0.00  0.00     0.082 A 
HETATM   15  C   UNK N   1      24.456  20.636   2.631  0.00  0.00     0.040 A 
HETATM   16  C   UNK N   1      25.521  20.025   3.298  0.00  0.00     0.034 A 
BRANCH  13  17
HETATM   17  C   UNK N   1      21.500  18.895   4.299  0.00  0.00     0.179 C 
HETATM   18  O   UNK N   1      20.753  18.428   3.452  0.00  0.00    -0.646 OA
BRANCH  17  19
HETATM   19  O   UNK N   1      21.059  19.023   5.564  0.00  0.00    -0.773 OA
HETATM   20  H   UNK N   1      20.550  18.340   5.955  0.00  0.00     0.167 HD
ENDBRANCH  17  19
ENDBRANCH  13  17
BRANCH  14  21
HETATM   21  O   UNK N   1      22.131  20.892   2.278  0.00  0.00    -0.360 OA
HETATM   22  H   UNK N   1      21.508  20.380   1.800  0.00  0.00     0.217 HD
ENDBRANCH  14  21
ENDBRANCH   8  11
ENDBRANCH   4   7
BRANCH   1  23
HETATM   23  C   UNK N   1      31.257  16.547   8.616  0.00  0.00     0.251 C 
HETATM   24  O   UNK N   1      31.122  15.972   9.687  0.00  0.00    -0.268 OA
HETATM   25  N   UNK N   1      32.458  16.600   7.998  0.00  0.00    -0.356 N 
HETATM   26  H   UNK N   1      32.497  17.078   7.138  0.00  0.00     0.162 HD
BRANCH  25  27
HETATM   27  C   UNK N   1      33.680  16.025   8.476  0.00  0.00     0.133 C 
BRANCH  27  28
HETATM   28  C   UNK N   1      34.445  17.179   9.104  0.00  0.00     0.129 C 
BRANCH  28  29
HETATM   29  C   UNK N   1      34.773  18.307   8.185  0.00  0.00     0.140 C 
HETATM   30  O   UNK N   1      35.308  19.323   8.599  0.00  0.00    -0.650 OA
BRANCH  29  31
HETATM   31  O   UNK N   1      34.470  18.194   6.879  0.00  0.00    -0.776 OA
HETATM   32  H   UNK N   1      34.772  18.840   6.271  0.00  0.00     0.167 HD
ENDBRANCH  29  31
ENDBRANCH  28  29
ENDBRANCH  27  28
ENDBRANCH  25  27
ENDBRANCH   1  23
TORSDOF 10
ENDMDL
MODEL 3
REMARK VINA RESULT:      -7.3      2.344     10.787
REMARK  10 active torsions:
REMARK  status: ('A' for Active; 'I' for Inactive)
REMARK    1  A    between atoms: C_2  and  C_1 
REMARK    2  A    between atoms: O_22  and  C_2 
REMARK    3  A    between atoms: C_3  and  C_11 
REMARK       I    between atoms: N_17  and  C_3 
REMARK    4  A    between atoms: N_4  and  C_15 
REMARK    5  A    between atoms: C_21  and  N_6 
REMARK    6  A    between atoms: O_28  and  C_8 
REMARK    7  A    between atoms: C_9  and  C_12 
REMARK    8  A    between atoms: O_16  and  C_9 
REMARK    9  A    between atoms: C_12  and  C_23 
REMARK   10  A    between atoms: C_23  and  N_17 
ROOT
HETATM    1  C   UNK N   1      32.248  17.501   7.739  0.00  0.00     0.032 A 
HETATM    2  C   UNK N   1      31.906  17.162   6.423  0.00  0.00     0.019 A 
HETATM    3  C   UNK N   1      31.245  17.918   8.627  0.00  0.00     0.019 A 
HETATM    4  C   UNK N   1      29.588  17.650   6.870  0.00  0.00     0.048 A 
HETATM    5  C   UNK N   1      29.916  17.992   8.190  0.00  0.00     0.032 A 
HETATM    6  C   UNK N   1      30.591  17.235   5.990  0.00  0.00     0.032 A 
ENDROOT
BRANCH   4   7
HETATM    7  N   UNK N   1      28.246  17.726   6.437  0.00  0.00    -0.300 N 
HETATM    8  N   UNK N   1      27.961  18.098   5.280  0.00  0.00    -0.300 N 
ATOM      9  HN  UNK N   1      28.707  18.352   4.632  1.00  0.00     0.187 HD
ATOM     10  HN  UNK N   1      27.497  17.473   7.081  1.00  0.00     0.187 HD
BRANCH   8  11
HETATM   11  C   UNK N   1      26.614  18.170   4.860  0.00  0.00     0.049 A 
HETATM   12  C   UNK N   1      26.176  19.248   4.085  0.00  0.00     0.052 A 
HETATM   13  C   UNK N   1      24.851  19.339   3.658  0.00  0.00     0.072 A 
HETATM   14  C   UNK N   1      23.944  18.318   4.022  0.00  0.00     0.082 A 
HETATM   15  C   UNK N   1      24.383  17.238   4.798  0.00  0.00     0.040 A 
HETATM   16  C   UNK N   1      25.714  17.163   5.216  0.00  0.00     0.034 A 
BRANCH  13  17
HETATM   17  C   UNK N   1      24.454  20.510   2.839  0.00  0.00     0.179 C 
HETATM   18  O   UNK N   1      25.204  20.928   1.968  0.00  0.00    -0.646 OA
BRANCH  17  19
HETATM   19  O   UNK N   1      23.274  21.126   3.038  0.00  0.00    -0.773 OA
HETATM   20  H   UNK N   1      22.590  20.689   3.508  0.00  0.00     0.167 HD
ENDBRANCH  17  19
ENDBRANCH  13  17
BRANCH  14  21
HETATM   21  O   UNK N   1      22.657  18.363   3.634  0.00  0.00    -0.360 OA
HETATM   22  H   UNK N   1      21.985  18.540   4.262  0.00  0.00     0.217 HD
ENDBRANCH  14  21
ENDBRANCH   8  11
ENDBRANCH   4   7
BRANCH   1  23
HETATM   23  C   UNK N   1      33.663  17.403   8.137  0.00  0.00     0.251 C 
HETATM   24  O   UNK N   1      34.563  17.510   7.316  0.00  0.00    -0.268 OA
HETATM   25  N   UNK N   1      33.931  17.189   9.445  0.00  0.00    -0.356 N 
HETATM   26  H   UNK N   1      33.160  17.113  10.052  0.00  0.00     0.162 HD
BRANCH  25  27
HETATM   27  C   UNK N   1      35.233  17.064  10.030  0.00  0.00     0.133 C 
BRANCH  27  28
HETATM   28  C   UNK N   1      35.310  15.629  10.526  0.00  0.00     0.129 C 
BRANCH  28  29
HETATM   29  C   UNK N   1      34.084  14.809  10.312  0.00  0.00     0.140 C 
HETATM   30  O   UNK N   1      33.980  14.068   9.347  0.00  0.00    -0.650 OA
BRANCH  29  31
HETATM   31  O   UNK N   1      33.079  14.893  11.202  0.00  0.00    -0.776 OA
HETATM   32  H   UNK N   1      32.191  14.800  10.916  0.00  0.00     0.167 HD
ENDBRANCH  29  31
ENDBRANCH  28  29
ENDBRANCH  27  28
ENDBRANCH  25  27
ENDBRANCH   1  23
TORSDOF 10
ENDMDL
MODEL 4
REMARK VINA RESULT:      -7.2      2.411     10.753
REMARK  10 active torsions:
REMARK  status: ('A' for Active; 'I' for Inactive)
REMARK    1  A    between atoms: C_2  and  C_1 
REMARK    2  A    between atoms: O_22  and  C_2 
REMARK    3  A    between atoms: C_3  and  C_11 
REMARK       I    between atoms: N_17  and  C_3 
REMARK    4  A    between atoms: N_4  and  C_15 
REMARK    5  A    between atoms: C_21  and  N_6 
REMARK    6  A    between atoms: O_28  and  C_8 
REMARK    7  A    between atoms: C_9  and  C_12 
REMARK    8  A    between atoms: O_16  and  C_9 
REMARK    9  A    between atoms: C_12  and  C_23 
REMARK   10  A    between atoms: C_23  and  N_17 
ROOT
HETATM    1  C   UNK N   1      28.660  18.052   7.069  0.00  0.00     0.032 A 
HETATM    2  C   UNK N   1      28.025  17.168   6.187  0.00  0.00     0.019 A 
HETATM    3  C   UNK N   1      28.208  19.377   7.163  0.00  0.00     0.019 A 
HETATM    4  C   UNK N   1      26.503  18.904   5.496  0.00  0.00     0.048 A 
HETATM    5  C   UNK N   1      27.129  19.800   6.375  0.00  0.00     0.032 A 
HETATM    6  C   UNK N   1      26.958  17.586   5.407  0.00  0.00     0.032 A 
ENDROOT
BRANCH   4   7
HETATM    7  N   UNK N   1      25.417  19.338   4.705  0.00  0.00    -0.300 N 
HETATM    8  N   UNK N   1      24.367  18.669   4.627  0.00  0.00    -0.300 N 
ATOM      9  HN  UNK N   1      24.286  17.792   5.141  1.00  0.00     0.187 HD
ATOM     10  HN  UNK N   1      25.493  20.215   4.189  1.00  0.00     0.187 HD
BRANCH   8  11
HETATM   11  C   UNK N   1      23.288  19.115   3.832  0.00  0.00     0.049 A 
HETATM   12  C   UNK N   1      22.082  18.407   3.821  0.00  0.00     0.052 A 
HETATM   13  C   UNK N   1      21.003  18.830   3.044  0.00  0.00     0.072 A 
HETATM   14  C   UNK N   1      21.143  19.995   2.257  0.00  0.00     0.082 A 
HETATM   15  C   UNK N   1      22.350  20.704   2.267  0.00  0.00     0.040 A 
HETATM   16  C   UNK N   1      23.421  20.267   3.052  0.00  0.00     0.034 A 
BRANCH  13  17
HETATM   17  C   UNK N   1      19.754  18.031   3.080  0.00  0.00     0.179 C 
HETATM   18  O   UNK N   1      19.611  17.160   3.925  0.00  0.00    -0.646 OA
BRANCH  17  19
HETATM   19  O   UNK N   1      18.766  18.251   2.192  0.00  0.00    -0.773 OA
HETATM   20  H   UNK N   1      18.437  17.544   1.672  0.00  0.00     0.167 HD
ENDBRANCH  17  19
ENDBRANCH  13  17
BRANCH  14  21
HETATM   21  O   UNK N   1      20.131  20.441   1.492  0.00  0.00    -0.360 OA
HETATM   22  H   UNK N   1      19.867  21.339   1.540  0.00  0.00     0.217 HD
ENDBRANCH  14  21
ENDBRANCH   8  11
ENDBRANCH   4   7
BRANCH   1  23
HETATM   23  C   UNK N   1      29.788  17.545   7.870  0.00  0.00     0.251 C 
HETATM   24  O   UNK N   1      29.677  17.351   9.072  0.00  0.00    -0.268 OA
HETATM   25  N   UNK N   1      30.952  17.303   7.227  0.00  0.00    -0.356 N 
HETATM   26  H   UNK N   1      30.973  17.481   6.259  0.00  0.00     0.162 HD
BRANCH  25  27
HETATM   27  C   UNK N   1      32.159  16.811   7.822  0.00  0.00     0.133 C 
BRANCH  27  28
HETATM   28  C   UNK N   1      32.876  18.045   8.346  0.00  0.00     0.129 C 
BRANCH  28  29
HETATM   29  C   UNK N   1      34.228  18.295   7.768  0.00  0.00     0.140 C 
HETATM   30  O   UNK N   1      34.580  17.760   6.729  0.00  0.00    -0.650 OA
BRANCH  29  31
HETATM   31  O   UNK N   1      35.069  19.126   8.411  0.00  0.00    -0.776 OA
HETATM   32  H   UNK N   1      34.732  19.758   9.015  0.00  0.00     0.167 HD
ENDBRANCH  29  31
ENDBRANCH  28  29
ENDBRANCH  27  28
ENDBRANCH  25  27
ENDBRANCH   1  23
TORSDOF 10
ENDMDL
MODEL 5
REMARK VINA RESULT:      -7.2      1.690      2.266
REMARK  10 active torsions:
REMARK  status: ('A' for Active; 'I' for Inactive)
REMARK    1  A    between atoms: C_2  and  C_1 
REMARK    2  A    between atoms: O_22  and  C_2 
REMARK    3  A    between atoms: C_3  and  C_11 
REMARK       I    between atoms: N_17  and  C_3 
REMARK    4  A    between atoms: N_4  and  C_15 
REMARK    5  A    between atoms: C_21  and  N_6 
REMARK    6  A    between atoms: O_28  and  C_8 
REMARK    7  A    between atoms: C_9  and  C_12 
REMARK    8  A    between atoms: O_16  and  C_9 
REMARK    9  A    between atoms: C_12  and  C_23 
REMARK   10  A    between atoms: C_23  and  N_17 
ROOT
HETATM    1  C   UNK N   1      25.101  19.549   3.702  0.00  0.00     0.032 A 
HETATM    2  C   UNK N   1      25.962  20.557   4.155  0.00  0.00     0.019 A 
HETATM    3  C   UNK N   1      25.592  18.245   3.535  0.00  0.00     0.019 A 
HETATM    4  C   UNK N   1      27.786  18.986   4.275  0.00  0.00     0.048 A 
HETATM    5  C   UNK N   1      26.935  17.967   3.822  0.00  0.00     0.032 A 
HETATM    6  C   UNK N   1      27.290  20.282   4.440  0.00  0.00     0.032 A 
ENDROOT
BRANCH   4   7
HETATM    7  N   UNK N   1      29.137  18.697   4.562  0.00  0.00    -0.300 N 
HETATM    8  N   UNK N   1      29.449  17.791   5.362  0.00  0.00    -0.300 N 
ATOM      9  HN  UNK N   1      28.718  17.246   5.819  1.00  0.00     0.187 HD
ATOM     10  HN  UNK N   1      29.872  19.239   4.108  1.00  0.00     0.187 HD
BRANCH   8  11
HETATM   11  C   UNK N   1      30.806  17.513   5.640  0.00  0.00     0.049 A 
HETATM   12  C   UNK N   1      31.204  17.187   6.940  0.00  0.00     0.052 A 
HETATM   13  C   UNK N   1      32.539  16.908   7.238  0.00  0.00     0.072 A 
HETATM   14  C   UNK N   1      33.496  16.960   6.199  0.00  0.00     0.082 A 
HETATM   15  C   UNK N   1      33.097  17.286   4.897  0.00  0.00     0.040 A 
HETATM   16  C   UNK N   1      31.755  17.563   4.617  0.00  0.00     0.034 A 
BRANCH  13  17
HETATM   17  C   UNK N   1      32.892  16.569   8.638  0.00  0.00     0.179 C 
HETATM   18  O   UNK N   1      32.402  15.584   9.169  0.00  0.00    -0.646 OA
BRANCH  17  19
HETATM   19  O   UNK N   1      33.750  17.333   9.339  0.00  0.00    -0.773 OA
HETATM   20  H   UNK N   1      33.861  18.238   9.118  0.00  0.00     0.167 HD
ENDBRANCH  17  19
ENDBRANCH  13  17
BRANCH  14  21
HETATM   21  O   UNK N   1      34.793  16.699   6.438  0.00  0.00    -0.360 OA
HETATM   22  H   UNK N   1      35.229  16.018   5.965  0.00  0.00     0.217 HD
ENDBRANCH  14  21
ENDBRANCH   8  11
ENDBRANCH   4   7
BRANCH   1  23
HETATM   23  C   UNK N   1      23.701  19.906   3.418  0.00  0.00     0.251 C 
HETATM   24  O   UNK N   1      23.412  20.960   2.868  0.00  0.00    -0.268 OA
HETATM   25  N   UNK N   1      22.743  19.026   3.787  0.00  0.00    -0.356 N 
HETATM   26  H   UNK N   1      23.044  18.197   4.225  0.00  0.00     0.162 HD
BRANCH  25  27
HETATM   27  C   UNK N   1      21.332  19.186   3.600  0.00  0.00     0.133 C 
BRANCH  27  28
HETATM   28  C   UNK N   1      20.690  18.145   4.505  0.00  0.00     0.129 C 
BRANCH  28  29
HETATM   29  C   UNK N   1      21.423  17.855   5.770  0.00  0.00     0.140 C 
HETATM   30  O   UNK N   1      22.151  16.881   5.869  0.00  0.00    -0.650 OA
BRANCH  29  31
HETATM   31  O   UNK N   1      21.274  18.687   6.817  0.00  0.00    -0.776 OA
HETATM   32  H   UNK N   1      22.016  18.921   7.340  0.00  0.00     0.167 HD
ENDBRANCH  29  31
ENDBRANCH  28  29
ENDBRANCH  27  28
ENDBRANCH  25  27
ENDBRANCH   1  23
TORSDOF 10
ENDMDL
MODEL 6
REMARK VINA RESULT:      -7.0      9.211     13.533
REMARK  10 active torsions:
REMARK  status: ('A' for Active; 'I' for Inactive)
REMARK    1  A    between atoms: C_2  and  C_1 
REMARK    2  A    between atoms: O_22  and  C_2 
REMARK    3  A    between atoms: C_3  and  C_11 
REMARK       I    between atoms: N_17  and  C_3 
REMARK    4  A    between atoms: N_4  and  C_15 
REMARK    5  A    between atoms: C_21  and  N_6 
REMARK    6  A    between atoms: O_28  and  C_8 
REMARK    7  A    between atoms: C_9  and  C_12 
REMARK    8  A    between atoms: O_16  and  C_9 
REMARK    9  A    between atoms: C_12  and  C_23 
REMARK   10  A    between atoms: C_23  and  N_17 
ROOT
HETATM    1  C   UNK N   1      35.291  13.759   9.539  0.00  0.00     0.032 A 
HETATM    2  C   UNK N   1      35.094  14.689  10.568  0.00  0.00     0.019 A 
HETATM    3  C   UNK N   1      35.612  12.432   9.859  0.00  0.00     0.019 A 
HETATM    4  C   UNK N   1      35.532  12.992  12.223  0.00  0.00     0.048 A 
HETATM    5  C   UNK N   1      35.732  12.051  11.203  0.00  0.00     0.032 A 
HETATM    6  C   UNK N   1      35.213  14.313  11.897  0.00  0.00     0.032 A 
ENDROOT
BRANCH   4   7
HETATM    7  N   UNK N   1      35.654  12.601  13.574  0.00  0.00    -0.300 N 
HETATM    8  N   UNK N   1      34.685  12.127  14.200  0.00  0.00    -0.300 N 
ATOM      9  HN  UNK N   1      33.785  12.018  13.732  1.00  0.00     0.187 HD
ATOM     10  HN  UNK N   1      36.552  12.708  14.046  1.00  0.00     0.187 HD
BRANCH   8  11
HETATM   11  C   UNK N   1      34.821  11.740  15.551  0.00  0.00     0.049 A 
HETATM   12  C   UNK N   1      34.964  12.708  16.550  0.00  0.00     0.052 A 
HETATM   13  C   UNK N   1      35.100  12.347  17.891  0.00  0.00     0.072 A 
HETATM   14  C   UNK N   1      35.091  10.977  18.234  0.00  0.00     0.082 A 
HETATM   15  C   UNK N   1      34.948  10.007  17.235  0.00  0.00     0.040 A 
HETATM   16  C   UNK N   1      34.813  10.386  15.896  0.00  0.00     0.034 A 
BRANCH  13  17
HETATM   17  C   UNK N   1      35.248  13.426  18.899  0.00  0.00     0.179 C 
HETATM   18  O   UNK N   1      35.583  14.548  18.546  0.00  0.00    -0.646 OA
BRANCH  17  19
HETATM   19  O   UNK N   1      35.017  13.190  20.203  0.00  0.00    -0.773 OA
HETATM   20  H   UNK N   1      34.328  13.645  20.648  0.00  0.00     0.167 HD
ENDBRANCH  17  19
ENDBRANCH  13  17
BRANCH  14  21
HETATM   21  O   UNK N   1      35.219  10.582  19.513  0.00  0.00    -0.360 OA
HETATM   22  H   UNK N   1      34.470  10.278  19.987  0.00  0.00     0.217 HD
ENDBRANCH  14  21
ENDBRANCH   8  11
ENDBRANCH   4   7
BRANCH   1  23
HETATM   23  C   UNK N   1      35.151  14.222   8.147  0.00  0.00     0.251 C 
HETATM   24  O   UNK N   1      35.294  13.455   7.205  0.00  0.00    -0.268 OA
HETATM   25  N   UNK N   1      34.858  15.527   7.948  0.00  0.00    -0.356 N 
HETATM   26  H   UNK N   1      34.756  16.088   8.750  0.00  0.00     0.162 HD
BRANCH  25  27
HETATM   27  C   UNK N   1      34.681  16.169   6.680  0.00  0.00     0.133 C 
BRANCH  27  28
HETATM   28  C   UNK N   1      33.927  17.453   6.985  0.00  0.00     0.129 C 
BRANCH  28  29
HETATM   29  C   UNK N   1      34.284  18.117   8.271  0.00  0.00     0.140 C 
HETATM   30  O   UNK N   1      35.042  19.073   8.299  0.00  0.00    -0.650 OA
BRANCH  29  31
HETATM   31  O   UNK N   1      33.757  17.648   9.417  0.00  0.00    -0.776 OA
HETATM   32  H   UNK N   1      34.194  17.802  10.231  0.00  0.00     0.167 HD
ENDBRANCH  29  31
ENDBRANCH  28  29
ENDBRANCH  27  28
ENDBRANCH  25  27
ENDBRANCH   1  23
TORSDOF 10
ENDMDL
MODEL 7
REMARK VINA RESULT:      -7.0      4.147      6.542
REMARK  10 active torsions:
REMARK  status: ('A' for Active; 'I' for Inactive)
REMARK    1  A    between atoms: C_2  and  C_1 
REMARK    2  A    between atoms: O_22  and  C_2 
REMARK    3  A    between atoms: C_3  and  C_11 
REMARK       I    between atoms: N_17  and  C_3 
REMARK    4  A    between atoms: N_4  and  C_15 
REMARK    5  A    between atoms: C_21  and  N_6 
REMARK    6  A    between atoms: O_28  and  C_8 
REMARK    7  A    between atoms: C_9  and  C_12 
REMARK    8  A    between atoms: O_16  and  C_9 
REMARK    9  A    between atoms: C_12  and  C_23 
REMARK   10  A    between atoms: C_23  and  N_17 
ROOT
HETATM    1  C   UNK N   1      29.261  17.561   7.104  0.00  0.00     0.032 A 
HETATM    2  C   UNK N   1      30.171  17.011   6.192  0.00  0.00     0.019 A 
HETATM    3  C   UNK N   1      29.562  17.548   8.474  0.00  0.00     0.019 A 
HETATM    4  C   UNK N   1      31.669  16.436   7.991  0.00  0.00     0.048 A 
HETATM    5  C   UNK N   1      30.768  16.984   8.914  0.00  0.00     0.032 A 
HETATM    6  C   UNK N   1      31.363  16.453   6.628  0.00  0.00     0.032 A 
ENDROOT
BRANCH   4   7
HETATM    7  N   UNK N   1      32.881  15.871   8.442  0.00  0.00    -0.300 N 
HETATM    8  N   UNK N   1      33.136  15.775   9.659  0.00  0.00    -0.300 N 
ATOM      9  HN  UNK N   1      32.460  16.111  10.346  1.00  0.00     0.187 HD
ATOM     10  HN  UNK N   1      33.561  15.534   7.760  1.00  0.00     0.187 HD
BRANCH   8  11
HETATM   11  C   UNK N   1      34.353  15.207  10.098  0.00  0.00     0.049 A 
HETATM   12  C   UNK N   1      34.549  14.924  11.452  0.00  0.00     0.052 A 
HETATM   13  C   UNK N   1      35.744  14.362  11.907  0.00  0.00     0.072 A 
HETATM   14  C   UNK N   1      36.765  14.080  10.972  0.00  0.00     0.082 A 
HETATM   15  C   UNK N   1      36.569  14.364   9.616  0.00  0.00     0.040 A 
HETATM   16  C   UNK N   1      35.366  14.926   9.178  0.00  0.00     0.034 A 
BRANCH  13  17
HETATM   17  C   UNK N   1      35.885  14.087  13.358  0.00  0.00     0.179 C 
HETATM   18  O   UNK N   1      35.022  13.450  13.945  0.00  0.00    -0.646 OA
BRANCH  17  19
HETATM   19  O   UNK N   1      36.954  14.530  14.045  0.00  0.00    -0.773 OA
HETATM   20  H   UNK N   1      37.103  15.450  14.139  0.00  0.00     0.167 HD
ENDBRANCH  17  19
ENDBRANCH  13  17
BRANCH  14  21
HETATM   21  O   UNK N   1      37.932  13.539  11.364  0.00  0.00    -0.360 OA
HETATM   22  H   UNK N   1      38.533  13.208  10.725  0.00  0.00     0.217 HD
ENDBRANCH  14  21
ENDBRANCH   8  11
ENDBRANCH   4   7
BRANCH   1  23
HETATM   23  C   UNK N   1      28.012  18.138   6.578  0.00  0.00     0.251 C 
HETATM   24  O   UNK N   1      27.217  17.460   5.943  0.00  0.00    -0.268 OA
HETATM   25  N   UNK N   1      27.775  19.447   6.823  0.00  0.00    -0.356 N 
HETATM   26  H   UNK N   1      28.456  19.934   7.340  0.00  0.00     0.162 HD
BRANCH  25  27
HETATM   27  C   UNK N   1      26.626  20.190   6.400  0.00  0.00     0.133 C 
BRANCH  27  28
HETATM   28  C   UNK N   1      27.104  21.028   5.225  0.00  0.00     0.129 C 
BRANCH  28  29
HETATM   29  C   UNK N   1      27.048  20.359   3.894  0.00  0.00     0.140 C 
HETATM   30  O   UNK N   1      26.213  20.675   3.063  0.00  0.00    -0.650 OA
BRANCH  29  31
HETATM   31  O   UNK N   1      27.938  19.389   3.614  0.00  0.00    -0.776 OA
HETATM   32  H   UNK N   1      28.851  19.531   3.771  0.00  0.00     0.167 HD
ENDBRANCH  29  31
ENDBRANCH  28  29
ENDBRANCH  27  28
ENDBRANCH  25  27
ENDBRANCH   1  23
TORSDOF 10
ENDMDL
MODEL 8
REMARK VINA RESULT:      -6.9      1.510      2.520
REMARK  10 active torsions:
REMARK  status: ('A' for Active; 'I' for Inactive)
REMARK    1  A    between atoms: C_2  and  C_1 
REMARK    2  A    between atoms: O_22  and  C_2 
REMARK    3  A    between atoms: C_3  and  C_11 
REMARK       I    between atoms: N_17  and  C_3 
REMARK    4  A    between atoms: N_4  and  C_15 
REMARK    5  A    between atoms: C_21  and  N_6 
REMARK    6  A    between atoms: O_28  and  C_8 
REMARK    7  A    between atoms: C_9  and  C_12 
REMARK    8  A    between atoms: O_16  and  C_9 
REMARK    9  A    between atoms: C_12  and  C_23 
REMARK   10  A    between atoms: C_23  and  N_17 
ROOT
HETATM    1  C   UNK N   1      24.073  19.725   3.516  0.00  0.00     0.032 A 
HETATM    2  C   UNK N   1      25.126  20.485   2.990  0.00  0.00     0.019 A 
HETATM    3  C   UNK N   1      24.357  18.648   4.369  0.00  0.00     0.019 A 
HETATM    4  C   UNK N   1      26.733  19.114   4.151  0.00  0.00     0.048 A 
HETATM    5  C   UNK N   1      25.689  18.345   4.685  0.00  0.00     0.032 A 
HETATM    6  C   UNK N   1      26.442  20.185   3.302  0.00  0.00     0.032 A 
ENDROOT
BRANCH   4   7
HETATM    7  N   UNK N   1      28.072  18.803   4.474  0.00  0.00    -0.300 N 
HETATM    8  N   UNK N   1      28.379  17.693   4.954  0.00  0.00    -0.300 N 
ATOM      9  HN  UNK N   1      27.654  16.994   5.118  1.00  0.00     0.187 HD
ATOM     10  HN  UNK N   1      28.800  19.498   4.311  1.00  0.00     0.187 HD
BRANCH   8  11
HETATM   11  C   UNK N   1      29.722  17.394   5.272  0.00  0.00     0.049 A 
HETATM   12  C   UNK N   1      30.624  17.045   4.262  0.00  0.00     0.052 A 
HETATM   13  C   UNK N   1      31.956  16.746   4.554  0.00  0.00     0.072 A 
HETATM   14  C   UNK N   1      32.389  16.800   5.898  0.00  0.00     0.082 A 
HETATM   15  C   UNK N   1      31.486  17.150   6.910  0.00  0.00     0.040 A 
HETATM   16  C   UNK N   1      30.156  17.446   6.599  0.00  0.00     0.034 A 
BRANCH  13  17
HETATM   17  C   UNK N   1      32.858  16.384   3.434  0.00  0.00     0.179 C 
HETATM   18  O   UNK N   1      32.700  16.893   2.334  0.00  0.00    -0.646 OA
BRANCH  17  19
HETATM   19  O   UNK N   1      33.855  15.497   3.608  0.00  0.00    -0.773 OA
HETATM   20  H   UNK N   1      33.662  14.622   3.885  0.00  0.00     0.167 HD
ENDBRANCH  17  19
ENDBRANCH  13  17
BRANCH  14  21
HETATM   21  O   UNK N   1      33.662  16.520   6.228  0.00  0.00    -0.360 OA
HETATM   22  H   UNK N   1      34.312  17.194   6.200  0.00  0.00     0.217 HD
ENDBRANCH  14  21
ENDBRANCH   8  11
ENDBRANCH   4   7
BRANCH   1  23
HETATM   23  C   UNK N   1      22.696  20.095   3.146  0.00  0.00     0.251 C 
HETATM   24  O   UNK N   1      22.408  21.241   2.832  0.00  0.00    -0.268 OA
HETATM   25  N   UNK N   1      21.759  19.120   3.166  0.00  0.00    -0.356 N 
HETATM   26  H   UNK N   1      22.059  18.219   3.429  0.00  0.00     0.162 HD
BRANCH  25  27
HETATM   27  C   UNK N   1      20.372  19.274   2.842  0.00  0.00     0.133 C 
BRANCH  27  28
HETATM   28  C   UNK N   1      19.986  17.990   2.126  0.00  0.00     0.129 C 
BRANCH  28  29
HETATM   29  C   UNK N   1      20.253  17.968   0.659  0.00  0.00     0.140 C 
HETATM   30  O   UNK N   1      20.238  16.922   0.030  0.00  0.00    -0.650 OA
BRANCH  29  31
HETATM   31  O   UNK N   1      20.515  19.125   0.026  0.00  0.00    -0.776 OA
HETATM   32  H   UNK N   1      20.985  19.120  -0.786  0.00  0.00     0.167 HD
ENDBRANCH  29  31
ENDBRANCH  28  29
ENDBRANCH  27  28
ENDBRANCH  25  27
ENDBRANCH   1  23
TORSDOF 10
ENDMDL
MODEL 9
REMARK VINA RESULT:      -6.9      2.314      3.213
REMARK  10 active torsions:
REMARK  status: ('A' for Active; 'I' for Inactive)
REMARK    1  A    between atoms: C_2  and  C_1 
REMARK    2  A    between atoms: O_22  and  C_2 
REMARK    3  A    between atoms: C_3  and  C_11 
REMARK       I    between atoms: N_17  and  C_3 
REMARK    4  A    between atoms: N_4  and  C_15 
REMARK    5  A    between atoms: C_21  and  N_6 
REMARK    6  A    between atoms: O_28  and  C_8 
REMARK    7  A    between atoms: C_9  and  C_12 
REMARK    8  A    between atoms: O_16  and  C_9 
REMARK    9  A    between atoms: C_12  and  C_23 
REMARK   10  A    between atoms: C_23  and  N_17 
ROOT
HETATM    1  C   UNK N   1      23.632  19.808   3.415  0.00  0.00     0.032 A 
HETATM    2  C   UNK N   1      23.674  18.753   4.335  0.00  0.00     0.019 A 
HETATM    3  C   UNK N   1      24.801  20.536   3.145  0.00  0.00     0.019 A 
HETATM    4  C   UNK N   1      26.022  19.140   4.718  0.00  0.00     0.048 A 
HETATM    5  C   UNK N   1      25.995  20.199   3.799  0.00  0.00     0.032 A 
HETATM    6  C   UNK N   1      24.854  18.420   4.981  0.00  0.00     0.032 A 
ENDROOT
BRANCH   4   7
HETATM    7  N   UNK N   1      27.228  18.807   5.372  0.00  0.00    -0.300 N 
HETATM    8  N   UNK N   1      27.264  18.620   6.604  0.00  0.00    -0.300 N 
ATOM      9  HN  UNK N   1      26.409  18.708   7.155  1.00  0.00     0.187 HD
ATOM     10  HN  UNK N   1      28.085  18.718   4.826  1.00  0.00     0.187 HD
BRANCH   8  11
HETATM   11  C   UNK N   1      28.478  18.288   7.246  0.00  0.00     0.049 A 
HETATM   12  C   UNK N   1      29.448  17.541   6.572  0.00  0.00     0.052 A 
HETATM   13  C   UNK N   1      30.654  17.201   7.187  0.00  0.00     0.072 A 
HETATM   14  C   UNK N   1      30.887  17.625   8.515  0.00  0.00     0.082 A 
HETATM   15  C   UNK N   1      29.915  18.373   9.190  0.00  0.00     0.040 A 
HETATM   16  C   UNK N   1      28.713  18.704   8.559  0.00  0.00     0.034 A 
BRANCH  13  17
HETATM   17  C   UNK N   1      31.640  16.407   6.414  0.00  0.00     0.179 C 
HETATM   18  O   UNK N   1      32.038  15.337   6.851  0.00  0.00    -0.646 OA
BRANCH  17  19
HETATM   19  O   UNK N   1      32.106  16.846   5.231  0.00  0.00    -0.773 OA
HETATM   20  H   UNK N   1      33.015  16.751   5.020  0.00  0.00     0.167 HD
ENDBRANCH  17  19
ENDBRANCH  13  17
BRANCH  14  21
HETATM   21  O   UNK N   1      32.034  17.322   9.148  0.00  0.00    -0.360 OA
HETATM   22  H   UNK N   1      32.017  16.784   9.916  0.00  0.00     0.217 HD
ENDBRANCH  14  21
ENDBRANCH   8  11
ENDBRANCH   4   7
BRANCH   1  23
HETATM   23  C   UNK N   1      22.347  20.112   2.762  0.00  0.00     0.251 C 
HETATM   24  O   UNK N   1      22.294  20.805   1.756  0.00  0.00    -0.268 OA
HETATM   25  N   UNK N   1      21.227  19.596   3.315  0.00  0.00    -0.356 N 
HETATM   26  H   UNK N   1      21.341  19.047   4.124  0.00  0.00     0.162 HD
BRANCH  25  27
HETATM   27  C   UNK N   1      19.889  19.773   2.835  0.00  0.00     0.133 C 
BRANCH  27  28
HETATM   28  C   UNK N   1      19.324  18.368   2.703  0.00  0.00     0.129 C 
BRANCH  28  29
HETATM   29  C   UNK N   1      20.147  17.285   3.312  0.00  0.00     0.140 C 
HETATM   30  O   UNK N   1      19.950  16.910   4.457  0.00  0.00    -0.650 OA
BRANCH  29  31
HETATM   31  O   UNK N   1      21.123  16.717   2.581  0.00  0.00    -0.776 OA
HETATM   32  H   UNK N   1      21.613  17.233   1.971  0.00  0.00     0.167 HD
ENDBRANCH  29  31
ENDBRANCH  28  29
ENDBRANCH  27  28
ENDBRANCH  25  27
ENDBRANCH   1  23
TORSDOF 10
ENDMDL
