REMARK  5 active torsions:
REMARK  status: ('A' for Active; 'I' for Inactive)
REMARK    1  A    between atoms: C_1  and  N_7 
REMARK    2  A    between atoms: N_7  and  C_10 
REMARK    3  A    between atoms: C_12  and  C_17 
REMARK    4  A    between atoms: C_17  and  C_18 
REMARK    5  A    between atoms: C_18  and  O_20 
ROOT
HETATM    1  C   UNK N   1      -1.518   1.055   0.165  0.00  0.00     0.039 A 
HETATM    2  C   UNK N   1      -2.719   0.591   0.713  0.00  0.00     0.030 A 
HETATM    3  C   UNK N   1      -1.458   2.363  -0.352  0.00  0.00    -0.021 A 
HETATM    4  C   UNK N   1      -2.614   3.157  -0.376  0.00  0.00     0.016 A 
HETATM    5  C   UNK N   1      -3.814   2.669   0.136  0.00  0.00    -0.061 A 
HETATM    6  C   UNK N   1      -3.865   1.392   0.695  0.00  0.00     0.009 A 
HETATM    7  C   UNK N   1      -5.039   3.509   0.079  0.00  0.00     0.048 C 
ENDROOT
BRANCH   1   8
HETATM    8  N   UNK N   1      -0.338   0.246   0.112  0.00  0.00    -0.352 N 
HETATM    9  H   UNK N   1       0.501   0.759   0.143  0.00  0.00     0.166 HD
BRANCH   8  10
HETATM   10  C   UNK N   1      -0.152  -1.167   0.022  0.00  0.00     0.093 A 
HETATM   11  C   UNK N   1      -1.204  -2.120  -0.117  0.00  0.00     0.144 A 
HETATM   12  C   UNK N   1      -0.908  -3.476  -0.260  0.00  0.00     0.045 A 
HETATM   13  F   UNK N   1      -2.507  -1.771  -0.155  0.00  0.00    -0.204 F 
HETATM   14  C   UNK N   1       0.412  -3.920  -0.275  0.00  0.00     0.005 A 
HETATM   15  C   UNK N   1       1.451  -3.003  -0.149  0.00  0.00     0.026 A 
HETATM   16  C   UNK N   1       1.178  -1.644  -0.001  0.00  0.00     0.063 A 
HETATM   17 Cl   UNK N   1       2.531  -0.528   0.123  0.00  0.00    -0.082 Cl
ENDBRANCH   8  10
ENDBRANCH   1   8
BRANCH   3  18
HETATM   18  C   UNK N   1      -0.177   2.897  -0.923  0.00  0.00     0.150 C 
BRANCH  18  19
HETATM   19  C   UNK N   1       0.278   4.142  -0.223  0.00  0.00     0.143 C 
HETATM   20  O   UNK N   1      -0.358   5.178  -0.339  0.00  0.00    -0.650 OA
BRANCH  19  21
HETATM   21  O   UNK N   1       1.406   4.128   0.510  0.00  0.00    -0.776 OA
HETATM   22  H   UNK N   1       1.790   3.443   1.020  0.00  0.00     0.167 HD
ENDBRANCH  19  21
ENDBRANCH  18  19
ENDBRANCH   3  18
TORSDOF 5
