MODEL 1
REMARK VINA RESULT:      -6.2      0.000      0.000
REMARK  12 active torsions:
REMARK  status: ('A' for Active; 'I' for Inactive)
REMARK    1  A    between atoms: C_9  and  O_1 
REMARK    2  A    between atoms: C_17  and  O_2 
REMARK    3  A    between atoms: O_3  and  C_23 
REMARK    4  A    between atoms: C_7  and  C_13 
REMARK    5  A    between atoms: C_14  and  C_16 
REMARK    6  A    between atoms: C_15  and  C_17 
REMARK    7  A    between atoms: C_16  and  C_18 
REMARK    8  A    between atoms: C_17  and  C_19 
REMARK    9  A    between atoms: C_18  and  C_20 
REMARK   10  A    between atoms: C_19  and  C_21 
REMARK   11  A    between atoms: C_20  and  C_23 
REMARK   12  A    between atoms: C_21  and  C_24 
ROOT
HETATM    1  C   UNK N   1      27.269  28.452  -6.134  0.00  0.00    -0.107 C 
HETATM    2  C   UNK N   1      27.861  28.031  -7.098  0.00  0.00    -0.111 C 
HETATM    3  C   UNK N   1      28.598  27.531  -8.261  0.00  0.00     0.112 C 
ENDROOT
BRANCH   1   4
HETATM    4  C   UNK N   1      26.530  28.861  -4.924  0.00  0.00     0.101 C 
BRANCH   4   5
HETATM    5  C   UNK N   1      25.577  27.749  -4.461  0.00  0.00     0.025 C 
HETATM    6  C   UNK N   1      24.805  27.172  -5.646  0.00  0.00     0.014 C 
BRANCH   5   7
HETATM    7  C   UNK N   1      26.347  26.714  -3.617  0.00  0.00     0.145 C 
BRANCH   7   8
HETATM    8  O   UNK N   1      26.063  26.881  -2.260  0.00  0.00    -0.391 OA
HETATM    9  H   UNK N   1      26.720  27.152  -1.599  0.00  0.00     0.210 HD
ENDBRANCH   7   8
BRANCH   7  10
HETATM   10  C   UNK N   1      26.368  25.239  -3.995  0.00  0.00     0.001 C 
HETATM   11  C   UNK N   1      27.366  24.560  -4.587  0.00  0.00    -0.021 C 
BRANCH  11  12
HETATM   12  C   UNK N   1      28.676  25.205  -4.911  0.00  0.00     0.041 C 
HETATM   13  C   UNK N   1      29.709  24.315  -5.578  0.00  0.00     0.004 C 
HETATM   14  C   UNK N   1      30.646  23.894  -4.453  0.00  0.00    -0.003 C 
HETATM   15  C   UNK N   1      29.121  23.029  -6.187  0.00  0.00     0.039 C 
HETATM   16  C   UNK N   1      30.614  24.995  -3.415  0.00  0.00     0.037 C 
HETATM   17  C   UNK N   1      30.082  22.592  -3.952  0.00  0.00     0.039 C 
HETATM   18  C   UNK N   1      29.341  25.796  -3.670  0.00  0.00     0.126 C 
HETATM   19  C   UNK N   1      29.637  22.010  -5.248  0.00  0.00    -0.083 C 
HETATM   20  C   UNK N   1      30.201  20.925  -5.775  0.00  0.00    -0.024 C 
BRANCH  18  21
HETATM   21  O   UNK N   1      29.701  27.118  -3.925  0.00  0.00    -0.395 OA
HETATM   22  H   UNK N   1      29.773  27.949  -3.430  0.00  0.00     0.210 HD
ENDBRANCH  18  21
BRANCH  20  23
HETATM   23  C   UNK N   1      31.311  20.223  -5.086  0.00  0.00     0.028 C 
BRANCH  23  24
HETATM   24  C   UNK N   1      32.553  20.817  -5.759  0.00  0.00     0.014 C 
BRANCH  24  25
HETATM   25  C   UNK N   1      33.501  21.575  -4.847  0.00  0.00     0.110 C 
BRANCH  25  26
HETATM   26  C   UNK N   1      34.050  20.729  -3.748  0.00  0.00     0.139 C 
HETATM   27  O   UNK N   1      34.998  19.986  -3.946  0.00  0.00    -0.650 OA
BRANCH  26  28
HETATM   28  O   UNK N   1      33.462  20.767  -2.541  0.00  0.00    -0.776 OA
HETATM   29  H   UNK N   1      33.181  20.061  -1.992  0.00  0.00     0.167 HD
ENDBRANCH  26  28
ENDBRANCH  25  26
ENDBRANCH  24  25
ENDBRANCH  23  24
ENDBRANCH  20  23
ENDBRANCH  11  12
ENDBRANCH   7  10
ENDBRANCH   5   7
ENDBRANCH   4   5
ENDBRANCH   1   4
TORSDOF 12
ENDMDL
MODEL 2
REMARK VINA RESULT:      -6.1      1.622      2.464
REMARK  12 active torsions:
REMARK  status: ('A' for Active; 'I' for Inactive)
REMARK    1  A    between atoms: C_9  and  O_1 
REMARK    2  A    between atoms: C_17  and  O_2 
REMARK    3  A    between atoms: O_3  and  C_23 
REMARK    4  A    between atoms: C_7  and  C_13 
REMARK    5  A    between atoms: C_14  and  C_16 
REMARK    6  A    between atoms: C_15  and  C_17 
REMARK    7  A    between atoms: C_16  and  C_18 
REMARK    8  A    between atoms: C_17  and  C_19 
REMARK    9  A    between atoms: C_18  and  C_20 
REMARK   10  A    between atoms: C_19  and  C_21 
REMARK   11  A    between atoms: C_20  and  C_23 
REMARK   12  A    between atoms: C_21  and  C_24 
ROOT
HETATM    1  C   UNK N   1      25.506  27.928  -4.695  0.00  0.00    -0.107 C 
HETATM    2  C   UNK N   1      26.199  28.594  -3.966  0.00  0.00    -0.111 C 
HETATM    3  C   UNK N   1      27.024  29.406  -3.068  0.00  0.00     0.112 C 
ENDROOT
BRANCH   1   4
HETATM    4  C   UNK N   1      24.727  27.028  -5.567  0.00  0.00     0.101 C 
BRANCH   4   5
HETATM    5  C   UNK N   1      25.628  26.367  -6.620  0.00  0.00     0.025 C 
HETATM    6  C   UNK N   1      26.811  27.272  -6.961  0.00  0.00     0.014 C 
BRANCH   5   7
HETATM    7  C   UNK N   1      26.005  24.943  -6.170  0.00  0.00     0.145 C 
BRANCH   7   8
HETATM    8  O   UNK N   1      26.959  24.395  -7.031  0.00  0.00    -0.391 OA
HETATM    9  H   UNK N   1      26.978  23.461  -7.294  0.00  0.00     0.210 HD
ENDBRANCH   7   8
BRANCH   7  10
HETATM   10  C   UNK N   1      26.336  24.630  -4.716  0.00  0.00     0.001 C 
HETATM   11  C   UNK N   1      27.523  24.768  -4.099  0.00  0.00    -0.021 C 
BRANCH  11  12
HETATM   12  C   UNK N   1      28.715  25.334  -4.801  0.00  0.00     0.041 C 
HETATM   13  C   UNK N   1      29.855  24.365  -5.061  0.00  0.00     0.004 C 
HETATM   14  C   UNK N   1      30.867  24.647  -3.958  0.00  0.00    -0.003 C 
HETATM   15  C   UNK N   1      29.452  22.885  -4.944  0.00  0.00     0.039 C 
HETATM   16  C   UNK N   1      30.694  26.097  -3.558  0.00  0.00     0.037 C 
HETATM   17  C   UNK N   1      30.512  23.683  -2.858  0.00  0.00     0.039 C 
HETATM   18  C   UNK N   1      29.311  26.519  -4.045  0.00  0.00     0.126 C 
HETATM   19  C   UNK N   1      30.132  22.506  -3.686  0.00  0.00    -0.083 C 
HETATM   20  C   UNK N   1      30.840  21.378  -3.691  0.00  0.00    -0.024 C 
BRANCH  18  21
HETATM   21  O   UNK N   1      29.466  27.593  -4.920  0.00  0.00    -0.395 OA
HETATM   22  H   UNK N   1      30.194  28.060  -5.359  0.00  0.00     0.210 HD
ENDBRANCH  18  21
BRANCH  20  23
HETATM   23  C   UNK N   1      32.055  21.228  -2.854  0.00  0.00     0.028 C 
BRANCH  23  24
HETATM   24  C   UNK N   1      33.186  21.454  -3.862  0.00  0.00     0.014 C 
BRANCH  24  25
HETATM   25  C   UNK N   1      34.322  20.446  -3.821  0.00  0.00     0.110 C 
BRANCH  25  26
HETATM   26  C   UNK N   1      33.950  19.130  -4.415  0.00  0.00     0.139 C 
HETATM   27  O   UNK N   1      33.970  18.962  -5.624  0.00  0.00    -0.650 OA
BRANCH  26  28
HETATM   28  O   UNK N   1      33.557  18.135  -3.603  0.00  0.00    -0.776 OA
HETATM   29  H   UNK N   1      32.877  17.500  -3.722  0.00  0.00     0.167 HD
ENDBRANCH  26  28
ENDBRANCH  25  26
ENDBRANCH  24  25
ENDBRANCH  23  24
ENDBRANCH  20  23
ENDBRANCH  11  12
ENDBRANCH   7  10
ENDBRANCH   5   7
ENDBRANCH   4   5
ENDBRANCH   1   4
TORSDOF 12
ENDMDL
MODEL 3
REMARK VINA RESULT:      -6.1     12.651     14.619
REMARK  12 active torsions:
REMARK  status: ('A' for Active; 'I' for Inactive)
REMARK    1  A    between atoms: C_9  and  O_1 
REMARK    2  A    between atoms: C_17  and  O_2 
REMARK    3  A    between atoms: O_3  and  C_23 
REMARK    4  A    between atoms: C_7  and  C_13 
REMARK    5  A    between atoms: C_14  and  C_16 
REMARK    6  A    between atoms: C_15  and  C_17 
REMARK    7  A    between atoms: C_16  and  C_18 
REMARK    8  A    between atoms: C_17  and  C_19 
REMARK    9  A    between atoms: C_18  and  C_20 
REMARK   10  A    between atoms: C_19  and  C_21 
REMARK   11  A    between atoms: C_20  and  C_23 
REMARK   12  A    between atoms: C_21  and  C_24 
ROOT
HETATM    1  C   UNK N   1      27.386  19.564   4.754  0.00  0.00    -0.107 C 
HETATM    2  C   UNK N   1      27.229  20.529   5.461  0.00  0.00    -0.111 C 
HETATM    3  C   UNK N   1      27.058  21.709   6.312  0.00  0.00     0.112 C 
ENDROOT
BRANCH   1   4
HETATM    4  C   UNK N   1      27.488  18.416   3.834  0.00  0.00     0.101 C 
BRANCH   4   5
HETATM    5  C   UNK N   1      26.400  17.374   4.130  0.00  0.00     0.025 C 
HETATM    6  C   UNK N   1      26.442  16.243   3.103  0.00  0.00     0.014 C 
BRANCH   5   7
HETATM    7  C   UNK N   1      26.491  16.923   5.601  0.00  0.00     0.145 C 
BRANCH   7   8
HETATM    8  O   UNK N   1      25.248  16.469   6.051  0.00  0.00    -0.391 OA
HETATM    9  H   UNK N   1      25.124  15.943   6.857  0.00  0.00     0.210 HD
ENDBRANCH   7   8
BRANCH   7  10
HETATM   10  C   UNK N   1      27.614  16.015   6.086  0.00  0.00     0.001 C 
HETATM   11  C   UNK N   1      28.668  16.353   6.849  0.00  0.00    -0.021 C 
BRANCH  11  12
HETATM   12  C   UNK N   1      28.838  17.737   7.390  0.00  0.00     0.041 C 
HETATM   13  C   UNK N   1      30.267  18.238   7.498  0.00  0.00     0.004 C 
HETATM   14  C   UNK N   1      30.639  18.047   8.963  0.00  0.00    -0.003 C 
HETATM   15  C   UNK N   1      31.274  17.428   6.662  0.00  0.00     0.039 C 
HETATM   16  C   UNK N   1      29.355  18.132   9.760  0.00  0.00     0.037 C 
HETATM   17  C   UNK N   1      31.281  16.687   9.020  0.00  0.00     0.039 C 
HETATM   18  C   UNK N   1      28.216  17.885   8.777  0.00  0.00     0.126 C 
HETATM   19  C   UNK N   1      32.014  16.714   7.724  0.00  0.00    -0.083 C 
HETATM   20  C   UNK N   1      33.344  16.728   7.657  0.00  0.00    -0.024 C 
BRANCH  18  21
HETATM   21  O   UNK N   1      27.379  19.000   8.790  0.00  0.00    -0.395 OA
HETATM   22  H   UNK N   1      27.299  19.841   8.313  0.00  0.00     0.210 HD
ENDBRANCH  18  21
BRANCH  20  23
HETATM   23  C   UNK N   1      34.178  16.708   8.883  0.00  0.00     0.028 C 
BRANCH  23  24
HETATM   24  C   UNK N   1      35.007  15.432   8.704  0.00  0.00     0.014 C 
BRANCH  24  25
HETATM   25  C   UNK N   1      35.136  14.548   9.932  0.00  0.00     0.110 C 
BRANCH  25  26
HETATM   26  C   UNK N   1      36.412  14.769  10.673  0.00  0.00     0.139 C 
HETATM   27  O   UNK N   1      36.972  13.845  11.241  0.00  0.00    -0.650 OA
BRANCH  26  28
HETATM   28  O   UNK N   1      36.922  16.009  10.738  0.00  0.00    -0.776 OA
HETATM   29  H   UNK N   1      36.542  16.825  10.476  0.00  0.00     0.167 HD
ENDBRANCH  26  28
ENDBRANCH  25  26
ENDBRANCH  24  25
ENDBRANCH  23  24
ENDBRANCH  20  23
ENDBRANCH  11  12
ENDBRANCH   7  10
ENDBRANCH   5   7
ENDBRANCH   4   5
ENDBRANCH   1   4
TORSDOF 12
ENDMDL
MODEL 4
REMARK VINA RESULT:      -6.1     14.266     18.455
REMARK  12 active torsions:
REMARK  status: ('A' for Active; 'I' for Inactive)
REMARK    1  A    between atoms: C_9  and  O_1 
REMARK    2  A    between atoms: C_17  and  O_2 
REMARK    3  A    between atoms: O_3  and  C_23 
REMARK    4  A    between atoms: C_7  and  C_13 
REMARK    5  A    between atoms: C_14  and  C_16 
REMARK    6  A    between atoms: C_15  and  C_17 
REMARK    7  A    between atoms: C_16  and  C_18 
REMARK    8  A    between atoms: C_17  and  C_19 
REMARK    9  A    between atoms: C_18  and  C_20 
REMARK   10  A    between atoms: C_19  and  C_21 
REMARK   11  A    between atoms: C_20  and  C_23 
REMARK   12  A    between atoms: C_21  and  C_24 
ROOT
HETATM    1  C   UNK N   1      36.047  12.832  13.057  0.00  0.00    -0.107 C 
HETATM    2  C   UNK N   1      36.372  13.338  14.104  0.00  0.00    -0.111 C 
HETATM    3  C   UNK N   1      36.785  13.942  15.373  0.00  0.00     0.112 C 
ENDROOT
BRANCH   1   4
HETATM    4  C   UNK N   1      35.640  12.317  11.736  0.00  0.00     0.101 C 
BRANCH   4   5
HETATM    5  C   UNK N   1      35.615  13.441  10.691  0.00  0.00     0.025 C 
HETATM    6  C   UNK N   1      37.032  13.929  10.391  0.00  0.00     0.014 C 
BRANCH   5   7
HETATM    7  C   UNK N   1      34.805  12.995   9.458  0.00  0.00     0.145 C 
BRANCH   7   8
HETATM    8  O   UNK N   1      33.453  12.863   9.784  0.00  0.00    -0.391 OA
HETATM    9  H   UNK N   1      32.900  12.115   9.509  0.00  0.00     0.210 HD
ENDBRANCH   7   8
BRANCH   7  10
HETATM   10  C   UNK N   1      34.979  13.672   8.105  0.00  0.00     0.001 C 
HETATM   11  C   UNK N   1      34.666  14.938   7.777  0.00  0.00    -0.021 C 
BRANCH  11  12
HETATM   12  C   UNK N   1      34.130  15.904   8.785  0.00  0.00     0.041 C 
HETATM   13  C   UNK N   1      32.652  16.230   8.672  0.00  0.00     0.004 C 
HETATM   14  C   UNK N   1      32.602  17.570   7.949  0.00  0.00    -0.003 C 
HETATM   15  C   UNK N   1      31.856  15.223   7.824  0.00  0.00     0.039 C 
HETATM   16  C   UNK N   1      33.891  18.295   8.270  0.00  0.00     0.037 C 
HETATM   17  C   UNK N   1      32.470  17.214   6.493  0.00  0.00     0.039 C 
HETATM   18  C   UNK N   1      34.877  17.236   8.750  0.00  0.00     0.126 C 
HETATM   19  C   UNK N   1      31.575  16.031   6.617  0.00  0.00    -0.083 C 
HETATM   20  C   UNK N   1      30.324  16.030   6.159  0.00  0.00    -0.024 C 
BRANCH  18  21
HETATM   21  O   UNK N   1      35.282  17.570  10.041  0.00  0.00    -0.395 OA
HETATM   22  H   UNK N   1      35.478  17.110  10.872  0.00  0.00     0.210 HD
ENDBRANCH  18  21
BRANCH  20  23
HETATM   23  C   UNK N   1      29.750  17.220   5.485  0.00  0.00     0.028 C 
BRANCH  23  24
HETATM   24  C   UNK N   1      28.579  17.592   6.401  0.00  0.00     0.014 C 
BRANCH  24  25
HETATM   25  C   UNK N   1      28.911  18.519   7.557  0.00  0.00     0.110 C 
BRANCH  25  26
HETATM   26  C   UNK N   1      28.569  17.934   8.885  0.00  0.00     0.139 C 
HETATM   27  O   UNK N   1      29.348  17.190   9.460  0.00  0.00    -0.650 OA
BRANCH  26  28
HETATM   28  O   UNK N   1      27.372  18.209   9.430  0.00  0.00    -0.776 OA
HETATM   29  H   UNK N   1      26.600  17.679   9.472  0.00  0.00     0.167 HD
ENDBRANCH  26  28
ENDBRANCH  25  26
ENDBRANCH  24  25
ENDBRANCH  23  24
ENDBRANCH  20  23
ENDBRANCH  11  12
ENDBRANCH   7  10
ENDBRANCH   5   7
ENDBRANCH   4   5
ENDBRANCH   1   4
TORSDOF 12
ENDMDL
MODEL 5
REMARK VINA RESULT:      -6.0      1.896      2.984
REMARK  12 active torsions:
REMARK  status: ('A' for Active; 'I' for Inactive)
REMARK    1  A    between atoms: C_9  and  O_1 
REMARK    2  A    between atoms: C_17  and  O_2 
REMARK    3  A    between atoms: O_3  and  C_23 
REMARK    4  A    between atoms: C_7  and  C_13 
REMARK    5  A    between atoms: C_14  and  C_16 
REMARK    6  A    between atoms: C_15  and  C_17 
REMARK    7  A    between atoms: C_16  and  C_18 
REMARK    8  A    between atoms: C_17  and  C_19 
REMARK    9  A    between atoms: C_18  and  C_20 
REMARK   10  A    between atoms: C_19  and  C_21 
REMARK   11  A    between atoms: C_20  and  C_23 
REMARK   12  A    between atoms: C_21  and  C_24 
ROOT
HETATM    1  C   UNK N   1      25.515  27.767  -4.909  0.00  0.00    -0.107 C 
HETATM    2  C   UNK N   1      26.158  28.345  -4.067  0.00  0.00    -0.111 C 
HETATM    3  C   UNK N   1      26.920  29.047  -3.031  0.00  0.00     0.112 C 
ENDROOT
BRANCH   1   4
HETATM    4  C   UNK N   1      24.801  26.976  -5.929  0.00  0.00     0.101 C 
BRANCH   4   5
HETATM    5  C   UNK N   1      25.760  26.024  -6.657  0.00  0.00     0.025 C 
HETATM    6  C   UNK N   1      26.961  26.788  -7.212  0.00  0.00     0.014 C 
BRANCH   5   7
HETATM    7  C   UNK N   1      26.111  24.832  -5.744  0.00  0.00     0.145 C 
BRANCH   7   8
HETATM    8  O   UNK N   1      24.962  24.102  -5.430  0.00  0.00    -0.391 OA
HETATM    9  H   UNK N   1      24.116  24.200  -5.894  0.00  0.00     0.210 HD
ENDBRANCH   7   8
BRANCH   7  10
HETATM   10  C   UNK N   1      27.279  23.906  -6.060  0.00  0.00     0.001 C 
HETATM   11  C   UNK N   1      28.370  23.679  -5.308  0.00  0.00    -0.021 C 
BRANCH  11  12
HETATM   12  C   UNK N   1      28.544  24.307  -3.962  0.00  0.00     0.041 C 
HETATM   13  C   UNK N   1      29.938  24.226  -3.367  0.00  0.00     0.004 C 
HETATM   14  C   UNK N   1      29.874  23.069  -2.378  0.00  0.00    -0.003 C 
HETATM   15  C   UNK N   1      31.034  23.889  -4.393  0.00  0.00     0.039 C 
HETATM   16  C   UNK N   1      28.441  22.973  -1.900  0.00  0.00     0.037 C 
HETATM   17  C   UNK N   1      30.315  21.866  -3.168  0.00  0.00     0.039 C 
HETATM   18  C   UNK N   1      27.590  23.712  -2.929  0.00  0.00     0.126 C 
HETATM   19  C   UNK N   1      31.371  22.503  -4.003  0.00  0.00    -0.083 C 
HETATM   20  C   UNK N   1      32.662  22.202  -3.874  0.00  0.00    -0.024 C 
BRANCH  18  21
HETATM   21  O   UNK N   1      26.916  24.743  -2.277  0.00  0.00    -0.395 OA
HETATM   22  H   UNK N   1      26.984  25.708  -2.200  0.00  0.00     0.210 HD
ENDBRANCH  18  21
BRANCH  20  23
HETATM   23  C   UNK N   1      33.123  21.196  -2.887  0.00  0.00     0.028 C 
BRANCH  23  24
HETATM   24  C   UNK N   1      34.010  20.277  -3.734  0.00  0.00     0.014 C 
BRANCH  24  25
HETATM   25  C   UNK N   1      34.638  20.911  -4.962  0.00  0.00     0.110 C 
BRANCH  25  26
HETATM   26  C   UNK N   1      36.117  21.061  -4.845  0.00  0.00     0.139 C 
HETATM   27  O   UNK N   1      36.646  21.210  -3.754  0.00  0.00    -0.650 OA
BRANCH  26  28
HETATM   28  O   UNK N   1      36.863  21.065  -5.962  0.00  0.00    -0.776 OA
HETATM   29  H   UNK N   1      37.195  20.344  -6.460  0.00  0.00     0.167 HD
ENDBRANCH  26  28
ENDBRANCH  25  26
ENDBRANCH  24  25
ENDBRANCH  23  24
ENDBRANCH  20  23
ENDBRANCH  11  12
ENDBRANCH   7  10
ENDBRANCH   5   7
ENDBRANCH   4   5
ENDBRANCH   1   4
TORSDOF 12
ENDMDL
MODEL 6
REMARK VINA RESULT:      -5.9     14.506     16.645
REMARK  12 active torsions:
REMARK  status: ('A' for Active; 'I' for Inactive)
REMARK    1  A    between atoms: C_9  and  O_1 
REMARK    2  A    between atoms: C_17  and  O_2 
REMARK    3  A    between atoms: O_3  and  C_23 
REMARK    4  A    between atoms: C_7  and  C_13 
REMARK    5  A    between atoms: C_14  and  C_16 
REMARK    6  A    between atoms: C_15  and  C_17 
REMARK    7  A    between atoms: C_16  and  C_18 
REMARK    8  A    between atoms: C_17  and  C_19 
REMARK    9  A    between atoms: C_18  and  C_20 
REMARK   10  A    between atoms: C_19  and  C_21 
REMARK   11  A    between atoms: C_20  and  C_23 
REMARK   12  A    between atoms: C_21  and  C_24 
ROOT
HETATM    1  C   UNK N   1      22.375  12.212  10.539  0.00  0.00    -0.107 C 
HETATM    2  C   UNK N   1      22.777  12.064  11.667  0.00  0.00    -0.111 C 
HETATM    3  C   UNK N   1      23.254  11.866  13.038  0.00  0.00     0.112 C 
ENDROOT
BRANCH   1   4
HETATM    4  C   UNK N   1      21.989  12.384   9.126  0.00  0.00     0.101 C 
BRANCH   4   5
HETATM    5  C   UNK N   1      22.305  13.806   8.638  0.00  0.00     0.025 C 
HETATM    6  C   UNK N   1      23.412  13.780   7.584  0.00  0.00     0.014 C 
BRANCH   5   7
HETATM    7  C   UNK N   1      21.007  14.514   8.203  0.00  0.00     0.145 C 
BRANCH   7   8
HETATM    8  O   UNK N   1      19.922  14.047   8.951  0.00  0.00    -0.391 OA
HETATM    9  H   UNK N   1      19.886  14.064   9.920  0.00  0.00     0.210 HD
ENDBRANCH   7   8
BRANCH   7  10
HETATM   10  C   UNK N   1      20.945  16.026   8.034  0.00  0.00     0.001 C 
HETATM   11  C   UNK N   1      20.896  16.719   6.883  0.00  0.00    -0.021 C 
BRANCH  11  12
HETATM   12  C   UNK N   1      20.834  16.037   5.554  0.00  0.00     0.041 C 
HETATM   13  C   UNK N   1      22.038  16.232   4.649  0.00  0.00     0.004 C 
HETATM   14  C   UNK N   1      21.616  17.317   3.667  0.00  0.00    -0.003 C 
HETATM   15  C   UNK N   1      23.290  16.742   5.383  0.00  0.00     0.039 C 
HETATM   16  C   UNK N   1      20.111  17.231   3.531  0.00  0.00     0.037 C 
HETATM   17  C   UNK N   1      22.081  18.603   4.295  0.00  0.00     0.039 C 
HETATM   18  C   UNK N   1      19.608  16.466   4.750  0.00  0.00     0.126 C 
HETATM   19  C   UNK N   1      23.365  18.132   4.882  0.00  0.00    -0.083 C 
HETATM   20  C   UNK N   1      24.549  18.562   4.449  0.00  0.00    -0.024 C 
BRANCH  18  21
HETATM   21  O   UNK N   1      18.929  15.333   4.305  0.00  0.00    -0.395 OA
HETATM   22  H   UNK N   1      18.323  15.097   3.585  0.00  0.00     0.210 HD
ENDBRANCH  18  21
BRANCH  20  23
HETATM   23  C   UNK N   1      24.654  19.552   3.351  0.00  0.00     0.028 C 
BRANCH  23  24
HETATM   24  C   UNK N   1      25.887  20.369   3.752  0.00  0.00     0.014 C 
BRANCH  24  25
HETATM   25  C   UNK N   1      26.027  20.673   5.233  0.00  0.00     0.110 C 
BRANCH  25  26
HETATM   26  C   UNK N   1      27.442  20.637   5.701  0.00  0.00     0.139 C 
HETATM   27  O   UNK N   1      27.911  21.562   6.345  0.00  0.00    -0.650 OA
BRANCH  26  28
HETATM   28  O   UNK N   1      28.212  19.587   5.372  0.00  0.00    -0.776 OA
HETATM   29  H   UNK N   1      28.040  18.886   4.773  0.00  0.00     0.167 HD
ENDBRANCH  26  28
ENDBRANCH  25  26
ENDBRANCH  24  25
ENDBRANCH  23  24
ENDBRANCH  20  23
ENDBRANCH  11  12
ENDBRANCH   7  10
ENDBRANCH   5   7
ENDBRANCH   4   5
ENDBRANCH   1   4
TORSDOF 12
ENDMDL
MODEL 7
REMARK VINA RESULT:      -5.9      2.621      3.224
REMARK  12 active torsions:
REMARK  status: ('A' for Active; 'I' for Inactive)
REMARK    1  A    between atoms: C_9  and  O_1 
REMARK    2  A    between atoms: C_17  and  O_2 
REMARK    3  A    between atoms: O_3  and  C_23 
REMARK    4  A    between atoms: C_7  and  C_13 
REMARK    5  A    between atoms: C_14  and  C_16 
REMARK    6  A    between atoms: C_15  and  C_17 
REMARK    7  A    between atoms: C_16  and  C_18 
REMARK    8  A    between atoms: C_17  and  C_19 
REMARK    9  A    between atoms: C_18  and  C_20 
REMARK   10  A    between atoms: C_19  and  C_21 
REMARK   11  A    between atoms: C_20  and  C_23 
REMARK   12  A    between atoms: C_21  and  C_24 
ROOT
HETATM    1  C   UNK N   1      25.738  26.493  -6.870  0.00  0.00    -0.107 C 
HETATM    2  C   UNK N   1      26.021  26.182  -8.002  0.00  0.00    -0.111 C 
HETATM    3  C   UNK N   1      26.359  25.785  -9.370  0.00  0.00     0.112 C 
ENDROOT
BRANCH   1   4
HETATM    4  C   UNK N   1      25.312  26.937  -5.530  0.00  0.00     0.101 C 
BRANCH   4   5
HETATM    5  C   UNK N   1      26.499  27.496  -4.733  0.00  0.00     0.025 C 
HETATM    6  C   UNK N   1      26.314  28.989  -4.465  0.00  0.00     0.014 C 
BRANCH   5   7
HETATM    7  C   UNK N   1      26.742  26.634  -3.478  0.00  0.00     0.145 C 
BRANCH   7   8
HETATM    8  O   UNK N   1      25.972  27.100  -2.409  0.00  0.00    -0.391 OA
HETATM    9  H   UNK N   1      25.721  26.556  -1.646  0.00  0.00     0.210 HD
ENDBRANCH   7   8
BRANCH   7  10
HETATM   10  C   UNK N   1      26.725  25.112  -3.543  0.00  0.00     0.001 C 
HETATM   11  C   UNK N   1      27.699  24.302  -3.993  0.00  0.00    -0.021 C 
BRANCH  11  12
HETATM   12  C   UNK N   1      29.018  24.835  -4.455  0.00  0.00     0.041 C 
HETATM   13  C   UNK N   1      29.606  24.174  -5.690  0.00  0.00     0.004 C 
HETATM   14  C   UNK N   1      30.640  23.193  -5.152  0.00  0.00    -0.003 C 
HETATM   15  C   UNK N   1      28.585  23.361  -6.505  0.00  0.00     0.039 C 
HETATM   16  C   UNK N   1      31.132  23.747  -3.832  0.00  0.00     0.037 C 
HETATM   17  C   UNK N   1      29.895  21.893  -5.008  0.00  0.00     0.039 C 
HETATM   18  C   UNK N   1      30.081  24.749  -3.363  0.00  0.00     0.126 C 
HETATM   19  C   UNK N   1      29.028  21.980  -6.215  0.00  0.00    -0.083 C 
HETATM   20  C   UNK N   1      29.158  21.151  -7.248  0.00  0.00    -0.024 C 
BRANCH  18  21
HETATM   21  O   UNK N   1      30.697  25.991  -3.220  0.00  0.00    -0.395 OA
HETATM   22  H   UNK N   1      31.540  26.339  -2.890  0.00  0.00     0.210 HD
ENDBRANCH  18  21
BRANCH  20  23
HETATM   23  C   UNK N   1      30.181  20.077  -7.250  0.00  0.00     0.028 C 
BRANCH  23  24
HETATM   24  C   UNK N   1      29.509  18.974  -8.075  0.00  0.00     0.014 C 
BRANCH  24  25
HETATM   25  C   UNK N   1      30.152  18.664  -9.415  0.00  0.00     0.110 C 
BRANCH  25  26
HETATM   26  C   UNK N   1      31.368  17.810  -9.289  0.00  0.00     0.139 C 
HETATM   27  O   UNK N   1      32.471  18.311  -9.133  0.00  0.00    -0.650 OA
BRANCH  26  28
HETATM   28  O   UNK N   1      31.242  16.476  -9.387  0.00  0.00    -0.776 OA
HETATM   29  H   UNK N   1      30.524  15.926  -9.142  0.00  0.00     0.167 HD
ENDBRANCH  26  28
ENDBRANCH  25  26
ENDBRANCH  24  25
ENDBRANCH  23  24
ENDBRANCH  20  23
ENDBRANCH  11  12
ENDBRANCH   7  10
ENDBRANCH   5   7
ENDBRANCH   4   5
ENDBRANCH   1   4
TORSDOF 12
ENDMDL
MODEL 8
REMARK VINA RESULT:      -5.9     12.286     15.594
REMARK  12 active torsions:
REMARK  status: ('A' for Active; 'I' for Inactive)
REMARK    1  A    between atoms: C_9  and  O_1 
REMARK    2  A    between atoms: C_17  and  O_2 
REMARK    3  A    between atoms: O_3  and  C_23 
REMARK    4  A    between atoms: C_7  and  C_13 
REMARK    5  A    between atoms: C_14  and  C_16 
REMARK    6  A    between atoms: C_15  and  C_17 
REMARK    7  A    between atoms: C_16  and  C_18 
REMARK    8  A    between atoms: C_17  and  C_19 
REMARK    9  A    between atoms: C_18  and  C_20 
REMARK   10  A    between atoms: C_19  and  C_21 
REMARK   11  A    between atoms: C_20  and  C_23 
REMARK   12  A    between atoms: C_21  and  C_24 
ROOT
HETATM    1  C   UNK N   1      32.480  14.366   6.863  0.00  0.00    -0.107 C 
HETATM    2  C   UNK N   1      31.714  14.177   5.950  0.00  0.00    -0.111 C 
HETATM    3  C   UNK N   1      30.777  13.968   4.843  0.00  0.00     0.112 C 
ENDROOT
BRANCH   1   4
HETATM    4  C   UNK N   1      33.500  14.566   7.910  0.00  0.00     0.101 C 
BRANCH   4   5
HETATM    5  C   UNK N   1      34.118  15.969   7.816  0.00  0.00     0.025 C 
HETATM    6  C   UNK N   1      34.123  16.459   6.368  0.00  0.00     0.014 C 
BRANCH   5   7
HETATM    7  C   UNK N   1      33.433  16.914   8.822  0.00  0.00     0.145 C 
BRANCH   7   8
HETATM    8  O   UNK N   1      34.286  17.186   9.895  0.00  0.00    -0.391 OA
HETATM    9  H   UNK N   1      34.556  16.525  10.552  0.00  0.00     0.210 HD
ENDBRANCH   7   8
BRANCH   7  10
HETATM   10  C   UNK N   1      32.711  18.174   8.363  0.00  0.00     0.001 C 
HETATM   11  C   UNK N   1      31.386  18.351   8.219  0.00  0.00    -0.021 C 
BRANCH  11  12
HETATM   12  C   UNK N   1      30.404  17.279   8.570  0.00  0.00     0.041 C 
HETATM   13  C   UNK N   1      29.465  16.847   7.457  0.00  0.00     0.004 C 
HETATM   14  C   UNK N   1      28.161  17.582   7.740  0.00  0.00    -0.003 C 
HETATM   15  C   UNK N   1      29.932  17.268   6.052  0.00  0.00     0.039 C 
HETATM   16  C   UNK N   1      28.099  17.817   9.234  0.00  0.00     0.037 C 
HETATM   17  C   UNK N   1      28.260  18.855   6.944  0.00  0.00     0.039 C 
HETATM   18  C   UNK N   1      29.526  17.677   9.754  0.00  0.00     0.126 C 
HETATM   19  C   UNK N   1      28.951  18.329   5.735  0.00  0.00    -0.083 C 
HETATM   20  C   UNK N   1      28.365  18.280   4.541  0.00  0.00    -0.024 C 
BRANCH  18  21
HETATM   21  O   UNK N   1      29.546  16.659  10.705  0.00  0.00    -0.395 OA
HETATM   22  H   UNK N   1      28.974  16.332  11.418  0.00  0.00     0.210 HD
ENDBRANCH  18  21
BRANCH  20  23
HETATM   23  C   UNK N   1      26.976  18.762   4.345  0.00  0.00     0.028 C 
BRANCH  23  24
HETATM   24  C   UNK N   1      26.213  17.470   4.036  0.00  0.00     0.014 C 
BRANCH  24  25
HETATM   25  C   UNK N   1      25.574  16.778   5.227  0.00  0.00     0.110 C 
BRANCH  25  26
HETATM   26  C   UNK N   1      26.083  15.391   5.433  0.00  0.00     0.139 C 
HETATM   27  O   UNK N   1      27.235  15.100   5.149  0.00  0.00    -0.650 OA
BRANCH  26  28
HETATM   28  O   UNK N   1      25.246  14.453   5.903  0.00  0.00    -0.776 OA
HETATM   29  H   UNK N   1      24.896  14.344   6.766  0.00  0.00     0.167 HD
ENDBRANCH  26  28
ENDBRANCH  25  26
ENDBRANCH  24  25
ENDBRANCH  23  24
ENDBRANCH  20  23
ENDBRANCH  11  12
ENDBRANCH   7  10
ENDBRANCH   5   7
ENDBRANCH   4   5
ENDBRANCH   1   4
TORSDOF 12
ENDMDL
MODEL 9
REMARK VINA RESULT:      -5.9      2.672      4.503
REMARK  12 active torsions:
REMARK  status: ('A' for Active; 'I' for Inactive)
REMARK    1  A    between atoms: C_9  and  O_1 
REMARK    2  A    between atoms: C_17  and  O_2 
REMARK    3  A    between atoms: O_3  and  C_23 
REMARK    4  A    between atoms: C_7  and  C_13 
REMARK    5  A    between atoms: C_14  and  C_16 
REMARK    6  A    between atoms: C_15  and  C_17 
REMARK    7  A    between atoms: C_16  and  C_18 
REMARK    8  A    between atoms: C_17  and  C_19 
REMARK    9  A    between atoms: C_18  and  C_20 
REMARK   10  A    between atoms: C_19  and  C_21 
REMARK   11  A    between atoms: C_20  and  C_23 
REMARK   12  A    between atoms: C_21  and  C_24 
ROOT
HETATM    1  C   UNK N   1      27.967  20.396  -8.212  0.00  0.00    -0.107 C 
HETATM    2  C   UNK N   1      29.016  19.891  -7.894  0.00  0.00    -0.111 C 
HETATM    3  C   UNK N   1      30.299  19.297  -7.511  0.00  0.00     0.112 C 
ENDROOT
BRANCH   1   4
HETATM    4  C   UNK N   1      26.647  20.991  -8.499  0.00  0.00     0.101 C 
BRANCH   4   5
HETATM    5  C   UNK N   1      26.776  22.486  -8.821  0.00  0.00     0.025 C 
HETATM    6  C   UNK N   1      26.551  22.737 -10.312  0.00  0.00     0.014 C 
BRANCH   5   7
HETATM    7  C   UNK N   1      25.875  23.307  -7.878  0.00  0.00     0.145 C 
BRANCH   7   8
HETATM    8  O   UNK N   1      24.571  23.364  -8.376  0.00  0.00    -0.391 OA
HETATM    9  H   UNK N   1      24.332  23.780  -9.219  0.00  0.00     0.210 HD
ENDBRANCH   7   8
BRANCH   7  10
HETATM   10  C   UNK N   1      25.876  23.072  -6.373  0.00  0.00     0.001 C 
HETATM   11  C   UNK N   1      26.728  23.582  -5.466  0.00  0.00    -0.021 C 
BRANCH  11  12
HETATM   12  C   UNK N   1      27.804  24.546  -5.850  0.00  0.00     0.041 C 
HETATM   13  C   UNK N   1      29.228  24.032  -5.734  0.00  0.00     0.004 C 
HETATM   14  C   UNK N   1      29.741  24.598  -4.416  0.00  0.00    -0.003 C 
HETATM   15  C   UNK N   1      29.331  22.500  -5.644  0.00  0.00     0.039 C 
HETATM   16  C   UNK N   1      28.987  25.886  -4.163  0.00  0.00     0.037 C 
HETATM   17  C   UNK N   1      29.444  23.529  -3.399  0.00  0.00     0.039 C 
HETATM   18  C   UNK N   1      27.734  25.833  -5.031  0.00  0.00     0.126 C 
HETATM   19  C   UNK N   1      29.725  22.326  -4.229  0.00  0.00    -0.083 C 
HETATM   20  C   UNK N   1      30.743  21.506  -3.975  0.00  0.00    -0.024 C 
BRANCH  18  21
HETATM   21  O   UNK N   1      27.753  26.928  -5.892  0.00  0.00    -0.395 OA
HETATM   22  H   UNK N   1      28.292  27.249  -6.632  0.00  0.00     0.210 HD
ENDBRANCH  18  21
BRANCH  20  23
HETATM   23  C   UNK N   1      31.658  21.745  -2.833  0.00  0.00     0.028 C 
BRANCH  23  24
HETATM   24  C   UNK N   1      33.012  21.287  -3.386  0.00  0.00     0.014 C 
BRANCH  24  25
HETATM   25  C   UNK N   1      32.969  20.132  -4.370  0.00  0.00     0.110 C 
BRANCH  25  26
HETATM   26  C   UNK N   1      34.004  19.095  -4.093  0.00  0.00     0.139 C 
HETATM   27  O   UNK N   1      35.178  19.295  -4.366  0.00  0.00    -0.650 OA
BRANCH  26  28
HETATM   28  O   UNK N   1      33.624  17.918  -3.569  0.00  0.00    -0.776 OA
HETATM   29  H   UNK N   1      34.080  17.355  -2.975  0.00  0.00     0.167 HD
ENDBRANCH  26  28
ENDBRANCH  25  26
ENDBRANCH  24  25
ENDBRANCH  23  24
ENDBRANCH  20  23
ENDBRANCH  11  12
ENDBRANCH   7  10
ENDBRANCH   5   7
ENDBRANCH   4   5
ENDBRANCH   1   4
TORSDOF 12
ENDMDL
