MODEL 1
REMARK VINA RESULT:      -8.3      0.000      0.000
REMARK  28 active torsions:
REMARK  status: ('A' for Active; 'I' for Inactive)
REMARK    1  A    between atoms: C_21  and  C_6 
REMARK    2  A    between atoms: C_34  and  C_7 
REMARK    3  A    between atoms: C_58  and  C_9 
REMARK    4  A    between atoms: S_15  and  O_35 
REMARK    5  A    between atoms: O_61  and  S_15 
REMARK    6  A    between atoms: C_37  and  C_21 
REMARK    7  A    between atoms: C_21  and  O_70 
REMARK    8  A    between atoms: C_49  and  C_24 
REMARK    9  A    between atoms: C_25  and  C_52 
REMARK   10  A    between atoms: C_27  and  O_72 
REMARK   11  A    between atoms: N_33  and  C_28 
REMARK   12  A    between atoms: O_35  and  C_29 
REMARK       I    between atoms: C_30  and  N_33 
REMARK   13  A    between atoms: C_50  and  C_30 
REMARK   14  A    between atoms: C_31  and  O_73 
REMARK   15  A    between atoms: C_36  and  C_34 
REMARK   16  A    between atoms: C_34  and  O_75 
REMARK   17  A    between atoms: C_44  and  C_36 
REMARK   18  A    between atoms: C_38  and  C_37 
REMARK   19  A    between atoms: C_37  and  O_74 
REMARK   20  A    between atoms: C_43  and  O_77 
REMARK       I    between atoms: N_71  and  C_44 
REMARK   21  A    between atoms: O_80  and  C_53 
REMARK   22  A    between atoms: C_58  and  O_82 
REMARK   23  A    between atoms: C_59  and  O_81 
REMARK   24  A    between atoms: O_84  and  C_76 
REMARK   25  A    between atoms: C_86  and  O_84 
REMARK   26  A    between atoms: C_87  and  C_86 
REMARK   27  A    between atoms: C_89  and  C_87 
REMARK   28  A    between atoms: C_88  and  C_89 
ROOT
HETATM    1  N   UNK N   1      32.823  12.190   0.830  0.00  0.00    -0.334 N 
HETATM    2  N   UNK N   1      36.780  13.926   7.874  0.00  0.00    -0.334 N 
HETATM    3  C   UNK N   1      33.821  12.328  -0.203  0.00  0.00     0.208 C 
HETATM    4  C   UNK N   1      33.045  12.600   2.117  0.00  0.00     0.246 C 
HETATM    5  C   UNK N   1      37.197  13.912   6.565  0.00  0.00     0.246 C 
HETATM    6  C   UNK N   1      33.127  15.469   5.598  0.00  0.00     0.208 C 
HETATM    7  C   UNK N   1      31.954  12.747   3.195  0.00  0.00     0.206 C 
HETATM    8  C   UNK N   1      35.013  11.454   0.038  0.00  0.00     0.245 C 
HETATM    9  C   UNK N   1      38.614  13.642   6.104  0.00  0.00     0.205 C 
HETATM   10  N   UNK N   1      32.515  13.376   4.394  0.00  0.00    -0.344 N 
HETATM   11  N   UNK N   1      34.187  15.209   6.556  0.00  0.00    -0.344 N 
HETATM   12  N   UNK N   1      38.561  12.309   5.593  0.00  0.00    -0.344 N 
HETATM   13  C   UNK N   1      33.042  14.640   4.365  0.00  0.00     0.243 C 
HETATM   14  N   UNK N   1      36.131  12.015   0.563  0.00  0.00    -0.331 N 
HETATM   15  C   UNK N   1      34.313  14.071   7.285  0.00  0.00     0.241 C 
HETATM   16  C   UNK N   1      35.407  13.943   8.304  0.00  0.00     0.181 C 
HETATM   17  C   UNK N   1      37.937  11.845   4.479  0.00  0.00     0.241 C 
HETATM   18  C   UNK N   1      31.543  11.788   0.313  0.00  0.00     0.134 C 
HETATM   19  C   UNK N   1      33.101  11.953  -1.484  0.00  0.00     0.155 C 
HETATM   20  C   UNK N   1      37.848  10.343   4.322  0.00  0.00     0.179 C 
HETATM   21  C   UNK N   1      37.276  11.263   1.037  0.00  0.00     0.249 C 
HETATM   22  C   UNK N   1      31.640  12.188  -1.145  0.00  0.00     0.031 C 
HETATM   23  C   UNK N   1      37.970   9.691   2.926  0.00  0.00     0.071 C 
HETATM   24  C   UNK N   1      37.653  13.993   9.003  0.00  0.00     0.158 C 
HETATM   25  C   UNK N   1      35.413  14.885   9.476  0.00  0.00     0.068 C 
HETATM   26  C   UNK N   1      36.863  10.106   1.964  0.00  0.00     0.169 C 
HETATM   27  O   UNK N   1      36.374  14.010   5.671  0.00  0.00    -0.271 OA
HETATM   28  O   UNK N   1      34.196  12.913   2.428  0.00  0.00    -0.271 OA
HETATM   29  O   UNK N   1      34.924  10.242  -0.106  0.00  0.00    -0.271 OA
HETATM   30  O   UNK N   1      33.239  15.204   3.299  0.00  0.00    -0.271 OA
HETATM   31  O   UNK N   1      33.554  13.129   7.112  0.00  0.00    -0.271 OA
HETATM   32  O   UNK N   1      37.432  12.607   3.672  0.00  0.00    -0.271 OA
HETATM   33  C   UNK N   1      36.777  14.578  10.115  0.00  0.00     0.138 C 
HETATM   34  C   UNK N   1      30.713  11.371  -2.020  0.00  0.00     0.014 C 
HETATM   35  H   UNK N   1      32.511  12.877   5.243  0.00  0.00     0.163 HD
HETATM   36  H   UNK N   1      34.865  15.911   6.687  0.00  0.00     0.163 HD
HETATM   37  H   UNK N   1      39.043  11.633   6.121  0.00  0.00     0.163 HD
HETATM   38  H   UNK N   1      36.168  12.998   0.627  0.00  0.00     0.165 HD
ENDROOT
BRANCH  20  39
HETATM   39  N   UNK N   1      38.677   9.718   5.340  0.00  0.00    -0.344 N 
HETATM   40  C   UNK N   1      38.204   9.068   6.451  0.00  0.00     0.252 C 
HETATM   41  O   UNK N   1      38.997   8.427   7.126  0.00  0.00    -0.268 OA
HETATM   42  H   UNK N   1      39.653   9.765   5.223  0.00  0.00     0.163 HD
BRANCH  40  43
HETATM   43  C   UNK N   1      36.794   9.207   6.945  0.00  0.00     0.032 C 
HETATM   44  C   UNK N   1      36.514  10.352   7.701  0.00  0.00     0.018 C 
HETATM   45  C   UNK N   1      36.058  10.233   9.001  0.00  0.00     0.015 C 
HETATM   46  C   UNK N   1      35.743   8.971   9.463  0.00  0.00    -0.007 C 
HETATM   47  C   UNK N   1      35.653   7.896   8.547  0.00  0.00     0.015 C 
HETATM   48  C   UNK N   1      36.180   8.013   7.285  0.00  0.00     0.018 C 
BRANCH  46  49
HETATM   49  C   UNK N   1      36.163   8.585  10.811  0.00  0.00     0.068 A 
HETATM   50  N   UNK N   1      37.390   8.862  11.274  0.00  0.00    -0.260 N 
HETATM   51  O   UNK N   1      37.243   9.356  12.471  0.00  0.00    -0.237 OA
ATOM     52  HN  UNK N   1      38.272   8.716  10.784  1.00  0.00     0.195 HD
HETATM   53  C   UNK N   1      35.970   9.429  12.793  0.00  0.00     0.111 A 
HETATM   54  C   UNK N   1      35.245   8.884  11.788  0.00  0.00     0.072 A 
BRANCH  53  55
HETATM   55  C   UNK N   1      35.416  10.629  13.446  0.00  0.00    -0.000 A 
HETATM   56  C   UNK N   1      34.148  10.587  14.031  0.00  0.00     0.017 A 
HETATM   57  C   UNK N   1      33.803  11.518  15.019  0.00  0.00     0.037 A 
HETATM   58  C   UNK N   1      34.745  12.451  15.479  0.00  0.00     0.068 A 
HETATM   59  C   UNK N   1      36.000  12.517  14.865  0.00  0.00     0.037 A 
HETATM   60  C   UNK N   1      36.328  11.623  13.858  0.00  0.00     0.017 A 
BRANCH  58  61
HETATM   61  O   UNK N   1      34.444  13.232  16.547  0.00  0.00    -0.351 OA
BRANCH  61  62
HETATM   62  C   UNK N   1      35.351  13.534  17.550  0.00  0.00     0.175 C 
BRANCH  62  63
HETATM   63  C   UNK N   1      34.944  12.980  18.908  0.00  0.00     0.027 C 
BRANCH  63  64
HETATM   64  C   UNK N   1      35.783  11.753  19.232  0.00  0.00     0.002 C 
BRANCH  64  65
HETATM   65  C   UNK N   1      35.202  10.520  18.563  0.00  0.00    -0.004 C 
HETATM   66  C   UNK N   1      36.223   9.918  17.618  0.00  0.00     0.005 C 
ENDBRANCH  64  65
ENDBRANCH  63  64
ENDBRANCH  62  63
ENDBRANCH  61  62
ENDBRANCH  58  61
ENDBRANCH  53  55
ENDBRANCH  46  49
ENDBRANCH  40  43
ENDBRANCH  20  39
BRANCH  26  67
HETATM   67  O   UNK N   1      35.693  10.388   2.678  0.00  0.00    -0.391 OA
HETATM   68  H   UNK N   1      35.657  10.478   3.642  0.00  0.00     0.210 HD
ENDBRANCH  26  67
BRANCH   9  69
HETATM   69  C   UNK N   1      39.826  13.668   7.057  0.00  0.00     0.146 C 
HETATM   70  C   UNK N   1      40.537  12.340   7.210  0.00  0.00     0.042 C 
BRANCH  69  71
HETATM   71  O   UNK N   1      40.716  14.718   6.805  0.00  0.00    -0.393 OA
HETATM   72  H   UNK N   1      41.052  15.466   6.286  0.00  0.00     0.210 HD
ENDBRANCH  69  71
ENDBRANCH   9  69
BRANCH  21  73
HETATM   73  O   UNK N   1      38.026  10.788  -0.041  0.00  0.00    -0.374 OA
HETATM   74  H   UNK N   1      38.723  10.124   0.080  0.00  0.00     0.212 HD
ENDBRANCH  21  73
BRANCH  33  75
HETATM   75  O   UNK N   1      37.350  15.757  10.587  0.00  0.00    -0.394 OA
HETATM   76  H   UNK N   1      38.129  16.316  10.441  0.00  0.00     0.210 HD
ENDBRANCH  33  75
BRANCH  19  77
HETATM   77  O   UNK N   1      33.508  12.768  -2.540  0.00  0.00    -0.393 OA
HETATM   78  H   UNK N   1      34.091  13.407  -2.980  0.00  0.00     0.210 HD
ENDBRANCH  19  77
BRANCH   6  79
HETATM   79  C   UNK N   1      31.760  15.690   6.218  0.00  0.00     0.183 C 
BRANCH  79  80
HETATM   80  C   UNK N   1      31.949  16.600   7.419  0.00  0.00     0.182 C 
BRANCH  80  81
HETATM   81  C   UNK N   1      30.768  17.473   7.609  0.00  0.00    -0.024 A 
HETATM   82  C   UNK N   1      29.850  17.691   6.580  0.00  0.00     0.051 A 
HETATM   83  C   UNK N   1      28.642  18.358   6.842  0.00  0.00     0.124 A 
HETATM   84  C   UNK N   1      28.363  18.770   8.153  0.00  0.00     0.100 A 
HETATM   85  C   UNK N   1      29.291  18.560   9.174  0.00  0.00     0.040 A 
HETATM   86  C   UNK N   1      30.490  17.911   8.902  0.00  0.00     0.013 A 
BRANCH  83  87
HETATM   87  O   UNK N   1      27.733  18.644   5.852  0.00  0.00    -0.218 OA
BRANCH  87  88
HETATM   88  S   UNK N   1      27.485  20.084   4.907  0.00  0.00     0.245 S 
HETATM   89  O   UNK N   1      26.480  19.806   3.779  0.00  0.00    -0.579 OA
HETATM   90  O   UNK N   1      26.140  19.966   5.637  0.00  0.00    -0.579 OA
BRANCH  88  91
HETATM   91  O   UNK N   1      28.023  18.806   3.886  0.00  0.00    -0.273 OA
HETATM   92  H   UNK N   1      27.711  17.917   3.657  0.00  0.00     0.234 HD
ENDBRANCH  88  91
ENDBRANCH  87  88
ENDBRANCH  83  87
BRANCH  84  93
HETATM   93  O   UNK N   1      27.209  19.397   8.432  0.00  0.00    -0.358 OA
HETATM   94  H   UNK N   1      26.357  19.263   8.067  0.00  0.00     0.217 HD
ENDBRANCH  84  93
ENDBRANCH  80  81
BRANCH  80  95
HETATM   95  O   UNK N   1      33.124  17.345   7.274  0.00  0.00    -0.388 OA
HETATM   96  H   UNK N   1      33.984  17.186   6.856  0.00  0.00     0.210 HD
ENDBRANCH  80  95
ENDBRANCH  79  80
BRANCH  79  97
HETATM   97  O   UNK N   1      31.162  14.470   6.563  0.00  0.00    -0.390 OA
HETATM   98  H   UNK N   1      30.681  13.952   7.227  0.00  0.00     0.210 HD
ENDBRANCH  79  97
ENDBRANCH   6  79
BRANCH   7  99
HETATM   99  C   UNK N   1      30.753  13.650   2.771  0.00  0.00     0.158 C 
BRANCH  99 100
HETATM  100  C   UNK N   1      29.412  12.959   2.621  0.00  0.00     0.137 C 
BRANCH 100 101
HETATM  101  C   UNK N   1      28.558  13.249   3.818  0.00  0.00     0.217 C 
HETATM  102  O   UNK N   1      27.577  13.969   3.719  0.00  0.00    -0.274 OA
HETATM  103  N   UNK N   1      28.871  12.708   5.010  0.00  0.00    -0.370 N 
HETATM  104  H   UNK N   1      29.096  11.754   5.090  0.00  0.00     0.159 HD
HETATM  105  H   UNK N   1      28.875  13.277   5.814  0.00  0.00     0.159 HD
ENDBRANCH 100 101
ENDBRANCH  99 100
BRANCH  99 106
HETATM  106  O   UNK N   1      30.556  14.683   3.695  0.00  0.00    -0.393 OA
HETATM  107  H   UNK N   1      30.535  15.609   3.407  0.00  0.00     0.210 HD
ENDBRANCH  99 106
ENDBRANCH   7  99
TORSDOF 28
ENDMDL
MODEL 2
REMARK VINA RESULT:      -8.1      5.259     10.870
REMARK  28 active torsions:
REMARK  status: ('A' for Active; 'I' for Inactive)
REMARK    1  A    between atoms: C_21  and  C_6 
REMARK    2  A    between atoms: C_34  and  C_7 
REMARK    3  A    between atoms: C_58  and  C_9 
REMARK    4  A    between atoms: S_15  and  O_35 
REMARK    5  A    between atoms: O_61  and  S_15 
REMARK    6  A    between atoms: C_37  and  C_21 
REMARK    7  A    between atoms: C_21  and  O_70 
REMARK    8  A    between atoms: C_49  and  C_24 
REMARK    9  A    between atoms: C_25  and  C_52 
REMARK   10  A    between atoms: C_27  and  O_72 
REMARK   11  A    between atoms: N_33  and  C_28 
REMARK   12  A    between atoms: O_35  and  C_29 
REMARK       I    between atoms: C_30  and  N_33 
REMARK   13  A    between atoms: C_50  and  C_30 
REMARK   14  A    between atoms: C_31  and  O_73 
REMARK   15  A    between atoms: C_36  and  C_34 
REMARK   16  A    between atoms: C_34  and  O_75 
REMARK   17  A    between atoms: C_44  and  C_36 
REMARK   18  A    between atoms: C_38  and  C_37 
REMARK   19  A    between atoms: C_37  and  O_74 
REMARK   20  A    between atoms: C_43  and  O_77 
REMARK       I    between atoms: N_71  and  C_44 
REMARK   21  A    between atoms: O_80  and  C_53 
REMARK   22  A    between atoms: C_58  and  O_82 
REMARK   23  A    between atoms: C_59  and  O_81 
REMARK   24  A    between atoms: O_84  and  C_76 
REMARK   25  A    between atoms: C_86  and  O_84 
REMARK   26  A    between atoms: C_87  and  C_86 
REMARK   27  A    between atoms: C_89  and  C_87 
REMARK   28  A    between atoms: C_88  and  C_89 
ROOT
HETATM    1  N   UNK N   1      24.614  15.413   4.816  0.00  0.00    -0.334 N 
HETATM    2  N   UNK N   1      31.653  12.102   2.028  0.00  0.00    -0.334 N 
HETATM    3  C   UNK N   1      23.818  15.649   3.636  0.00  0.00     0.208 C 
HETATM    4  C   UNK N   1      25.936  15.063   4.747  0.00  0.00     0.246 C 
HETATM    5  C   UNK N   1      30.529  12.553   1.379  0.00  0.00     0.246 C 
HETATM    6  C   UNK N   1      30.392  15.725   4.516  0.00  0.00     0.208 C 
HETATM    7  C   UNK N   1      26.912  15.071   5.938  0.00  0.00     0.206 C 
HETATM    8  C   UNK N   1      23.610  14.402   2.834  0.00  0.00     0.245 C 
HETATM    9  C   UNK N   1      30.028  12.040   0.044  0.00  0.00     0.205 C 
HETATM   10  N   UNK N   1      28.277  14.816   5.469  0.00  0.00    -0.344 N 
HETATM   11  N   UNK N   1      31.110  14.686   3.799  0.00  0.00    -0.344 N 
HETATM   12  N   UNK N   1      28.909  11.222   0.389  0.00  0.00    -0.344 N 
HETATM   13  C   UNK N   1      28.907  15.661   4.594  0.00  0.00     0.243 C 
HETATM   14  N   UNK N   1      24.373  14.207   1.729  0.00  0.00    -0.331 N 
HETATM   15  C   UNK N   1      31.161  13.381   4.167  0.00  0.00     0.241 C 
HETATM   16  C   UNK N   1      31.999  12.408   3.391  0.00  0.00     0.181 C 
HETATM   17  C   UNK N   1      27.699  11.591   0.885  0.00  0.00     0.241 C 
HETATM   18  C   UNK N   1      23.934  15.790   6.026  0.00  0.00     0.134 C 
HETATM   19  C   UNK N   1      22.508  16.203   4.161  0.00  0.00     0.155 C 
HETATM   20  C   UNK N   1      26.799  10.483   1.385  0.00  0.00     0.179 C 
HETATM   21  C   UNK N   1      24.425  12.967   0.981  0.00  0.00     0.249 C 
HETATM   22  C   UNK N   1      22.885  16.760   5.522  0.00  0.00     0.031 C 
HETATM   23  C   UNK N   1      25.268  10.565   1.184  0.00  0.00     0.071 C 
HETATM   24  C   UNK N   1      32.679  11.314   1.421  0.00  0.00     0.158 C 
HETATM   25  C   UNK N   1      33.487  12.619   3.340  0.00  0.00     0.068 C 
HETATM   26  C   UNK N   1      24.625  11.748   1.898  0.00  0.00     0.169 C 
HETATM   27  O   UNK N   1      29.789  13.345   1.938  0.00  0.00    -0.271 OA
HETATM   28  O   UNK N   1      26.390  14.757   3.642  0.00  0.00    -0.271 OA
HETATM   29  O   UNK N   1      22.867  13.522   3.249  0.00  0.00    -0.271 OA
HETATM   30  O   UNK N   1      28.281  16.545   4.027  0.00  0.00    -0.271 OA
HETATM   31  O   UNK N   1      30.516  12.973   5.122  0.00  0.00    -0.271 OA
HETATM   32  O   UNK N   1      27.380  12.766   0.966  0.00  0.00    -0.271 OA
HETATM   33  C   UNK N   1      33.913  11.582   2.288  0.00  0.00     0.138 C 
HETATM   34  C   UNK N   1      21.694  16.842   6.454  0.00  0.00     0.014 C 
HETATM   35  H   UNK N   1      28.754  14.018   5.793  0.00  0.00     0.163 HD
HETATM   36  H   UNK N   1      31.595  14.948   2.983  0.00  0.00     0.163 HD
HETATM   37  H   UNK N   1      29.032  10.255   0.247  0.00  0.00     0.163 HD
HETATM   38  H   UNK N   1      24.928  14.958   1.414  0.00  0.00     0.165 HD
ENDROOT
BRANCH  20  39
HETATM   39  N   UNK N   1      27.377   9.204   1.003  0.00  0.00    -0.344 N 
HETATM   40  C   UNK N   1      27.689   8.192   1.872  0.00  0.00     0.252 C 
HETATM   41  O   UNK N   1      27.992   7.103   1.404  0.00  0.00    -0.268 OA
HETATM   42  H   UNK N   1      27.558   9.055   0.047  0.00  0.00     0.163 HD
BRANCH  40  43
HETATM   43  C   UNK N   1      27.798   8.387   3.356  0.00  0.00     0.032 C 
HETATM   44  C   UNK N   1      27.871   7.222   4.129  0.00  0.00     0.018 C 
HETATM   45  C   UNK N   1      26.910   6.963   5.089  0.00  0.00     0.015 C 
HETATM   46  C   UNK N   1      25.985   7.951   5.362  0.00  0.00    -0.007 C 
HETATM   47  C   UNK N   1      26.190   9.256   4.855  0.00  0.00     0.015 C 
HETATM   48  C   UNK N   1      27.098   9.475   3.849  0.00  0.00     0.018 C 
BRANCH  46  49
HETATM   49  C   UNK N   1      24.580   7.579   5.528  0.00  0.00     0.068 A 
HETATM   50  N   UNK N   1      24.054   7.322   6.735  0.00  0.00    -0.260 N 
HETATM   51  O   UNK N   1      22.924   7.966   6.803  0.00  0.00    -0.237 OA
ATOM     52  HN  UNK N   1      24.462   6.735   7.462  1.00  0.00     0.195 HD
HETATM   53  C   UNK N   1      22.706   8.646   5.699  0.00  0.00     0.111 A 
HETATM   54  C   UNK N   1      23.706   8.375   4.828  0.00  0.00     0.072 A 
BRANCH  53  55
HETATM   55  C   UNK N   1      22.213  10.035   5.743  0.00  0.00    -0.000 A 
HETATM   56  C   UNK N   1      20.869  10.311   5.479  0.00  0.00     0.017 A 
HETATM   57  C   UNK N   1      20.293  11.498   5.949  0.00  0.00     0.037 A 
HETATM   58  C   UNK N   1      21.037  12.384   6.745  0.00  0.00     0.068 A 
HETATM   59  C   UNK N   1      22.392  12.125   6.975  0.00  0.00     0.037 A 
HETATM   60  C   UNK N   1      22.973  10.971   6.475  0.00  0.00     0.017 A 
BRANCH  58  61
HETATM   61  O   UNK N   1      20.416  13.441   7.324  0.00  0.00    -0.351 OA
BRANCH  61  62
HETATM   62  C   UNK N   1      20.986  14.202   8.332  0.00  0.00     0.175 C 
BRANCH  62  63
HETATM   63  C   UNK N   1      20.278  14.046   9.670  0.00  0.00     0.027 C 
BRANCH  63  64
HETATM   64  C   UNK N   1      20.887  12.884  10.440  0.00  0.00     0.002 C 
BRANCH  64  65
HETATM   65  C   UNK N   1      22.404  12.969  10.417  0.00  0.00    -0.004 C 
HETATM   66  C   UNK N   1      22.999  11.585  10.576  0.00  0.00     0.005 C 
ENDBRANCH  64  65
ENDBRANCH  63  64
ENDBRANCH  62  63
ENDBRANCH  61  62
ENDBRANCH  58  61
ENDBRANCH  53  55
ENDBRANCH  46  49
ENDBRANCH  40  43
ENDBRANCH  20  39
BRANCH  26  67
HETATM   67  O   UNK N   1      25.355  12.063   3.049  0.00  0.00    -0.391 OA
HETATM   68  H   UNK N   1      25.185  12.842   3.601  0.00  0.00     0.210 HD
ENDBRANCH  26  67
BRANCH   9  69
HETATM   69  C   UNK N   1      30.890  11.180  -0.901  0.00  0.00     0.146 C 
HETATM   70  C   UNK N   1      30.324   9.808  -1.198  0.00  0.00     0.042 C 
BRANCH  69  71
HETATM   71  O   UNK N   1      31.288  11.851  -2.064  0.00  0.00    -0.393 OA
HETATM   72  H   UNK N   1      31.193  12.530  -2.749  0.00  0.00     0.210 HD
ENDBRANCH  69  71
ENDBRANCH   9  69
BRANCH  21  73
HETATM   73  O   UNK N   1      23.274  12.818   0.205  0.00  0.00    -0.374 OA
HETATM   74  H   UNK N   1      22.430  12.544   0.598  0.00  0.00     0.212 HD
ENDBRANCH  21  73
BRANCH  33  75
HETATM   75  O   UNK N   1      34.932  12.108   1.497  0.00  0.00    -0.394 OA
HETATM   76  H   UNK N   1      35.119  12.323   0.570  0.00  0.00     0.210 HD
ENDBRANCH  33  75
BRANCH  19  77
HETATM   77  O   UNK N   1      22.022  17.208   3.325  0.00  0.00    -0.393 OA
HETATM   78  H   UNK N   1      21.941  18.122   3.008  0.00  0.00     0.210 HD
ENDBRANCH  19  77
BRANCH   6  79
HETATM   79  C   UNK N   1      31.006  16.104   5.851  0.00  0.00     0.183 C 
BRANCH  79  80
HETATM   80  C   UNK N   1      32.491  16.327   5.619  0.00  0.00     0.182 C 
BRANCH  80  81
HETATM   81  C   UNK N   1      33.187  16.604   6.897  0.00  0.00    -0.024 A 
HETATM   82  C   UNK N   1      34.000  15.647   7.506  0.00  0.00     0.051 A 
HETATM   83  C   UNK N   1      34.802  15.998   8.605  0.00  0.00     0.124 A 
HETATM   84  C   UNK N   1      34.794  17.327   9.056  0.00  0.00     0.100 A 
HETATM   85  C   UNK N   1      33.968  18.275   8.450  0.00  0.00     0.040 A 
HETATM   86  C   UNK N   1      33.168  17.914   7.371  0.00  0.00     0.013 A 
BRANCH  83  87
HETATM   87  O   UNK N   1      35.576  15.079   9.271  0.00  0.00    -0.218 OA
BRANCH  87  88
HETATM   88  S   UNK N   1      35.355  14.297  10.810  0.00  0.00     0.245 S 
HETATM   89  O   UNK N   1      35.436  15.333  11.943  0.00  0.00    -0.579 OA
HETATM   90  O   UNK N   1      34.043  15.083  10.680  0.00  0.00    -0.579 OA
BRANCH  88  91
HETATM   91  O   UNK N   1      36.862  15.132  10.794  0.00  0.00    -0.273 OA
HETATM   92  H   UNK N   1      37.795  14.887  10.693  0.00  0.00     0.234 HD
ENDBRANCH  88  91
ENDBRANCH  87  88
ENDBRANCH  83  87
BRANCH  84  93
HETATM   93  O   UNK N   1      35.561  17.690  10.095  0.00  0.00    -0.358 OA
HETATM   94  H   UNK N   1      35.359  18.258  10.813  0.00  0.00     0.217 HD
ENDBRANCH  84  93
ENDBRANCH  80  81
BRANCH  80  95
HETATM   95  O   UNK N   1      32.681  17.359   4.694  0.00  0.00    -0.388 OA
HETATM   96  H   UNK N   1      32.302  17.575   3.828  0.00  0.00     0.210 HD
ENDBRANCH  80  95
ENDBRANCH  79  80
BRANCH  79  97
HETATM   97  O   UNK N   1      30.759  15.119   6.816  0.00  0.00    -0.390 OA
HETATM   98  H   UNK N   1      30.121  14.698   7.413  0.00  0.00     0.210 HD
ENDBRANCH  79  97
ENDBRANCH   6  79
BRANCH   7  99
HETATM   99  C   UNK N   1      26.978  16.430   6.703  0.00  0.00     0.158 C 
BRANCH  99 100
HETATM  100  C   UNK N   1      28.218  16.671   7.540  0.00  0.00     0.137 C 
BRANCH 100 101
HETATM  101  C   UNK N   1      28.313  18.123   7.897  0.00  0.00     0.217 C 
HETATM  102  O   UNK N   1      28.954  18.893   7.198  0.00  0.00    -0.274 OA
HETATM  103  N   UNK N   1      27.681  18.587   8.991  0.00  0.00    -0.370 N 
HETATM  104  H   UNK N   1      26.745  18.345   9.177  0.00  0.00     0.159 HD
HETATM  105  H   UNK N   1      28.163  19.176   9.616  0.00  0.00     0.159 HD
ENDBRANCH 100 101
ENDBRANCH  99 100
BRANCH  99 106
HETATM  106  O   UNK N   1      26.895  17.507   5.812  0.00  0.00    -0.393 OA
HETATM  107  H   UNK N   1      26.779  18.413   6.139  0.00  0.00     0.210 HD
ENDBRANCH  99 106
ENDBRANCH   7  99
TORSDOF 28
ENDMDL
MODEL 3
REMARK VINA RESULT:      -8.0      4.985     11.503
REMARK  28 active torsions:
REMARK  status: ('A' for Active; 'I' for Inactive)
REMARK    1  A    between atoms: C_21  and  C_6 
REMARK    2  A    between atoms: C_34  and  C_7 
REMARK    3  A    between atoms: C_58  and  C_9 
REMARK    4  A    between atoms: S_15  and  O_35 
REMARK    5  A    between atoms: O_61  and  S_15 
REMARK    6  A    between atoms: C_37  and  C_21 
REMARK    7  A    between atoms: C_21  and  O_70 
REMARK    8  A    between atoms: C_49  and  C_24 
REMARK    9  A    between atoms: C_25  and  C_52 
REMARK   10  A    between atoms: C_27  and  O_72 
REMARK   11  A    between atoms: N_33  and  C_28 
REMARK   12  A    between atoms: O_35  and  C_29 
REMARK       I    between atoms: C_30  and  N_33 
REMARK   13  A    between atoms: C_50  and  C_30 
REMARK   14  A    between atoms: C_31  and  O_73 
REMARK   15  A    between atoms: C_36  and  C_34 
REMARK   16  A    between atoms: C_34  and  O_75 
REMARK   17  A    between atoms: C_44  and  C_36 
REMARK   18  A    between atoms: C_38  and  C_37 
REMARK   19  A    between atoms: C_37  and  O_74 
REMARK   20  A    between atoms: C_43  and  O_77 
REMARK       I    between atoms: N_71  and  C_44 
REMARK   21  A    between atoms: O_80  and  C_53 
REMARK   22  A    between atoms: C_58  and  O_82 
REMARK   23  A    between atoms: C_59  and  O_81 
REMARK   24  A    between atoms: O_84  and  C_76 
REMARK   25  A    between atoms: C_86  and  O_84 
REMARK   26  A    between atoms: C_87  and  C_86 
REMARK   27  A    between atoms: C_89  and  C_87 
REMARK   28  A    between atoms: C_88  and  C_89 
ROOT
HETATM    1  N   UNK N   1      32.205  15.985   6.544  0.00  0.00    -0.334 N 
HETATM    2  N   UNK N   1      27.406  10.803   2.253  0.00  0.00    -0.334 N 
HETATM    3  C   UNK N   1      32.695  15.207   7.656  0.00  0.00     0.208 C 
HETATM    4  C   UNK N   1      31.209  15.533   5.720  0.00  0.00     0.246 C 
HETATM    5  C   UNK N   1      28.124  10.644   3.415  0.00  0.00     0.246 C 
HETATM    6  C   UNK N   1      26.975  14.862   4.314  0.00  0.00     0.208 C 
HETATM    7  C   UNK N   1      30.445  16.401   4.703  0.00  0.00     0.206 C 
HETATM    8  C   UNK N   1      33.409  13.969   7.210  0.00  0.00     0.245 C 
HETATM    9  C   UNK N   1      28.701   9.334   3.909  0.00  0.00     0.205 C 
HETATM   10  N   UNK N   1      29.335  15.639   4.125  0.00  0.00    -0.344 N 
HETATM   11  N   UNK N   1      26.787  13.632   3.565  0.00  0.00    -0.344 N 
HETATM   12  N   UNK N   1      30.099   9.450   3.635  0.00  0.00    -0.344 N 
HETATM   13  C   UNK N   1      28.311  15.159   4.899  0.00  0.00     0.243 C 
HETATM   14  N   UNK N   1      32.748  12.786   7.260  0.00  0.00    -0.331 N 
HETATM   15  C   UNK N   1      27.395  13.340   2.387  0.00  0.00     0.241 C 
HETATM   16  C   UNK N   1      27.065  12.069   1.660  0.00  0.00     0.181 C 
HETATM   17  C   UNK N   1      31.020  10.262   4.215  0.00  0.00     0.241 C 
HETATM   18  C   UNK N   1      32.714  17.330   6.542  0.00  0.00     0.134 C 
HETATM   19  C   UNK N   1      33.618  16.149   8.405  0.00  0.00     0.155 C 
HETATM   20  C   UNK N   1      32.376  10.341   3.550  0.00  0.00     0.179 C 
HETATM   21  C   UNK N   1      33.235  11.553   6.675  0.00  0.00     0.249 C 
HETATM   22  C   UNK N   1      33.130  17.524   7.986  0.00  0.00     0.031 C 
HETATM   23  C   UNK N   1      33.661  10.470   4.401  0.00  0.00     0.071 C 
HETATM   24  C   UNK N   1      26.837   9.732   1.498  0.00  0.00     0.158 C 
HETATM   25  C   UNK N   1      25.658  11.863   1.171  0.00  0.00     0.068 C 
HETATM   26  C   UNK N   1      33.715  11.751   5.226  0.00  0.00     0.169 C 
HETATM   27  O   UNK N   1      28.436  11.624   4.067  0.00  0.00    -0.271 OA
HETATM   28  O   UNK N   1      30.871  14.352   5.825  0.00  0.00    -0.271 OA
HETATM   29  O   UNK N   1      34.512  14.053   6.685  0.00  0.00    -0.271 OA
HETATM   30  O   UNK N   1      28.392  15.184   6.118  0.00  0.00    -0.271 OA
HETATM   31  O   UNK N   1      28.229  14.093   1.908  0.00  0.00    -0.271 OA
HETATM   32  O   UNK N   1      30.744  10.932   5.197  0.00  0.00    -0.271 OA
HETATM   33  C   UNK N   1      25.698  10.395   0.718  0.00  0.00     0.138 C 
HETATM   34  C   UNK N   1      34.205  18.579   8.131  0.00  0.00     0.014 C 
HETATM   35  H   UNK N   1      29.325  15.468   3.156  0.00  0.00     0.163 HD
HETATM   36  H   UNK N   1      26.173  12.960   3.939  0.00  0.00     0.163 HD
HETATM   37  H   UNK N   1      30.442   8.858   2.927  0.00  0.00     0.163 HD
HETATM   38  H   UNK N   1      31.878  12.763   7.723  0.00  0.00     0.165 HD
ENDROOT
BRANCH  20  39
HETATM   39  N   UNK N   1      32.451   9.316   2.521  0.00  0.00    -0.344 N 
HETATM   40  C   UNK N   1      32.696   9.553   1.193  0.00  0.00     0.252 C 
HETATM   41  O   UNK N   1      32.919   8.593   0.468  0.00  0.00    -0.268 OA
HETATM   42  H   UNK N   1      32.315   8.382   2.799  0.00  0.00     0.163 HD
BRANCH  40  43
HETATM   43  C   UNK N   1      32.580  10.911   0.565  0.00  0.00     0.032 C 
HETATM   44  C   UNK N   1      31.280  11.376   0.336  0.00  0.00     0.018 C 
HETATM   45  C   UNK N   1      30.867  11.682  -0.948  0.00  0.00     0.015 C 
HETATM   46  C   UNK N   1      31.812  11.664  -1.953  0.00  0.00    -0.007 C 
HETATM   47  C   UNK N   1      33.185  11.587  -1.617  0.00  0.00     0.015 C 
HETATM   48  C   UNK N   1      33.571  11.208  -0.355  0.00  0.00     0.018 C 
BRANCH  46  49
HETATM   49  C   UNK N   1      31.468  11.055  -3.239  0.00  0.00     0.068 A 
HETATM   50  N   UNK N   1      32.133   9.994  -3.718  0.00  0.00    -0.260 N 
HETATM   51  O   UNK N   1      31.240   9.140  -4.133  0.00  0.00    -0.237 OA
ATOM     52  HN  UNK N   1      33.145   9.876  -3.752  1.00  0.00     0.195 HD
HETATM   53  C   UNK N   1      30.025   9.596  -3.922  0.00  0.00     0.111 A 
HETATM   54  C   UNK N   1      30.122  10.847  -3.414  0.00  0.00     0.072 A 
BRANCH  53  55
HETATM   55  C   UNK N   1      28.970   8.727  -3.370  0.00  0.00    -0.000 A 
HETATM   56  C   UNK N   1      28.529   7.615  -4.091  0.00  0.00     0.017 A 
HETATM   57  C   UNK N   1      27.897   6.555  -3.426  0.00  0.00     0.037 A 
HETATM   58  C   UNK N   1      27.766   6.568  -2.029  0.00  0.00     0.068 A 
HETATM   59  C   UNK N   1      28.174   7.699  -1.313  0.00  0.00     0.037 A 
HETATM   60  C   UNK N   1      28.760   8.766  -1.975  0.00  0.00     0.017 A 
BRANCH  58  61
HETATM   61  O   UNK N   1      27.303   5.464  -1.393  0.00  0.00    -0.351 OA
BRANCH  61  62
HETATM   62  C   UNK N   1      28.046   4.748  -0.468  0.00  0.00     0.175 C 
BRANCH  62  63
HETATM   63  C   UNK N   1      29.368   4.241  -1.030  0.00  0.00     0.027 C 
BRANCH  63  64
HETATM   64  C   UNK N   1      30.522   4.833  -0.235  0.00  0.00     0.002 C 
BRANCH  64  65
HETATM   65  C   UNK N   1      31.282   5.843  -1.076  0.00  0.00    -0.004 C 
HETATM   66  C   UNK N   1      31.318   5.386  -2.521  0.00  0.00     0.005 C 
ENDBRANCH  64  65
ENDBRANCH  63  64
ENDBRANCH  62  63
ENDBRANCH  61  62
ENDBRANCH  58  61
ENDBRANCH  53  55
ENDBRANCH  46  49
ENDBRANCH  40  43
ENDBRANCH  20  39
BRANCH  26  67
HETATM   67  O   UNK N   1      33.016  12.770   4.570  0.00  0.00    -0.391 OA
HETATM   68  H   UNK N   1      33.425  13.593   4.260  0.00  0.00     0.210 HD
ENDBRANCH  26  67
BRANCH   9  69
HETATM   69  C   UNK N   1      28.283   7.964   3.339  0.00  0.00     0.146 C 
HETATM   70  C   UNK N   1      29.368   7.245   2.565  0.00  0.00     0.042 C 
BRANCH  69  71
HETATM   71  O   UNK N   1      27.663   7.131   4.278  0.00  0.00    -0.393 OA
HETATM   72  H   UNK N   1      26.913   6.843   4.822  0.00  0.00     0.210 HD
ENDBRANCH  69  71
ENDBRANCH   9  69
BRANCH  21  73
HETATM   73  O   UNK N   1      34.253  11.010   7.462  0.00  0.00    -0.374 OA
HETATM   74  H   UNK N   1      34.294  10.060   7.654  0.00  0.00     0.212 HD
ENDBRANCH  21  73
BRANCH  33  75
HETATM   75  O   UNK N   1      24.492   9.773   1.036  0.00  0.00    -0.394 OA
HETATM   76  H   UNK N   1      24.155   8.918   1.346  0.00  0.00     0.210 HD
ENDBRANCH  33  75
BRANCH  19  77
HETATM   77  O   UNK N   1      33.497  15.972   9.783  0.00  0.00    -0.393 OA
HETATM   78  H   UNK N   1      33.017  15.955  10.626  0.00  0.00     0.210 HD
ENDBRANCH  19  77
BRANCH   6  79
HETATM   79  C   UNK N   1      26.362  16.091   3.669  0.00  0.00     0.183 C 
BRANCH  79  80
HETATM   80  C   UNK N   1      25.163  16.493   4.510  0.00  0.00     0.182 C 
BRANCH  80  81
HETATM   81  C   UNK N   1      24.517  17.706   3.959  0.00  0.00    -0.024 A 
HETATM   82  C   UNK N   1      23.175  17.997   4.215  0.00  0.00     0.051 A 
HETATM   83  C   UNK N   1      22.642  19.244   3.850  0.00  0.00     0.124 A 
HETATM   84  C   UNK N   1      23.484  20.197   3.258  0.00  0.00     0.100 A 
HETATM   85  C   UNK N   1      24.820  19.895   2.994  0.00  0.00     0.040 A 
HETATM   86  C   UNK N   1      25.336  18.652   3.346  0.00  0.00     0.013 A 
BRANCH  83  87
HETATM   87  O   UNK N   1      21.316  19.555   4.031  0.00  0.00    -0.218 OA
BRANCH  87  88
HETATM   88  S   UNK N   1      20.002  19.671   2.895  0.00  0.00     0.245 S 
HETATM   89  O   UNK N   1      20.308  20.751   1.845  0.00  0.00    -0.579 OA
HETATM   90  O   UNK N   1      21.097  19.036   2.026  0.00  0.00    -0.579 OA
BRANCH  88  91
HETATM   91  O   UNK N   1      20.271  21.206   3.630  0.00  0.00    -0.273 OA
HETATM   92  H   UNK N   1      20.057  22.128   3.420  0.00  0.00     0.234 HD
ENDBRANCH  88  91
ENDBRANCH  87  88
ENDBRANCH  83  87
BRANCH  84  93
HETATM   93  O   UNK N   1      23.001  21.401   2.913  0.00  0.00    -0.358 OA
HETATM   94  H   UNK N   1      23.152  21.901   2.135  0.00  0.00     0.217 HD
ENDBRANCH  84  93
ENDBRANCH  80  81
BRANCH  80  95
HETATM   95  O   UNK N   1      25.553  16.675   5.841  0.00  0.00    -0.388 OA
HETATM   96  H   UNK N   1      25.079  16.782   6.681  0.00  0.00     0.210 HD
ENDBRANCH  80  95
ENDBRANCH  79  80
BRANCH  79  97
HETATM   97  O   UNK N   1      26.016  15.838   2.335  0.00  0.00    -0.390 OA
HETATM   98  H   UNK N   1      26.270  15.454   1.481  0.00  0.00     0.210 HD
ENDBRANCH  79  97
ENDBRANCH   6  79
BRANCH   7  99
HETATM   99  C   UNK N   1      29.799  17.684   5.315  0.00  0.00     0.158 C 
BRANCH  99 100
HETATM  100  C   UNK N   1      28.573  18.224   4.606  0.00  0.00     0.137 C 
BRANCH 100 101
HETATM  101  C   UNK N   1      27.962  19.324   5.419  0.00  0.00     0.217 C 
HETATM  102  O   UNK N   1      28.232  20.492   5.185  0.00  0.00    -0.274 OA
HETATM  103  N   UNK N   1      27.103  19.025   6.411  0.00  0.00    -0.370 N 
HETATM  104  H   UNK N   1      26.371  18.382   6.272  0.00  0.00     0.159 HD
HETATM  105  H   UNK N   1      27.210  19.456   7.290  0.00  0.00     0.159 HD
ENDBRANCH 100 101
ENDBRANCH  99 100
BRANCH  99 106
HETATM  106  O   UNK N   1      29.413  17.462   6.642  0.00  0.00    -0.393 OA
HETATM  107  H   UNK N   1      30.065  17.489   7.361  0.00  0.00     0.210 HD
ENDBRANCH  99 106
ENDBRANCH   7  99
TORSDOF 28
ENDMDL
MODEL 4
REMARK VINA RESULT:      -7.9      5.005     11.742
REMARK  28 active torsions:
REMARK  status: ('A' for Active; 'I' for Inactive)
REMARK    1  A    between atoms: C_21  and  C_6 
REMARK    2  A    between atoms: C_34  and  C_7 
REMARK    3  A    between atoms: C_58  and  C_9 
REMARK    4  A    between atoms: S_15  and  O_35 
REMARK    5  A    between atoms: O_61  and  S_15 
REMARK    6  A    between atoms: C_37  and  C_21 
REMARK    7  A    between atoms: C_21  and  O_70 
REMARK    8  A    between atoms: C_49  and  C_24 
REMARK    9  A    between atoms: C_25  and  C_52 
REMARK   10  A    between atoms: C_27  and  O_72 
REMARK   11  A    between atoms: N_33  and  C_28 
REMARK   12  A    between atoms: O_35  and  C_29 
REMARK       I    between atoms: C_30  and  N_33 
REMARK   13  A    between atoms: C_50  and  C_30 
REMARK   14  A    between atoms: C_31  and  O_73 
REMARK   15  A    between atoms: C_36  and  C_34 
REMARK   16  A    between atoms: C_34  and  O_75 
REMARK   17  A    between atoms: C_44  and  C_36 
REMARK   18  A    between atoms: C_38  and  C_37 
REMARK   19  A    between atoms: C_37  and  O_74 
REMARK   20  A    between atoms: C_43  and  O_77 
REMARK       I    between atoms: N_71  and  C_44 
REMARK   21  A    between atoms: O_80  and  C_53 
REMARK   22  A    between atoms: C_58  and  O_82 
REMARK   23  A    between atoms: C_59  and  O_81 
REMARK   24  A    between atoms: O_84  and  C_76 
REMARK   25  A    between atoms: C_86  and  O_84 
REMARK   26  A    between atoms: C_87  and  C_86 
REMARK   27  A    between atoms: C_89  and  C_87 
REMARK   28  A    between atoms: C_88  and  C_89 
ROOT
HETATM    1  N   UNK N   1      32.179  16.083   6.634  0.00  0.00    -0.334 N 
HETATM    2  N   UNK N   1      27.352  10.876   2.405  0.00  0.00    -0.334 N 
HETATM    3  C   UNK N   1      32.657  15.318   7.760  0.00  0.00     0.208 C 
HETATM    4  C   UNK N   1      31.183  15.626   5.813  0.00  0.00     0.246 C 
HETATM    5  C   UNK N   1      28.063  10.728   3.573  0.00  0.00     0.246 C 
HETATM    6  C   UNK N   1      26.949  14.971   4.398  0.00  0.00     0.208 C 
HETATM    7  C   UNK N   1      30.431  16.485   4.778  0.00  0.00     0.206 C 
HETATM    8  C   UNK N   1      33.362  14.067   7.338  0.00  0.00     0.245 C 
HETATM    9  C   UNK N   1      28.626   9.421   4.091  0.00  0.00     0.205 C 
HETATM   10  N   UNK N   1      29.317  15.723   4.208  0.00  0.00    -0.344 N 
HETATM   11  N   UNK N   1      26.753  13.731   3.668  0.00  0.00    -0.344 N 
HETATM   12  N   UNK N   1      30.026   9.520   3.822  0.00  0.00    -0.344 N 
HETATM   13  C   UNK N   1      28.285  15.266   4.985  0.00  0.00     0.243 C 
HETATM   14  N   UNK N   1      32.689  12.891   7.404  0.00  0.00    -0.331 N 
HETATM   15  C   UNK N   1      27.363  13.414   2.498  0.00  0.00     0.241 C 
HETATM   16  C   UNK N   1      27.025  12.135   1.791  0.00  0.00     0.181 C 
HETATM   17  C   UNK N   1      30.952  10.334   4.393  0.00  0.00     0.241 C 
HETATM   18  C   UNK N   1      32.700  17.422   6.612  0.00  0.00     0.134 C 
HETATM   19  C   UNK N   1      33.585  16.263   8.499  0.00  0.00     0.155 C 
HETATM   20  C   UNK N   1      32.312  10.389   3.733  0.00  0.00     0.179 C 
HETATM   21  C   UNK N   1      33.168  11.643   6.842  0.00  0.00     0.249 C 
HETATM   22  C   UNK N   1      33.111  17.636   8.055  0.00  0.00     0.031 C 
HETATM   23  C   UNK N   1      33.594  10.521   4.587  0.00  0.00     0.071 C 
HETATM   24  C   UNK N   1      26.777   9.798   1.665  0.00  0.00     0.158 C 
HETATM   25  C   UNK N   1      25.618  11.934   1.298  0.00  0.00     0.068 C 
HETATM   26  C   UNK N   1      33.656  11.814   5.391  0.00  0.00     0.169 C 
HETATM   27  O   UNK N   1      28.381  11.717   4.211  0.00  0.00    -0.271 OA
HETATM   28  O   UNK N   1      30.833  14.450   5.936  0.00  0.00    -0.271 OA
HETATM   29  O   UNK N   1      34.468  14.132   6.817  0.00  0.00    -0.271 OA
HETATM   30  O   UNK N   1      28.361  15.309   6.204  0.00  0.00    -0.271 OA
HETATM   31  O   UNK N   1      28.207  14.152   2.011  0.00  0.00    -0.271 OA
HETATM   32  O   UNK N   1      30.678  11.021   5.362  0.00  0.00    -0.271 OA
HETATM   33  C   UNK N   1      25.647  10.458   0.869  0.00  0.00     0.138 C 
HETATM   34  C   UNK N   1      34.196  18.684   8.188  0.00  0.00     0.014 C 
HETATM   35  H   UNK N   1      29.309  15.536   3.241  0.00  0.00     0.163 HD
HETATM   36  H   UNK N   1      26.131  13.071   4.050  0.00  0.00     0.163 HD
HETATM   37  H   UNK N   1      30.367   8.913   3.125  0.00  0.00     0.163 HD
HETATM   38  H   UNK N   1      31.817  12.883   7.864  0.00  0.00     0.165 HD
ENDROOT
BRANCH  20  39
HETATM   39  N   UNK N   1      32.382   9.347   2.720  0.00  0.00    -0.344 N 
HETATM   40  C   UNK N   1      32.410   9.567   1.368  0.00  0.00     0.252 C 
HETATM   41  O   UNK N   1      32.658   8.619   0.635  0.00  0.00    -0.268 OA
HETATM   42  H   UNK N   1      32.411   8.413   3.030  0.00  0.00     0.163 HD
BRANCH  40  43
HETATM   43  C   UNK N   1      32.029  10.875   0.739  0.00  0.00     0.032 C 
HETATM   44  C   UNK N   1      30.688  11.255   0.866  0.00  0.00     0.018 C 
HETATM   45  C   UNK N   1      29.913  11.458  -0.260  0.00  0.00     0.015 C 
HETATM   46  C   UNK N   1      30.539  11.430  -1.490  0.00  0.00    -0.007 C 
HETATM   47  C   UNK N   1      31.952  11.447  -1.553  0.00  0.00     0.015 C 
HETATM   48  C   UNK N   1      32.700  11.169  -0.436  0.00  0.00     0.018 C 
BRANCH  46  49
HETATM   49  C   UNK N   1      29.892  10.725  -2.598  0.00  0.00     0.068 A 
HETATM   50  N   UNK N   1      30.087  11.085  -3.875  0.00  0.00    -0.260 N 
HETATM   51  O   UNK N   1      30.324   9.994  -4.547  0.00  0.00    -0.237 OA
ATOM     52  HN  UNK N   1      30.058  12.033  -4.250  1.00  0.00     0.195 HD
HETATM   53  C   UNK N   1      30.310   8.945  -3.754  0.00  0.00     0.111 A 
HETATM   54  C   UNK N   1      29.971   9.356  -2.509  0.00  0.00     0.072 A 
BRANCH  53  55
HETATM   55  C   UNK N   1      31.343   7.898  -3.857  0.00  0.00    -0.000 A 
HETATM   56  C   UNK N   1      31.806   7.490  -5.110  0.00  0.00     0.017 A 
HETATM   57  C   UNK N   1      33.057   6.869  -5.226  0.00  0.00     0.037 A 
HETATM   58  C   UNK N   1      33.883   6.716  -4.101  0.00  0.00     0.068 A 
HETATM   59  C   UNK N   1      33.402   7.089  -2.842  0.00  0.00     0.037 A 
HETATM   60  C   UNK N   1      32.147   7.665  -2.721  0.00  0.00     0.017 A 
BRANCH  58  61
HETATM   61  O   UNK N   1      35.151   6.263  -4.263  0.00  0.00    -0.351 OA
BRANCH  61  62
HETATM   62  C   UNK N   1      36.273   7.047  -4.046  0.00  0.00     0.175 C 
BRANCH  62  63
HETATM   63  C   UNK N   1      36.153   8.440  -4.647  0.00  0.00     0.027 C 
BRANCH  63  64
HETATM   64  C   UNK N   1      36.280   9.484  -3.549  0.00  0.00     0.002 C 
BRANCH  64  65
HETATM   65  C   UNK N   1      34.995  10.285  -3.426  0.00  0.00    -0.004 C 
HETATM   66  C   UNK N   1      34.288  10.330  -4.765  0.00  0.00     0.005 C 
ENDBRANCH  64  65
ENDBRANCH  63  64
ENDBRANCH  62  63
ENDBRANCH  61  62
ENDBRANCH  58  61
ENDBRANCH  53  55
ENDBRANCH  46  49
ENDBRANCH  40  43
ENDBRANCH  20  39
BRANCH  26  67
HETATM   67  O   UNK N   1      32.969  12.828   4.716  0.00  0.00    -0.391 OA
HETATM   68  H   UNK N   1      33.387  13.642   4.395  0.00  0.00     0.210 HD
ENDBRANCH  26  67
BRANCH   9  69
HETATM   69  C   UNK N   1      28.198   8.046   3.541  0.00  0.00     0.146 C 
HETATM   70  C   UNK N   1      29.292   7.285   2.823  0.00  0.00     0.042 C 
BRANCH  69  71
HETATM   71  O   UNK N   1      27.529   7.250   4.479  0.00  0.00    -0.393 OA
HETATM   72  H   UNK N   1      26.754   6.993   5.004  0.00  0.00     0.210 HD
ENDBRANCH  69  71
ENDBRANCH   9  69
BRANCH  21  73
HETATM   73  O   UNK N   1      34.177  11.104   7.642  0.00  0.00    -0.374 OA
HETATM   74  H   UNK N   1      34.157  10.177   7.927  0.00  0.00     0.212 HD
ENDBRANCH  21  73
BRANCH  33  75
HETATM   75  O   UNK N   1      24.434   9.852   1.192  0.00  0.00    -0.394 OA
HETATM   76  H   UNK N   1      24.088   9.006   1.514  0.00  0.00     0.210 HD
ENDBRANCH  33  75
BRANCH  19  77
HETATM   77  O   UNK N   1      33.456  16.110   9.879  0.00  0.00    -0.393 OA
HETATM   78  H   UNK N   1      32.972  16.111  10.720  0.00  0.00     0.210 HD
ENDBRANCH  19  77
BRANCH   6  79
HETATM   79  C   UNK N   1      26.350  16.195   3.730  0.00  0.00     0.183 C 
BRANCH  79  80
HETATM   80  C   UNK N   1      25.139  16.609   4.548  0.00  0.00     0.182 C 
BRANCH  80  81
HETATM   81  C   UNK N   1      24.503  17.816   3.972  0.00  0.00    -0.024 A 
HETATM   82  C   UNK N   1      23.155  18.105   4.191  0.00  0.00     0.051 A 
HETATM   83  C   UNK N   1      22.627  19.347   3.804  0.00  0.00     0.124 A 
HETATM   84  C   UNK N   1      23.480  20.298   3.225  0.00  0.00     0.100 A 
HETATM   85  C   UNK N   1      24.824  19.998   2.997  0.00  0.00     0.040 A 
HETATM   86  C   UNK N   1      25.334  18.760   3.372  0.00  0.00     0.013 A 
BRANCH  83  87
HETATM   87  O   UNK N   1      21.296  19.655   3.948  0.00  0.00    -0.218 OA
BRANCH  87  88
HETATM   88  S   UNK N   1      20.009  19.751   2.780  0.00  0.00     0.245 S 
HETATM   89  O   UNK N   1      20.379  20.749   1.672  0.00  0.00    -0.579 OA
HETATM   90  O   UNK N   1      21.092  19.019   1.976  0.00  0.00    -0.579 OA
BRANCH  88  91
HETATM   91  O   UNK N   1      20.328  21.317   3.424  0.00  0.00    -0.273 OA
HETATM   92  H   UNK N   1      20.157  22.232   3.152  0.00  0.00     0.234 HD
ENDBRANCH  88  91
ENDBRANCH  87  88
ENDBRANCH  83  87
BRANCH  84  93
HETATM   93  O   UNK N   1      23.003  21.497   2.859  0.00  0.00    -0.358 OA
HETATM   94  H   UNK N   1      23.171  21.992   2.081  0.00  0.00     0.217 HD
ENDBRANCH  84  93
ENDBRANCH  80  81
BRANCH  80  95
HETATM   95  O   UNK N   1      25.509  16.808   5.882  0.00  0.00    -0.388 OA
HETATM   96  H   UNK N   1      25.023  16.927   6.713  0.00  0.00     0.210 HD
ENDBRANCH  80  95
ENDBRANCH  79  80
BRANCH  79  97
HETATM   97  O   UNK N   1      26.025  15.929   2.394  0.00  0.00    -0.390 OA
HETATM   98  H   UNK N   1      26.290  15.535   1.548  0.00  0.00     0.210 HD
ENDBRANCH  79  97
ENDBRANCH   6  79
BRANCH   7  99
HETATM   99  C   UNK N   1      29.794  17.783   5.366  0.00  0.00     0.158 C 
BRANCH  99 100
HETATM  100  C   UNK N   1      28.565  18.312   4.654  0.00  0.00     0.137 C 
BRANCH 100 101
HETATM  101  C   UNK N   1      27.937  19.400   5.470  0.00  0.00     0.217 C 
HETATM  102  O   UNK N   1      28.199  20.572   5.247  0.00  0.00    -0.274 OA
HETATM  103  N   UNK N   1      27.072  19.086   6.452  0.00  0.00    -0.370 N 
HETATM  104  H   UNK N   1      26.347  18.438   6.301  0.00  0.00     0.159 HD
HETATM  105  H   UNK N   1      27.167  19.511   7.335  0.00  0.00     0.159 HD
ENDBRANCH 100 101
ENDBRANCH  99 100
BRANCH  99 106
HETATM  106  O   UNK N   1      29.416  17.591   6.701  0.00  0.00    -0.393 OA
HETATM  107  H   UNK N   1      30.073  17.632   7.414  0.00  0.00     0.210 HD
ENDBRANCH  99 106
ENDBRANCH   7  99
TORSDOF 28
ENDMDL
MODEL 5
REMARK VINA RESULT:      -7.9      5.717     12.338
REMARK  28 active torsions:
REMARK  status: ('A' for Active; 'I' for Inactive)
REMARK    1  A    between atoms: C_21  and  C_6 
REMARK    2  A    between atoms: C_34  and  C_7 
REMARK    3  A    between atoms: C_58  and  C_9 
REMARK    4  A    between atoms: S_15  and  O_35 
REMARK    5  A    between atoms: O_61  and  S_15 
REMARK    6  A    between atoms: C_37  and  C_21 
REMARK    7  A    between atoms: C_21  and  O_70 
REMARK    8  A    between atoms: C_49  and  C_24 
REMARK    9  A    between atoms: C_25  and  C_52 
REMARK   10  A    between atoms: C_27  and  O_72 
REMARK   11  A    between atoms: N_33  and  C_28 
REMARK   12  A    between atoms: O_35  and  C_29 
REMARK       I    between atoms: C_30  and  N_33 
REMARK   13  A    between atoms: C_50  and  C_30 
REMARK   14  A    between atoms: C_31  and  O_73 
REMARK   15  A    between atoms: C_36  and  C_34 
REMARK   16  A    between atoms: C_34  and  O_75 
REMARK   17  A    between atoms: C_44  and  C_36 
REMARK   18  A    between atoms: C_38  and  C_37 
REMARK   19  A    between atoms: C_37  and  O_74 
REMARK   20  A    between atoms: C_43  and  O_77 
REMARK       I    between atoms: N_71  and  C_44 
REMARK   21  A    between atoms: O_80  and  C_53 
REMARK   22  A    between atoms: C_58  and  O_82 
REMARK   23  A    between atoms: C_59  and  O_81 
REMARK   24  A    between atoms: O_84  and  C_76 
REMARK   25  A    between atoms: C_86  and  O_84 
REMARK   26  A    between atoms: C_87  and  C_86 
REMARK   27  A    between atoms: C_89  and  C_87 
REMARK   28  A    between atoms: C_88  and  C_89 
ROOT
HETATM    1  N   UNK N   1      27.445  17.076   4.750  0.00  0.00    -0.334 N 
HETATM    2  N   UNK N   1      27.987   9.197   2.318  0.00  0.00    -0.334 N 
HETATM    3  C   UNK N   1      26.580  17.708   3.783  0.00  0.00     0.208 C 
HETATM    4  C   UNK N   1      27.944  15.814   4.568  0.00  0.00     0.246 C 
HETATM    5  C   UNK N   1      27.327  10.280   1.788  0.00  0.00     0.246 C 
HETATM    6  C   UNK N   1      30.846  12.669   3.141  0.00  0.00     0.208 C 
HETATM    7  C   UNK N   1      29.081  15.188   5.398  0.00  0.00     0.206 C 
HETATM    8  C   UNK N   1      25.251  17.026   3.681  0.00  0.00     0.245 C 
HETATM    9  C   UNK N   1      26.062  10.209   0.957  0.00  0.00     0.205 C 
HETATM   10  N   UNK N   1      29.477  13.903   4.817  0.00  0.00    -0.344 N 
HETATM   11  N   UNK N   1      30.230  11.392   2.826  0.00  0.00    -0.344 N 
HETATM   12  N   UNK N   1      25.038  10.639   1.855  0.00  0.00    -0.344 N 
HETATM   13  C   UNK N   1      29.984  13.812   3.548  0.00  0.00     0.243 C 
HETATM   14  N   UNK N   1      25.036  16.176   2.646  0.00  0.00    -0.331 N 
HETATM   15  C   UNK N   1      29.570  10.608   3.716  0.00  0.00     0.241 C 
HETATM   16  C   UNK N   1      29.039   9.269   3.297  0.00  0.00     0.181 C 
HETATM   17  C   UNK N   1      24.821  11.875   2.376  0.00  0.00     0.241 C 
HETATM   18  C   UNK N   1      27.880  17.982   5.779  0.00  0.00     0.134 C 
HETATM   19  C   UNK N   1      26.442  19.137   4.268  0.00  0.00     0.155 C 
HETATM   20  C   UNK N   1      23.804  11.976   3.492  0.00  0.00     0.179 C 
HETATM   21  C   UNK N   1      23.887  15.299   2.534  0.00  0.00     0.249 C 
HETATM   22  C   UNK N   1      27.677  19.336   5.129  0.00  0.00     0.031 C 
HETATM   23  C   UNK N   1      22.879  13.210   3.601  0.00  0.00     0.071 C 
HETATM   24  C   UNK N   1      27.768   7.841   1.925  0.00  0.00     0.158 C 
HETATM   25  C   UNK N   1      30.014   8.216   2.848  0.00  0.00     0.068 C 
HETATM   26  C   UNK N   1      23.632  14.514   3.833  0.00  0.00     0.169 C 
HETATM   27  O   UNK N   1      27.692  11.406   2.077  0.00  0.00    -0.271 OA
HETATM   28  O   UNK N   1      27.477  15.141   3.647  0.00  0.00    -0.271 OA
HETATM   29  O   UNK N   1      24.437  17.130   4.590  0.00  0.00    -0.271 OA
HETATM   30  O   UNK N   1      29.938  14.771   2.792  0.00  0.00    -0.271 OA
HETATM   31  O   UNK N   1      29.382  10.984   4.864  0.00  0.00    -0.271 OA
HETATM   32  O   UNK N   1      25.454  12.844   1.992  0.00  0.00    -0.271 OA
HETATM   33  C   UNK N   1      29.071   7.131   2.303  0.00  0.00     0.138 C 
HETATM   34  C   UNK N   1      27.488  20.435   6.153  0.00  0.00     0.014 C 
HETATM   35  H   UNK N   1      29.378  13.083   5.354  0.00  0.00     0.163 HD
HETATM   36  H   UNK N   1      30.295  11.071   1.898  0.00  0.00     0.163 HD
HETATM   37  H   UNK N   1      24.400   9.943   2.135  0.00  0.00     0.163 HD
HETATM   38  H   UNK N   1      25.705  16.154   1.922  0.00  0.00     0.165 HD
ENDROOT
BRANCH  20  39
HETATM   39  N   UNK N   1      23.108  10.704   3.606  0.00  0.00    -0.344 N 
HETATM   40  C   UNK N   1      23.094   9.914   4.726  0.00  0.00     0.252 C 
HETATM   41  O   UNK N   1      22.320   8.967   4.753  0.00  0.00    -0.268 OA
HETATM   42  H   UNK N   1      22.610  10.386   2.819  0.00  0.00     0.163 HD
BRANCH  40  43
HETATM   43  C   UNK N   1      24.062  10.078   5.861  0.00  0.00     0.032 C 
HETATM   44  C   UNK N   1      23.954   9.152   6.905  0.00  0.00     0.018 C 
HETATM   45  C   UNK N   1      23.684   9.582   8.191  0.00  0.00     0.015 C 
HETATM   46  C   UNK N   1      23.685  10.941   8.432  0.00  0.00    -0.007 C 
HETATM   47  C   UNK N   1      24.195  11.823   7.450  0.00  0.00     0.015 C 
HETATM   48  C   UNK N   1      24.384  11.391   6.160  0.00  0.00     0.018 C 
BRANCH  46  49
HETATM   49  C   UNK N   1      22.629  11.512   9.269  0.00  0.00     0.068 A 
HETATM   50  N   UNK N   1      22.894  12.069  10.460  0.00  0.00    -0.260 N 
HETATM   51  O   UNK N   1      22.253  13.202  10.502  0.00  0.00    -0.237 OA
ATOM     52  HN  UNK N   1      23.486  11.680  11.194  1.00  0.00     0.195 HD
HETATM   53  C   UNK N   1      21.600  13.412   9.380  0.00  0.00     0.111 A 
HETATM   54  C   UNK N   1      21.757  12.326   8.587  0.00  0.00     0.072 A 
BRANCH  53  55
HETATM   55  C   UNK N   1      21.619  14.731   8.723  0.00  0.00    -0.000 A 
HETATM   56  C   UNK N   1      22.451  14.955   7.624  0.00  0.00     0.017 A 
HETATM   57  C   UNK N   1      22.163  15.995   6.729  0.00  0.00     0.037 A 
HETATM   58  C   UNK N   1      21.004  16.771   6.887  0.00  0.00     0.068 A 
HETATM   59  C   UNK N   1      20.194  16.570   8.010  0.00  0.00     0.037 A 
HETATM   60  C   UNK N   1      20.501  15.570   8.918  0.00  0.00     0.017 A 
BRANCH  58  61
HETATM   61  O   UNK N   1      20.660  17.660   5.923  0.00  0.00    -0.351 OA
BRANCH  61  62
HETATM   62  C   UNK N   1      20.800  17.406   4.568  0.00  0.00     0.175 C 
BRANCH  62  63
HETATM   63  C   UNK N   1      19.552  16.797   3.943  0.00  0.00     0.027 C 
BRANCH  63  64
HETATM   64  C   UNK N   1      19.744  15.298   3.772  0.00  0.00     0.002 C 
BRANCH  64  65
HETATM   65  C   UNK N   1      18.967  14.539   4.833  0.00  0.00    -0.004 C 
HETATM   66  C   UNK N   1      19.821  13.419   5.392  0.00  0.00     0.005 C 
ENDBRANCH  64  65
ENDBRANCH  63  64
ENDBRANCH  62  63
ENDBRANCH  61  62
ENDBRANCH  58  61
ENDBRANCH  53  55
ENDBRANCH  46  49
ENDBRANCH  40  43
ENDBRANCH  20  39
BRANCH  26  67
HETATM   67  O   UNK N   1      24.811  14.264   4.543  0.00  0.00    -0.391 OA
HETATM   68  H   UNK N   1      24.869  14.262   5.511  0.00  0.00     0.210 HD
ENDBRANCH  26  67
BRANCH   9  69
HETATM   69  C   UNK N   1      25.539   8.899   0.335  0.00  0.00     0.146 C 
HETATM   70  C   UNK N   1      24.038   8.720   0.409  0.00  0.00     0.042 C 
BRANCH  69  71
HETATM   71  O   UNK N   1      26.039   8.648  -0.948  0.00  0.00    -0.393 OA
HETATM   72  H   UNK N   1      26.479   8.100  -1.617  0.00  0.00     0.210 HD
ENDBRANCH  69  71
ENDBRANCH   9  69
BRANCH  21  73
HETATM   73  O   UNK N   1      22.754  16.027   2.165  0.00  0.00    -0.374 OA
HETATM   74  H   UNK N   1      22.674  16.431   1.287  0.00  0.00     0.212 HD
ENDBRANCH  21  73
BRANCH  33  75
HETATM   75  O   UNK N   1      29.632   6.550   1.167  0.00  0.00    -0.394 OA
HETATM   76  H   UNK N   1      30.446   6.579   0.641  0.00  0.00     0.210 HD
ENDBRANCH  33  75
BRANCH  19  77
HETATM   77  O   UNK N   1      26.429  20.028   3.195  0.00  0.00    -0.393 OA
HETATM   78  H   UNK N   1      26.811  20.479   2.426  0.00  0.00     0.210 HD
ENDBRANCH  19  77
BRANCH   6  79
HETATM   79  C   UNK N   1      32.088  12.570   4.006  0.00  0.00     0.183 C 
BRANCH  79  80
HETATM   80  C   UNK N   1      33.253  13.102   3.189  0.00  0.00     0.182 C 
BRANCH  80  81
HETATM   81  C   UNK N   1      34.318  13.630   4.073  0.00  0.00    -0.024 A 
HETATM   82  C   UNK N   1      34.156  14.826   4.775  0.00  0.00     0.051 A 
HETATM   83  C   UNK N   1      35.092  15.203   5.752  0.00  0.00     0.124 A 
HETATM   84  C   UNK N   1      36.167  14.346   6.031  0.00  0.00     0.100 A 
HETATM   85  C   UNK N   1      36.330  13.158   5.315  0.00  0.00     0.040 A 
HETATM   86  C   UNK N   1      35.405  12.801   4.340  0.00  0.00     0.013 A 
BRANCH  83  87
HETATM   87  O   UNK N   1      35.005  16.395   6.430  0.00  0.00    -0.218 OA
BRANCH  87  88
HETATM   88  S   UNK N   1      34.406  16.767   8.021  0.00  0.00     0.245 S 
HETATM   89  O   UNK N   1      33.094  17.560   7.916  0.00  0.00    -0.579 OA
HETATM   90  O   UNK N   1      33.385  15.722   7.551  0.00  0.00    -0.579 OA
BRANCH  88  91
HETATM   91  O   UNK N   1      34.620  18.223   7.125  0.00  0.00    -0.273 OA
HETATM   92  H   UNK N   1      34.423  18.524   6.224  0.00  0.00     0.234 HD
ENDBRANCH  88  91
ENDBRANCH  87  88
ENDBRANCH  83  87
BRANCH  84  93
HETATM   93  O   UNK N   1      37.067  14.676   6.969  0.00  0.00    -0.358 OA
HETATM   94  H   UNK N   1      37.813  14.197   7.273  0.00  0.00     0.217 HD
ENDBRANCH  84  93
ENDBRANCH  80  81
BRANCH  80  95
HETATM   95  O   UNK N   1      32.801  14.073   2.290  0.00  0.00    -0.388 OA
HETATM   96  H   UNK N   1      32.658  14.099   1.331  0.00  0.00     0.210 HD
ENDBRANCH  80  95
ENDBRANCH  79  80
BRANCH  79  97
HETATM   97  O   UNK N   1      32.298  11.254   4.437  0.00  0.00    -0.390 OA
HETATM   98  H   UNK N   1      32.929  10.578   4.731  0.00  0.00     0.210 HD
ENDBRANCH  79  97
ENDBRANCH   6  79
BRANCH   7  99
HETATM   99  C   UNK N   1      30.384  16.046   5.447  0.00  0.00     0.158 C 
BRANCH  99 100
HETATM  100  C   UNK N   1      30.419  17.269   4.552  0.00  0.00     0.137 C 
BRANCH 100 101
HETATM  101  C   UNK N   1      31.795  17.441   3.985  0.00  0.00     0.217 C 
HETATM  102  O   UNK N   1      32.702  17.874   4.679  0.00  0.00    -0.274 OA
HETATM  103  N   UNK N   1      32.037  17.111   2.703  0.00  0.00    -0.370 N 
HETATM  104  H   UNK N   1      31.719  16.257   2.331  0.00  0.00     0.159 HD
HETATM  105  H   UNK N   1      32.539  17.733   2.129  0.00  0.00     0.159 HD
ENDBRANCH 100 101
ENDBRANCH  99 100
BRANCH  99 106
HETATM  106  O   UNK N   1      30.626  16.509   6.746  0.00  0.00    -0.393 OA
HETATM  107  H   UNK N   1      30.639  15.896   7.498  0.00  0.00     0.210 HD
ENDBRANCH  99 106
ENDBRANCH   7  99
TORSDOF 28
ENDMDL
MODEL 6
REMARK VINA RESULT:      -7.8      6.642     12.822
REMARK  28 active torsions:
REMARK  status: ('A' for Active; 'I' for Inactive)
REMARK    1  A    between atoms: C_21  and  C_6 
REMARK    2  A    between atoms: C_34  and  C_7 
REMARK    3  A    between atoms: C_58  and  C_9 
REMARK    4  A    between atoms: S_15  and  O_35 
REMARK    5  A    between atoms: O_61  and  S_15 
REMARK    6  A    between atoms: C_37  and  C_21 
REMARK    7  A    between atoms: C_21  and  O_70 
REMARK    8  A    between atoms: C_49  and  C_24 
REMARK    9  A    between atoms: C_25  and  C_52 
REMARK   10  A    between atoms: C_27  and  O_72 
REMARK   11  A    between atoms: N_33  and  C_28 
REMARK   12  A    between atoms: O_35  and  C_29 
REMARK       I    between atoms: C_30  and  N_33 
REMARK   13  A    between atoms: C_50  and  C_30 
REMARK   14  A    between atoms: C_31  and  O_73 
REMARK   15  A    between atoms: C_36  and  C_34 
REMARK   16  A    between atoms: C_34  and  O_75 
REMARK   17  A    between atoms: C_44  and  C_36 
REMARK   18  A    between atoms: C_38  and  C_37 
REMARK   19  A    between atoms: C_37  and  O_74 
REMARK   20  A    between atoms: C_43  and  O_77 
REMARK       I    between atoms: N_71  and  C_44 
REMARK   21  A    between atoms: O_80  and  C_53 
REMARK   22  A    between atoms: C_58  and  O_82 
REMARK   23  A    between atoms: C_59  and  O_81 
REMARK   24  A    between atoms: O_84  and  C_76 
REMARK   25  A    between atoms: C_86  and  O_84 
REMARK   26  A    between atoms: C_87  and  C_86 
REMARK   27  A    between atoms: C_89  and  C_87 
REMARK   28  A    between atoms: C_88  and  C_89 
ROOT
HETATM    1  N   UNK N   1      26.819   8.457   0.506  0.00  0.00    -0.334 N 
HETATM    2  N   UNK N   1      26.066  14.389   6.211  0.00  0.00    -0.334 N 
HETATM    3  C   UNK N   1      26.459   7.237   1.186  0.00  0.00     0.208 C 
HETATM    4  C   UNK N   1      27.018   9.634   1.177  0.00  0.00     0.246 C 
HETATM    5  C   UNK N   1      25.881  13.028   6.269  0.00  0.00     0.246 C 
HETATM    6  C   UNK N   1      29.331  12.772   3.449  0.00  0.00     0.208 C 
HETATM    7  C   UNK N   1      27.669  10.893   0.573  0.00  0.00     0.206 C 
HETATM    8  C   UNK N   1      25.092   7.307   1.792  0.00  0.00     0.245 C 
HETATM    9  C   UNK N   1      24.938  12.316   7.217  0.00  0.00     0.205 C 
HETATM   10  N   UNK N   1      27.885  11.897   1.618  0.00  0.00    -0.344 N 
HETATM   11  N   UNK N   1      28.536  13.515   4.410  0.00  0.00    -0.344 N 
HETATM   12  N   UNK N   1      23.837  11.941   6.387  0.00  0.00    -0.344 N 
HETATM   13  C   UNK N   1      28.701  11.656   2.692  0.00  0.00     0.243 C 
HETATM   14  N   UNK N   1      24.984   7.546   3.122  0.00  0.00    -0.331 N 
HETATM   15  C   UNK N   1      27.471  14.297   4.097  0.00  0.00     0.241 C 
HETATM   16  C   UNK N   1      26.770  15.083   5.165  0.00  0.00     0.181 C 
HETATM   17  C   UNK N   1      23.792  11.019   5.391  0.00  0.00     0.241 C 
HETATM   18  C   UNK N   1      27.146   8.245  -0.878  0.00  0.00     0.134 C 
HETATM   19  C   UNK N   1      26.546   6.163   0.119  0.00  0.00     0.155 C 
HETATM   20  C   UNK N   1      22.553  11.011   4.523  0.00  0.00     0.179 C 
HETATM   21  C   UNK N   1      23.737   7.842   3.801  0.00  0.00     0.249 C 
HETATM   22  C   UNK N   1      27.485   6.768  -0.910  0.00  0.00     0.031 C 
HETATM   23  C   UNK N   1      21.974   9.679   3.993  0.00  0.00     0.071 C 
HETATM   24  C   UNK N   1      25.640  15.308   7.218  0.00  0.00     0.158 C 
HETATM   25  C   UNK N   1      27.539  16.146   5.901  0.00  0.00     0.068 C 
HETATM   26  C   UNK N   1      22.927   8.928   3.071  0.00  0.00     0.169 C 
HETATM   27  O   UNK N   1      26.414  12.313   5.438  0.00  0.00    -0.271 OA
HETATM   28  O   UNK N   1      26.688   9.680   2.364  0.00  0.00    -0.271 OA
HETATM   29  O   UNK N   1      24.101   7.287   1.073  0.00  0.00    -0.271 OA
HETATM   30  O   UNK N   1      29.117  10.528   2.912  0.00  0.00    -0.271 OA
HETATM   31  O   UNK N   1      27.056  14.361   2.949  0.00  0.00    -0.271 OA
HETATM   32  O   UNK N   1      24.730  10.268   5.180  0.00  0.00    -0.271 OA
HETATM   33  C   UNK N   1      26.557  16.520   7.022  0.00  0.00     0.138 C 
HETATM   34  C   UNK N   1      27.285   6.169  -2.286  0.00  0.00     0.014 C 
HETATM   35  H   UNK N   1      27.432  12.768   1.546  0.00  0.00     0.163 HD
HETATM   36  H   UNK N   1      28.787  13.447   5.359  0.00  0.00     0.163 HD
HETATM   37  H   UNK N   1      22.993  12.417   6.562  0.00  0.00     0.163 HD
HETATM   38  H   UNK N   1      25.807   7.518   3.664  0.00  0.00     0.165 HD
ENDROOT
BRANCH  20  39
HETATM   39  N   UNK N   1      21.560  11.891   5.119  0.00  0.00    -0.344 N 
HETATM   40  C   UNK N   1      20.748  12.747   4.422  0.00  0.00     0.252 C 
HETATM   41  O   UNK N   1      19.831  13.290   5.023  0.00  0.00    -0.268 OA
HETATM   42  H   UNK N   1      21.464  11.870   6.098  0.00  0.00     0.163 HD
BRANCH  40  43
HETATM   43  C   UNK N   1      21.004  13.145   2.997  0.00  0.00     0.032 C 
HETATM   44  C   UNK N   1      22.070  14.027   2.784  0.00  0.00     0.018 C 
HETATM   45  C   UNK N   1      21.846  15.259   2.198  0.00  0.00     0.015 C 
HETATM   46  C   UNK N   1      20.587  15.517   1.694  0.00  0.00    -0.007 C 
HETATM   47  C   UNK N   1      19.658  14.458   1.565  0.00  0.00     0.015 C 
HETATM   48  C   UNK N   1      19.866  13.269   2.219  0.00  0.00     0.018 C 
BRANCH  46  49
HETATM   49  C   UNK N   1      19.982  16.828   1.938  0.00  0.00     0.068 A 
HETATM   50  N   UNK N   1      19.311  17.097   3.067  0.00  0.00    -0.260 N 
HETATM   51  O   UNK N   1      19.736  18.251   3.497  0.00  0.00    -0.237 OA
ATOM     52  HN  UNK N   1      18.603  16.509   3.508  1.00  0.00     0.195 HD
HETATM   53  C   UNK N   1      20.669  18.730   2.704  0.00  0.00     0.111 A 
HETATM   54  C   UNK N   1      20.812  17.885   1.656  0.00  0.00     0.072 A 
BRANCH  53  55
HETATM   55  C   UNK N   1      21.897  19.336   3.250  0.00  0.00    -0.000 A 
HETATM   56  C   UNK N   1      22.766  18.574   4.034  0.00  0.00     0.017 A 
HETATM   57  C   UNK N   1      24.106  18.960   4.171  0.00  0.00     0.037 A 
HETATM   58  C   UNK N   1      24.602  20.069   3.469  0.00  0.00     0.068 A 
HETATM   59  C   UNK N   1      23.722  20.854   2.716  0.00  0.00     0.037 A 
HETATM   60  C   UNK N   1      22.387  20.496   2.614  0.00  0.00     0.017 A 
BRANCH  58  61
HETATM   61  O   UNK N   1      25.934  20.327   3.486  0.00  0.00    -0.351 OA
BRANCH  61  62
HETATM   62  C   UNK N   1      26.890  19.378   3.807  0.00  0.00     0.175 C 
BRANCH  62  63
HETATM   63  C   UNK N   1      27.984  19.918   4.718  0.00  0.00     0.027 C 
BRANCH  63  64
HETATM   64  C   UNK N   1      27.451  20.048   6.136  0.00  0.00     0.002 C 
BRANCH  64  65
HETATM   65  C   UNK N   1      27.082  21.491   6.434  0.00  0.00    -0.004 C 
HETATM   66  C   UNK N   1      26.096  21.543   7.583  0.00  0.00     0.005 C 
ENDBRANCH  64  65
ENDBRANCH  63  64
ENDBRANCH  62  63
ENDBRANCH  61  62
ENDBRANCH  58  61
ENDBRANCH  53  55
ENDBRANCH  46  49
ENDBRANCH  40  43
ENDBRANCH  20  39
BRANCH  26  67
HETATM   67  O   UNK N   1      23.746   9.835   2.391  0.00  0.00    -0.391 OA
HETATM   68  H   UNK N   1      23.625  10.797   2.418  0.00  0.00     0.210 HD
ENDBRANCH  26  67
BRANCH   9  69
HETATM   69  C   UNK N   1      24.310  13.000   8.447  0.00  0.00     0.146 C 
HETATM   70  C   UNK N   1      22.800  13.102   8.411  0.00  0.00     0.042 C 
BRANCH  69  71
HETATM   71  O   UNK N   1      24.777  12.499   9.668  0.00  0.00    -0.393 OA
HETATM   72  H   UNK N   1      25.472  12.190  10.271  0.00  0.00     0.210 HD
ENDBRANCH  69  71
ENDBRANCH   9  69
BRANCH  21  73
HETATM   73  O   UNK N   1      22.979   6.679   3.954  0.00  0.00    -0.374 OA
HETATM   74  H   UNK N   1      22.087   6.702   4.335  0.00  0.00     0.212 HD
ENDBRANCH  21  73
BRANCH  33  75
HETATM   75  O   UNK N   1      27.261  16.766   8.199  0.00  0.00    -0.394 OA
HETATM   76  H   UNK N   1      27.620  16.291   8.965  0.00  0.00     0.210 HD
ENDBRANCH  33  75
BRANCH  19  77
HETATM   77  O   UNK N   1      27.069   4.981   0.642  0.00  0.00    -0.393 OA
HETATM   78  H   UNK N   1      27.782   4.394   0.939  0.00  0.00     0.210 HD
ENDBRANCH  19  77
BRANCH   6  79
HETATM   79  C   UNK N   1      30.201  13.633   2.553  0.00  0.00     0.183 C 
BRANCH  79  80
HETATM   80  C   UNK N   1      31.632  13.493   3.042  0.00  0.00     0.182 C 
BRANCH  80  81
HETATM   81  C   UNK N   1      32.060  14.709   3.770  0.00  0.00    -0.024 A 
HETATM   82  C   UNK N   1      31.951  14.803   5.160  0.00  0.00     0.051 A 
HETATM   83  C   UNK N   1      32.543  15.877   5.843  0.00  0.00     0.124 A 
HETATM   84  C   UNK N   1      33.267  16.832   5.113  0.00  0.00     0.100 A 
HETATM   85  C   UNK N   1      33.360  16.739   3.724  0.00  0.00     0.040 A 
HETATM   86  C   UNK N   1      32.760  15.678   3.055  0.00  0.00     0.013 A 
BRANCH  83  87
HETATM   87  O   UNK N   1      32.416  16.042   7.201  0.00  0.00    -0.218 OA
BRANCH  87  88
HETATM   88  S   UNK N   1      31.088  16.621   8.165  0.00  0.00     0.245 S 
HETATM   89  O   UNK N   1      31.382  18.044   8.665  0.00  0.00    -0.579 OA
HETATM   90  O   UNK N   1      30.946  17.486   6.906  0.00  0.00    -0.579 OA
BRANCH  88  91
HETATM   91  O   UNK N   1      32.542  16.676   9.087  0.00  0.00    -0.273 OA
HETATM   92  H   UNK N   1      33.180  16.029   9.424  0.00  0.00     0.234 HD
ENDBRANCH  88  91
ENDBRANCH  87  88
ENDBRANCH  83  87
BRANCH  84  93
HETATM   93  O   UNK N   1      33.853  17.861   5.745  0.00  0.00    -0.358 OA
HETATM   94  H   UNK N   1      34.637  17.876   6.257  0.00  0.00     0.217 HD
ENDBRANCH  84  93
ENDBRANCH  80  81
BRANCH  80  95
HETATM   95  O   UNK N   1      32.479  13.212   1.965  0.00  0.00    -0.388 OA
HETATM   96  H   UNK N   1      32.435  13.357   1.007  0.00  0.00     0.210 HD
ENDBRANCH  80  95
ENDBRANCH  79  80
BRANCH  79  97
HETATM   97  O   UNK N   1      29.764  14.964   2.558  0.00  0.00    -0.390 OA
HETATM   98  H   UNK N   1      29.029  15.586   2.439  0.00  0.00     0.210 HD
ENDBRANCH  79  97
ENDBRANCH   6  79
BRANCH   7  99
HETATM   99  C   UNK N   1      29.072  10.644  -0.065  0.00  0.00     0.158 C 
BRANCH  99 100
HETATM  100  C   UNK N   1      29.927  11.871  -0.311  0.00  0.00     0.137 C 
BRANCH 100 101
HETATM  101  C   UNK N   1      31.208  11.470  -0.976  0.00  0.00     0.217 C 
HETATM  102  O   UNK N   1      31.263  11.339  -2.188  0.00  0.00    -0.274 OA
HETATM  103  N   UNK N   1      32.310  11.259  -0.233  0.00  0.00    -0.370 N 
HETATM  104  H   UNK N   1      32.581  11.897   0.466  0.00  0.00     0.159 HD
HETATM  105  H   UNK N   1      32.853  10.452  -0.389  0.00  0.00     0.159 HD
ENDBRANCH 100 101
ENDBRANCH  99 100
BRANCH  99 106
HETATM  106  O   UNK N   1      29.840   9.792   0.738  0.00  0.00    -0.393 OA
HETATM  107  H   UNK N   1      29.429   9.273   1.448  0.00  0.00     0.210 HD
ENDBRANCH  99 106
ENDBRANCH   7  99
TORSDOF 28
ENDMDL
MODEL 7
REMARK VINA RESULT:      -7.7      5.018     12.022
REMARK  28 active torsions:
REMARK  status: ('A' for Active; 'I' for Inactive)
REMARK    1  A    between atoms: C_21  and  C_6 
REMARK    2  A    between atoms: C_34  and  C_7 
REMARK    3  A    between atoms: C_58  and  C_9 
REMARK    4  A    between atoms: S_15  and  O_35 
REMARK    5  A    between atoms: O_61  and  S_15 
REMARK    6  A    between atoms: C_37  and  C_21 
REMARK    7  A    between atoms: C_21  and  O_70 
REMARK    8  A    between atoms: C_49  and  C_24 
REMARK    9  A    between atoms: C_25  and  C_52 
REMARK   10  A    between atoms: C_27  and  O_72 
REMARK   11  A    between atoms: N_33  and  C_28 
REMARK   12  A    between atoms: O_35  and  C_29 
REMARK       I    between atoms: C_30  and  N_33 
REMARK   13  A    between atoms: C_50  and  C_30 
REMARK   14  A    between atoms: C_31  and  O_73 
REMARK   15  A    between atoms: C_36  and  C_34 
REMARK   16  A    between atoms: C_34  and  O_75 
REMARK   17  A    between atoms: C_44  and  C_36 
REMARK   18  A    between atoms: C_38  and  C_37 
REMARK   19  A    between atoms: C_37  and  O_74 
REMARK   20  A    between atoms: C_43  and  O_77 
REMARK       I    between atoms: N_71  and  C_44 
REMARK   21  A    between atoms: O_80  and  C_53 
REMARK   22  A    between atoms: C_58  and  O_82 
REMARK   23  A    between atoms: C_59  and  O_81 
REMARK   24  A    between atoms: O_84  and  C_76 
REMARK   25  A    between atoms: C_86  and  O_84 
REMARK   26  A    between atoms: C_87  and  C_86 
REMARK   27  A    between atoms: C_89  and  C_87 
REMARK   28  A    between atoms: C_88  and  C_89 
ROOT
HETATM    1  N   UNK N   1      32.028  15.886   6.445  0.00  0.00    -0.334 N 
HETATM    2  N   UNK N   1      27.389  10.505   2.224  0.00  0.00    -0.334 N 
HETATM    3  C   UNK N   1      32.527  15.143   7.577  0.00  0.00     0.208 C 
HETATM    4  C   UNK N   1      31.051  15.393   5.623  0.00  0.00     0.246 C 
HETATM    5  C   UNK N   1      28.100  10.386   3.395  0.00  0.00     0.246 C 
HETATM    6  C   UNK N   1      26.846  14.595   4.196  0.00  0.00     0.208 C 
HETATM    7  C   UNK N   1      30.276  16.222   4.581  0.00  0.00     0.206 C 
HETATM    8  C   UNK N   1      33.273  13.913   7.164  0.00  0.00     0.245 C 
HETATM    9  C   UNK N   1      28.703   9.101   3.922  0.00  0.00     0.205 C 
HETATM   10  N   UNK N   1      29.189  15.422   4.011  0.00  0.00    -0.344 N 
HETATM   11  N   UNK N   1      26.693  13.346   3.471  0.00  0.00    -0.344 N 
HETATM   12  N   UNK N   1      30.100   9.244   3.657  0.00  0.00    -0.344 N 
HETATM   13  C   UNK N   1      28.170  14.935   4.786  0.00  0.00     0.243 C 
HETATM   14  N   UNK N   1      32.639  12.716   7.233  0.00  0.00    -0.331 N 
HETATM   15  C   UNK N   1      27.318  13.043   2.305  0.00  0.00     0.241 C 
HETATM   16  C   UNK N   1      27.023  11.750   1.602  0.00  0.00     0.181 C 
HETATM   17  C   UNK N   1      30.996  10.089   4.228  0.00  0.00     0.241 C 
HETATM   18  C   UNK N   1      32.506  17.242   6.419  0.00  0.00     0.134 C 
HETATM   19  C   UNK N   1      33.421  16.121   8.314  0.00  0.00     0.155 C 
HETATM   20  C   UNK N   1      32.357  10.185   3.573  0.00  0.00     0.179 C 
HETATM   21  C   UNK N   1      33.160  11.482   6.678  0.00  0.00     0.249 C 
HETATM   22  C   UNK N   1      32.905  17.475   7.863  0.00  0.00     0.031 C 
HETATM   23  C   UNK N   1      33.630  10.363   4.431  0.00  0.00     0.071 C 
HETATM   24  C   UNK N   1      26.851   9.406   1.488  0.00  0.00     0.158 C 
HETATM   25  C   UNK N   1      25.626  11.501   1.105  0.00  0.00     0.068 C 
HETATM   26  C   UNK N   1      33.647  11.661   5.229  0.00  0.00     0.169 C 
HETATM   27  O   UNK N   1      28.384  11.388   4.030  0.00  0.00    -0.271 OA
HETATM   28  O   UNK N   1      30.739  14.207   5.750  0.00  0.00    -0.271 OA
HETATM   29  O   UNK N   1      34.378  14.011   6.647  0.00  0.00    -0.271 OA
HETATM   30  O   UNK N   1      28.239  14.987   6.005  0.00  0.00    -0.271 OA
HETATM   31  O   UNK N   1      28.139  13.806   1.817  0.00  0.00    -0.271 OA
HETATM   32  O   UNK N   1      30.697  10.773   5.193  0.00  0.00    -0.271 OA
HETATM   33  C   UNK N   1      25.704  10.025   0.684  0.00  0.00     0.138 C 
HETATM   34  C   UNK N   1      33.954  18.558   7.994  0.00  0.00     0.014 C 
HETATM   35  H   UNK N   1      29.191  15.230   3.045  0.00  0.00     0.163 HD
HETATM   36  H   UNK N   1      26.091  12.667   3.854  0.00  0.00     0.163 HD
HETATM   37  H   UNK N   1      30.463   8.645   2.965  0.00  0.00     0.163 HD
HETATM   38  H   UNK N   1      31.766  12.682   7.689  0.00  0.00     0.165 HD
ENDROOT
BRANCH  20  39
HETATM   39  N   UNK N   1      32.464   9.142   2.566  0.00  0.00    -0.344 N 
HETATM   40  C   UNK N   1      32.482   9.355   1.212  0.00  0.00     0.252 C 
HETATM   41  O   UNK N   1      32.765   8.413   0.484  0.00  0.00    -0.268 OA
HETATM   42  H   UNK N   1      32.529   8.211   2.880  0.00  0.00     0.163 HD
BRANCH  40  43
HETATM   43  C   UNK N   1      32.052  10.645   0.577  0.00  0.00     0.032 C 
HETATM   44  C   UNK N   1      30.683  10.777   0.312  0.00  0.00     0.018 C 
HETATM   45  C   UNK N   1      30.242  10.976  -0.983  0.00  0.00     0.015 C 
HETATM   46  C   UNK N   1      31.188  11.196  -1.963  0.00  0.00    -0.007 C 
HETATM   47  C   UNK N   1      32.528  11.457  -1.591  0.00  0.00     0.015 C 
HETATM   48  C   UNK N   1      32.962  11.181  -0.318  0.00  0.00     0.018 C 
BRANCH  46  49
HETATM   49  C   UNK N   1      31.038  10.525  -3.255  0.00  0.00     0.068 A 
HETATM   50  N   UNK N   1      31.690   9.388  -3.541  0.00  0.00    -0.260 N 
HETATM   51  O   UNK N   1      30.821   8.574  -4.070  0.00  0.00    -0.237 OA
ATOM     52  HN  UNK N   1      32.678   9.196  -3.375  1.00  0.00     0.195 HD
HETATM   53  C   UNK N   1      29.630   9.129  -4.119  0.00  0.00     0.111 A 
HETATM   54  C   UNK N   1      29.735  10.402  -3.671  0.00  0.00     0.072 A 
BRANCH  53  55
HETATM   55  C   UNK N   1      28.423   8.378  -3.731  0.00  0.00    -0.000 A 
HETATM   56  C   UNK N   1      28.209   8.035  -2.394  0.00  0.00     0.017 A 
HETATM   57  C   UNK N   1      26.914   7.749  -1.943  0.00  0.00     0.037 A 
HETATM   58  C   UNK N   1      25.815   7.873  -2.808  0.00  0.00     0.068 A 
HETATM   59  C   UNK N   1      26.035   8.178  -4.155  0.00  0.00     0.037 A 
HETATM   60  C   UNK N   1      27.321   8.420  -4.611  0.00  0.00     0.017 A 
BRANCH  58  61
HETATM   61  O   UNK N   1      24.559   7.752  -2.311  0.00  0.00    -0.351 OA
BRANCH  61  62
HETATM   62  C   UNK N   1      23.619   8.769  -2.360  0.00  0.00     0.175 C 
BRANCH  62  63
HETATM   63  C   UNK N   1      22.362   8.383  -3.127  0.00  0.00     0.027 C 
BRANCH  63  64
HETATM   64  C   UNK N   1      21.281   7.945  -2.151  0.00  0.00     0.002 C 
BRANCH  64  65
HETATM   65  C   UNK N   1      21.388   8.728  -0.854  0.00  0.00    -0.004 C 
HETATM   66  C   UNK N   1      20.057   9.380  -0.537  0.00  0.00     0.005 C 
ENDBRANCH  64  65
ENDBRANCH  63  64
ENDBRANCH  62  63
ENDBRANCH  61  62
ENDBRANCH  58  61
ENDBRANCH  53  55
ENDBRANCH  46  49
ENDBRANCH  40  43
ENDBRANCH  20  39
BRANCH  26  67
HETATM   67  O   UNK N   1      32.931  12.650   4.546  0.00  0.00    -0.391 OA
HETATM   68  H   UNK N   1      32.363  12.473   3.780  0.00  0.00     0.210 HD
ENDBRANCH  26  67
BRANCH   9  69
HETATM   69  C   UNK N   1      28.322   7.710   3.377  0.00  0.00     0.146 C 
HETATM   70  C   UNK N   1      29.474   6.927   2.785  0.00  0.00     0.042 C 
BRANCH  69  71
HETATM   71  O   UNK N   1      27.567   6.943   4.274  0.00  0.00    -0.393 OA
HETATM   72  H   UNK N   1      27.443   6.438   5.093  0.00  0.00     0.210 HD
ENDBRANCH  69  71
ENDBRANCH   9  69
BRANCH  21  73
HETATM   73  O   UNK N   1      34.183  10.980   7.485  0.00  0.00    -0.374 OA
HETATM   74  H   UNK N   1      34.223  10.041   7.727  0.00  0.00     0.212 HD
ENDBRANCH  21  73
BRANCH  33  75
HETATM   75  O   UNK N   1      24.510   9.382   1.005  0.00  0.00    -0.394 OA
HETATM   76  H   UNK N   1      24.126   8.492   1.022  0.00  0.00     0.210 HD
ENDBRANCH  33  75
BRANCH  19  77
HETATM   77  O   UNK N   1      33.292  15.970   9.695  0.00  0.00    -0.393 OA
HETATM   78  H   UNK N   1      33.167  15.464  10.513  0.00  0.00     0.210 HD
ENDBRANCH  19  77
BRANCH   6  79
HETATM   79  C   UNK N   1      26.210  15.795   3.520  0.00  0.00     0.183 C 
BRANCH  79  80
HETATM   80  C   UNK N   1      25.177  16.360   4.479  0.00  0.00     0.182 C 
BRANCH  80  81
HETATM   81  C   UNK N   1      24.585  17.606   3.941  0.00  0.00    -0.024 A 
HETATM   82  C   UNK N   1      23.252  17.944   4.182  0.00  0.00     0.051 A 
HETATM   83  C   UNK N   1      22.771  19.216   3.833  0.00  0.00     0.124 A 
HETATM   84  C   UNK N   1      23.657  20.147   3.269  0.00  0.00     0.100 A 
HETATM   85  C   UNK N   1      24.985  19.798   3.019  0.00  0.00     0.040 A 
HETATM   86  C   UNK N   1      25.448  18.531   3.357  0.00  0.00     0.013 A 
BRANCH  83  87
HETATM   87  O   UNK N   1      21.456  19.574   3.999  0.00  0.00    -0.218 OA
BRANCH  87  88
HETATM   88  S   UNK N   1      20.144  19.680   2.860  0.00  0.00     0.245 S 
HETATM   89  O   UNK N   1      20.387  20.843   1.886  0.00  0.00    -0.579 OA
HETATM   90  O   UNK N   1      21.283  19.174   1.964  0.00  0.00    -0.579 OA
BRANCH  88  91
HETATM   91  O   UNK N   1      20.309  21.177   3.696  0.00  0.00    -0.273 OA
HETATM   92  H   UNK N   1      20.279  22.117   3.458  0.00  0.00     0.234 HD
ENDBRANCH  88  91
ENDBRANCH  87  88
ENDBRANCH  83  87
BRANCH  84  93
HETATM   93  O   UNK N   1      23.226  21.373   2.939  0.00  0.00    -0.358 OA
HETATM   94  H   UNK N   1      23.633  22.021   2.397  0.00  0.00     0.217 HD
ENDBRANCH  84  93
ENDBRANCH  80  81
BRANCH  80  95
HETATM   95  O   UNK N   1      25.754  16.564   5.737  0.00  0.00    -0.388 OA
HETATM   96  H   UNK N   1      26.655  16.505   6.091  0.00  0.00     0.210 HD
ENDBRANCH  80  95
ENDBRANCH  79  80
BRANCH  79  97
HETATM   97  O   UNK N   1      25.653  15.440   2.285  0.00  0.00    -0.390 OA
HETATM   98  H   UNK N   1      25.168  15.721   1.493  0.00  0.00     0.210 HD
ENDBRANCH  79  97
ENDBRANCH   6  79
BRANCH   7  99
HETATM   99  C   UNK N   1      29.595  17.502   5.161  0.00  0.00     0.158 C 
BRANCH  99 100
HETATM  100  C   UNK N   1      29.662  17.677   6.665  0.00  0.00     0.137 C 
BRANCH 100 101
HETATM  101  C   UNK N   1      28.367  18.240   7.166  0.00  0.00     0.217 C 
HETATM  102  O   UNK N   1      28.057  19.396   6.923  0.00  0.00    -0.274 OA
HETATM  103  N   UNK N   1      27.534  17.464   7.885  0.00  0.00    -0.370 N 
HETATM  104  H   UNK N   1      27.313  16.551   7.593  0.00  0.00     0.159 HD
HETATM  105  H   UNK N   1      27.141  17.816   8.717  0.00  0.00     0.159 HD
ENDBRANCH 100 101
ENDBRANCH  99 100
BRANCH  99 106
HETATM  106  O   UNK N   1      30.160  18.659   4.610  0.00  0.00    -0.393 OA
HETATM  107  H   UNK N   1      30.175  19.491   5.109  0.00  0.00     0.210 HD
ENDBRANCH  99 106
ENDBRANCH   7  99
TORSDOF 28
ENDMDL
MODEL 8
REMARK VINA RESULT:      -7.7      4.919      8.914
REMARK  28 active torsions:
REMARK  status: ('A' for Active; 'I' for Inactive)
REMARK    1  A    between atoms: C_21  and  C_6 
REMARK    2  A    between atoms: C_34  and  C_7 
REMARK    3  A    between atoms: C_58  and  C_9 
REMARK    4  A    between atoms: S_15  and  O_35 
REMARK    5  A    between atoms: O_61  and  S_15 
REMARK    6  A    between atoms: C_37  and  C_21 
REMARK    7  A    between atoms: C_21  and  O_70 
REMARK    8  A    between atoms: C_49  and  C_24 
REMARK    9  A    between atoms: C_25  and  C_52 
REMARK   10  A    between atoms: C_27  and  O_72 
REMARK   11  A    between atoms: N_33  and  C_28 
REMARK   12  A    between atoms: O_35  and  C_29 
REMARK       I    between atoms: C_30  and  N_33 
REMARK   13  A    between atoms: C_50  and  C_30 
REMARK   14  A    between atoms: C_31  and  O_73 
REMARK   15  A    between atoms: C_36  and  C_34 
REMARK   16  A    between atoms: C_34  and  O_75 
REMARK   17  A    between atoms: C_44  and  C_36 
REMARK   18  A    between atoms: C_38  and  C_37 
REMARK   19  A    between atoms: C_37  and  O_74 
REMARK   20  A    between atoms: C_43  and  O_77 
REMARK       I    between atoms: N_71  and  C_44 
REMARK   21  A    between atoms: O_80  and  C_53 
REMARK   22  A    between atoms: C_58  and  O_82 
REMARK   23  A    between atoms: C_59  and  O_81 
REMARK   24  A    between atoms: O_84  and  C_76 
REMARK   25  A    between atoms: C_86  and  O_84 
REMARK   26  A    between atoms: C_87  and  C_86 
REMARK   27  A    between atoms: C_89  and  C_87 
REMARK   28  A    between atoms: C_88  and  C_89 
ROOT
HETATM    1  N   UNK N   1      33.059  13.860   6.573  0.00  0.00    -0.334 N 
HETATM    2  N   UNK N   1      35.734   7.349  10.903  0.00  0.00    -0.334 N 
HETATM    3  C   UNK N   1      33.639  13.701   5.262  0.00  0.00     0.208 C 
HETATM    4  C   UNK N   1      33.439  13.087   7.638  0.00  0.00     0.246 C 
HETATM    5  C   UNK N   1      35.967   7.752   9.609  0.00  0.00     0.246 C 
HETATM    6  C   UNK N   1      35.885  11.906  11.240  0.00  0.00     0.208 C 
HETATM    7  C   UNK N   1      33.082  13.375   9.108  0.00  0.00     0.206 C 
HETATM    8  C   UNK N   1      33.282  12.387   4.639  0.00  0.00     0.245 C 
HETATM    9  C   UNK N   1      36.298   6.829   8.455  0.00  0.00     0.205 C 
HETATM   10  N   UNK N   1      33.800  12.451   9.990  0.00  0.00    -0.344 N 
HETATM   11  N   UNK N   1      35.994  10.472  11.439  0.00  0.00    -0.344 N 
HETATM   12  N   UNK N   1      35.084   6.772   7.703  0.00  0.00    -0.344 N 
HETATM   13  C   UNK N   1      35.168  12.422  10.041  0.00  0.00     0.243 C 
HETATM   14  N   UNK N   1      34.197  11.386   4.669  0.00  0.00    -0.331 N 
HETATM   15  C   UNK N   1      34.950   9.638  11.675  0.00  0.00     0.241 C 
HETATM   16  C   UNK N   1      35.190   8.182  11.942  0.00  0.00     0.181 C 
HETATM   17  C   UNK N   1      34.487   7.745   6.967  0.00  0.00     0.241 C 
HETATM   18  C   UNK N   1      32.227  15.028   6.673  0.00  0.00     0.134 C 
HETATM   19  C   UNK N   1      33.098  14.868   4.460  0.00  0.00     0.155 C 
HETATM   20  C   UNK N   1      33.081   7.469   6.481  0.00  0.00     0.179 C 
HETATM   21  C   UNK N   1      33.918  10.014   4.293  0.00  0.00     0.249 C 
HETATM   22  C   UNK N   1      32.726  15.883   5.525  0.00  0.00     0.031 C 
HETATM   23  C   UNK N   1      32.619   7.965   5.092  0.00  0.00     0.071 C 
HETATM   24  C   UNK N   1      36.061   6.058  11.421  0.00  0.00     0.158 C 
HETATM   25  C   UNK N   1      35.983   7.793  13.159  0.00  0.00     0.068 C 
HETATM   26  C   UNK N   1      32.634   9.483   4.955  0.00  0.00     0.169 C 
HETATM   27  O   UNK N   1      35.796   8.920   9.304  0.00  0.00    -0.271 OA
HETATM   28  O   UNK N   1      34.153  12.108   7.409  0.00  0.00    -0.271 OA
HETATM   29  O   UNK N   1      32.142  12.187   4.241  0.00  0.00    -0.271 OA
HETATM   30  O   UNK N   1      35.833  13.027   9.213  0.00  0.00    -0.271 OA
HETATM   31  O   UNK N   1      33.800  10.053  11.657  0.00  0.00    -0.271 OA
HETATM   32  O   UNK N   1      35.045   8.809   6.753  0.00  0.00    -0.271 OA
HETATM   33  C   UNK N   1      36.188   6.287  12.930  0.00  0.00     0.138 C 
HETATM   34  C   UNK N   1      31.673  16.857   5.043  0.00  0.00     0.014 C 
HETATM   35  H   UNK N   1      33.285  11.836  10.560  0.00  0.00     0.163 HD
HETATM   36  H   UNK N   1      36.894  10.074  11.398  0.00  0.00     0.163 HD
HETATM   37  H   UNK N   1      34.615   5.906   7.721  0.00  0.00     0.163 HD
HETATM   38  H   UNK N   1      35.110  11.606   4.965  0.00  0.00     0.165 HD
ENDROOT
BRANCH  20  39
HETATM   39  N   UNK N   1      32.762   6.075   6.746  0.00  0.00    -0.344 N 
HETATM   40  C   UNK N   1      32.000   5.628   7.794  0.00  0.00     0.252 C 
HETATM   41  O   UNK N   1      31.653   4.455   7.795  0.00  0.00    -0.268 OA
HETATM   42  H   UNK N   1      33.122   5.400   6.125  0.00  0.00     0.163 HD
BRANCH  40  43
HETATM   43  C   UNK N   1      31.679   6.470   8.994  0.00  0.00     0.032 C 
HETATM   44  C   UNK N   1      32.267   6.074  10.201  0.00  0.00     0.018 C 
HETATM   45  C   UNK N   1      31.475   5.737  11.283  0.00  0.00     0.015 C 
HETATM   46  C   UNK N   1      30.116   5.953  11.182  0.00  0.00    -0.007 C 
HETATM   47  C   UNK N   1      29.611   6.726  10.110  0.00  0.00     0.015 C 
HETATM   48  C   UNK N   1      30.394   6.984   9.012  0.00  0.00     0.018 C 
BRANCH  46  49
HETATM   49  C   UNK N   1      29.197   4.925  11.674  0.00  0.00     0.068 A 
HETATM   50  N   UNK N   1      29.195   3.682  11.173  0.00  0.00    -0.260 N 
HETATM   51  O   UNK N   1      29.172   2.863  12.186  0.00  0.00    -0.237 OA
ATOM     52  HN  UNK N   1      29.209   3.425  10.186  1.00  0.00     0.195 HD
HETATM   53  C   UNK N   1      29.180   3.525  13.322  0.00  0.00     0.111 A 
HETATM   54  C   UNK N   1      29.128   4.849  13.043  0.00  0.00     0.072 A 
BRANCH  53  55
HETATM   55  C   UNK N   1      30.045   3.108  14.441  0.00  0.00    -0.000 A 
HETATM   56  C   UNK N   1      31.333   3.635  14.566  0.00  0.00     0.017 A 
HETATM   57  C   UNK N   1      31.976   3.622  15.811  0.00  0.00     0.037 A 
HETATM   58  C   UNK N   1      31.310   3.148  16.952  0.00  0.00     0.068 A 
HETATM   59  C   UNK N   1      30.036   2.585  16.817  0.00  0.00     0.037 A 
HETATM   60  C   UNK N   1      29.416   2.559  15.578  0.00  0.00     0.017 A 
BRANCH  58  61
HETATM   61  O   UNK N   1      31.886   3.296  18.170  0.00  0.00    -0.351 OA
BRANCH  61  62
HETATM   62  C   UNK N   1      32.502   4.466  18.585  0.00  0.00     0.175 C 
BRANCH  62  63
HETATM   63  C   UNK N   1      31.523   5.611  18.799  0.00  0.00     0.027 C 
BRANCH  63  64
HETATM   64  C   UNK N   1      31.864   6.342  20.089  0.00  0.00     0.002 C 
BRANCH  64  65
HETATM   65  C   UNK N   1      30.768   7.333  20.442  0.00  0.00    -0.004 C 
HETATM   66  C   UNK N   1      31.234   8.743  20.140  0.00  0.00     0.005 C 
ENDBRANCH  64  65
ENDBRANCH  63  64
ENDBRANCH  62  63
ENDBRANCH  61  62
ENDBRANCH  58  61
ENDBRANCH  53  55
ENDBRANCH  46  49
ENDBRANCH  40  43
ENDBRANCH  20  39
BRANCH  26  67
HETATM   67  O   UNK N   1      32.395  10.076   6.200  0.00  0.00    -0.391 OA
HETATM   68  H   UNK N   1      31.985   9.615   6.948  0.00  0.00     0.210 HD
ENDBRANCH  26  67
BRANCH   9  69
HETATM   69  C   UNK N   1      36.729   5.362   8.650  0.00  0.00     0.146 C 
HETATM   70  C   UNK N   1      35.741   4.339   8.132  0.00  0.00     0.042 C 
BRANCH  69  71
HETATM   71  O   UNK N   1      38.036   5.099   8.220  0.00  0.00    -0.393 OA
HETATM   72  H   UNK N   1      38.757   5.122   7.573  0.00  0.00     0.210 HD
ENDBRANCH  69  71
ENDBRANCH   9  69
BRANCH  21  73
HETATM   73  O   UNK N   1      33.842   9.896   2.903  0.00  0.00    -0.374 OA
HETATM   74  H   UNK N   1      33.617  10.654   2.341  0.00  0.00     0.212 HD
ENDBRANCH  21  73
BRANCH  33  75
HETATM   75  O   UNK N   1      37.464   5.918  13.352  0.00  0.00    -0.394 OA
HETATM   76  H   UNK N   1      38.230   6.289  13.816  0.00  0.00     0.210 HD
ENDBRANCH  33  75
BRANCH  19  77
HETATM   77  O   UNK N   1      34.073  15.376   3.601  0.00  0.00    -0.393 OA
HETATM   78  H   UNK N   1      34.518  15.484   2.746  0.00  0.00     0.210 HD
ENDBRANCH  19  77
BRANCH   6  79
HETATM   79  C   UNK N   1      35.518  12.686  12.489  0.00  0.00     0.183 C 
BRANCH  79  80
HETATM   80  C   UNK N   1      36.426  12.204  13.607  0.00  0.00     0.182 C 
BRANCH  80  81
HETATM   81  C   UNK N   1      36.211  12.998  14.838  0.00  0.00    -0.024 A 
HETATM   82  C   UNK N   1      35.629  12.435  15.977  0.00  0.00     0.051 A 
HETATM   83  C   UNK N   1      35.617  13.145  17.188  0.00  0.00     0.124 A 
HETATM   84  C   UNK N   1      36.224  14.410  17.241  0.00  0.00     0.100 A 
HETATM   85  C   UNK N   1      36.791  14.971  16.096  0.00  0.00     0.040 A 
HETATM   86  C   UNK N   1      36.786  14.265  14.898  0.00  0.00     0.013 A 
BRANCH  83  87
HETATM   87  O   UNK N   1      35.009  12.657  18.318  0.00  0.00    -0.218 OA
BRANCH  87  88
HETATM   88  S   UNK N   1      35.619  11.655  19.605  0.00  0.00     0.245 S 
HETATM   89  O   UNK N   1      34.481  11.290  20.571  0.00  0.00    -0.579 OA
HETATM   90  O   UNK N   1      34.776  10.648  18.811  0.00  0.00    -0.579 OA
BRANCH  88  91
HETATM   91  O   UNK N   1      34.878  13.063  20.266  0.00  0.00    -0.273 OA
HETATM   92  H   UNK N   1      34.676  13.394  21.155  0.00  0.00     0.234 HD
ENDBRANCH  88  91
ENDBRANCH  87  88
ENDBRANCH  83  87
BRANCH  84  93
HETATM   93  O   UNK N   1      36.238  15.103  18.390  0.00  0.00    -0.358 OA
HETATM   94  H   UNK N   1      36.859  15.734  18.697  0.00  0.00     0.217 HD
ENDBRANCH  84  93
ENDBRANCH  80  81
BRANCH  80  95
HETATM   95  O   UNK N   1      37.760  12.248  13.191  0.00  0.00    -0.388 OA
HETATM   96  H   UNK N   1      38.204  12.334  12.333  0.00  0.00     0.210 HD
ENDBRANCH  80  95
ENDBRANCH  79  80
BRANCH  79  97
HETATM   97  O   UNK N   1      34.161  12.529  12.799  0.00  0.00    -0.390 OA
HETATM   98  H   UNK N   1      33.436  11.925  13.026  0.00  0.00     0.210 HD
ENDBRANCH  79  97
ENDBRANCH   6  79
BRANCH   7  99
HETATM   99  C   UNK N   1      33.474  14.807   9.592  0.00  0.00     0.158 C 
BRANCH  99 100
HETATM  100  C   UNK N   1      32.640  15.952   9.052  0.00  0.00     0.137 C 
BRANCH 100 101
HETATM  101  C   UNK N   1      33.466  17.201   9.006  0.00  0.00     0.217 C 
HETATM  102  O   UNK N   1      33.148  18.129   8.279  0.00  0.00    -0.274 OA
HETATM  103  N   UNK N   1      34.565  17.306   9.776  0.00  0.00    -0.370 N 
HETATM  104  H   UNK N   1      34.542  17.057  10.728  0.00  0.00     0.159 HD
HETATM  105  H   UNK N   1      35.405  17.635   9.381  0.00  0.00     0.159 HD
ENDBRANCH 100 101
ENDBRANCH  99 100
BRANCH  99 106
HETATM  106  O   UNK N   1      33.400  14.898  10.988  0.00  0.00    -0.393 OA
HETATM  107  H   UNK N   1      32.573  14.701  11.455  0.00  0.00     0.210 HD
ENDBRANCH  99 106
ENDBRANCH   7  99
TORSDOF 28
ENDMDL
MODEL 9
REMARK VINA RESULT:      -7.6      4.536      8.912
REMARK  28 active torsions:
REMARK  status: ('A' for Active; 'I' for Inactive)
REMARK    1  A    between atoms: C_21  and  C_6 
REMARK    2  A    between atoms: C_34  and  C_7 
REMARK    3  A    between atoms: C_58  and  C_9 
REMARK    4  A    between atoms: S_15  and  O_35 
REMARK    5  A    between atoms: O_61  and  S_15 
REMARK    6  A    between atoms: C_37  and  C_21 
REMARK    7  A    between atoms: C_21  and  O_70 
REMARK    8  A    between atoms: C_49  and  C_24 
REMARK    9  A    between atoms: C_25  and  C_52 
REMARK   10  A    between atoms: C_27  and  O_72 
REMARK   11  A    between atoms: N_33  and  C_28 
REMARK   12  A    between atoms: O_35  and  C_29 
REMARK       I    between atoms: C_30  and  N_33 
REMARK   13  A    between atoms: C_50  and  C_30 
REMARK   14  A    between atoms: C_31  and  O_73 
REMARK   15  A    between atoms: C_36  and  C_34 
REMARK   16  A    between atoms: C_34  and  O_75 
REMARK   17  A    between atoms: C_44  and  C_36 
REMARK   18  A    between atoms: C_38  and  C_37 
REMARK   19  A    between atoms: C_37  and  O_74 
REMARK   20  A    between atoms: C_43  and  O_77 
REMARK       I    between atoms: N_71  and  C_44 
REMARK   21  A    between atoms: O_80  and  C_53 
REMARK   22  A    between atoms: C_58  and  O_82 
REMARK   23  A    between atoms: C_59  and  O_81 
REMARK   24  A    between atoms: O_84  and  C_76 
REMARK   25  A    between atoms: C_86  and  O_84 
REMARK   26  A    between atoms: C_87  and  C_86 
REMARK   27  A    between atoms: C_89  and  C_87 
REMARK   28  A    between atoms: C_88  and  C_89 
ROOT
HETATM    1  N   UNK N   1      22.658  11.853   3.007  0.00  0.00    -0.334 N 
HETATM    2  N   UNK N   1      30.757  13.386   2.413  0.00  0.00    -0.334 N 
HETATM    3  C   UNK N   1      22.269  11.383   1.699  0.00  0.00     0.208 C 
HETATM    4  C   UNK N   1      23.886  12.408   3.247  0.00  0.00     0.246 C 
HETATM    5  C   UNK N   1      29.835  12.941   1.495  0.00  0.00     0.246 C 
HETATM    6  C   UNK N   1      26.970  15.689   3.534  0.00  0.00     0.208 C 
HETATM    7  C   UNK N   1      24.270  13.181   4.523  0.00  0.00     0.206 C 
HETATM    8  C   UNK N   1      23.068  10.193   1.265  0.00  0.00     0.245 C 
HETATM    9  C   UNK N   1      30.148  12.062   0.301  0.00  0.00     0.205 C 
HETATM   10  N   UNK N   1      25.596  13.784   4.365  0.00  0.00    -0.344 N 
HETATM   11  N   UNK N   1      28.328  15.252   3.264  0.00  0.00    -0.344 N 
HETATM   12  N   UNK N   1      29.663  10.775   0.687  0.00  0.00    -0.344 N 
HETATM   13  C   UNK N   1      25.851  14.717   3.395  0.00  0.00     0.243 C 
HETATM   14  N   UNK N   1      24.091  10.382   0.395  0.00  0.00    -0.331 N 
HETATM   15  C   UNK N   1      29.007  14.331   3.993  0.00  0.00     0.241 C 
HETATM   16  C   UNK N   1      30.437  14.013   3.668  0.00  0.00     0.181 C 
HETATM   17  C   UNK N   1      28.381  10.361   0.862  0.00  0.00     0.241 C 
HETATM   18  C   UNK N   1      21.562  11.870   3.937  0.00  0.00     0.134 C 
HETATM   19  C   UNK N   1      20.796  11.051   1.833  0.00  0.00     0.155 C 
HETATM   20  C   UNK N   1      28.183   9.009   1.511  0.00  0.00     0.179 C 
HETATM   21  C   UNK N   1      25.068   9.368   0.049  0.00  0.00     0.249 C 
HETATM   22  C   UNK N   1      20.356  11.889   3.020  0.00  0.00     0.031 C 
HETATM   23  C   UNK N   1      27.030   8.083   1.059  0.00  0.00     0.071 C 
HETATM   24  C   UNK N   1      32.172  13.349   2.224  0.00  0.00     0.158 C 
HETATM   25  C   UNK N   1      31.464  15.104   3.791  0.00  0.00     0.068 C 
HETATM   26  C   UNK N   1      25.647   8.677   1.297  0.00  0.00     0.169 C 
HETATM   27  O   UNK N   1      28.650  13.155   1.682  0.00  0.00    -0.271 OA
HETATM   28  O   UNK N   1      24.739  12.317   2.361  0.00  0.00    -0.271 OA
HETATM   29  O   UNK N   1      22.884   9.104   1.794  0.00  0.00    -0.271 OA
HETATM   30  O   UNK N   1      25.037  14.927   2.508  0.00  0.00    -0.271 OA
HETATM   31  O   UNK N   1      28.464  13.735   4.912  0.00  0.00    -0.271 OA
HETATM   32  O   UNK N   1      27.439  11.071   0.553  0.00  0.00    -0.271 OA
HETATM   33  C   UNK N   1      32.698  14.442   3.159  0.00  0.00     0.138 C 
HETATM   34  C   UNK N   1      19.123  11.323   3.692  0.00  0.00     0.014 C 
HETATM   35  H   UNK N   1      26.321  13.514   4.974  0.00  0.00     0.163 HD
HETATM   36  H   UNK N   1      28.791  15.654   2.493  0.00  0.00     0.163 HD
HETATM   37  H   UNK N   1      30.354  10.093   0.848  0.00  0.00     0.163 HD
HETATM   38  H   UNK N   1      24.176  11.267  -0.031  0.00  0.00     0.165 HD
ENDROOT
BRANCH  20  39
HETATM   39  N   UNK N   1      29.472   8.343   1.605  0.00  0.00    -0.344 N 
HETATM   40  C   UNK N   1      30.212   8.221   2.753  0.00  0.00     0.252 C 
HETATM   41  O   UNK N   1      31.184   7.478   2.736  0.00  0.00    -0.268 OA
HETATM   42  H   UNK N   1      29.843   7.951   0.782  0.00  0.00     0.163 HD
BRANCH  40  43
HETATM   43  C   UNK N   1      29.962   9.043   3.983  0.00  0.00     0.032 C 
HETATM   44  C   UNK N   1      30.543  10.317   4.002  0.00  0.00     0.018 C 
HETATM   45  C   UNK N   1      31.448  10.654   4.992  0.00  0.00     0.015 C 
HETATM   46  C   UNK N   1      31.633   9.763   6.030  0.00  0.00    -0.007 C 
HETATM   47  C   UNK N   1      30.736   8.680   6.186  0.00  0.00     0.015 C 
HETATM   48  C   UNK N   1      29.899   8.318   5.160  0.00  0.00     0.018 C 
BRANCH  46  49
HETATM   49  C   UNK N   1      32.993   9.497   6.500  0.00  0.00     0.068 A 
HETATM   50  N   UNK N   1      33.993   9.220   5.650  0.00  0.00    -0.260 N 
HETATM   51  O   UNK N   1      35.011   9.948   6.009  0.00  0.00    -0.237 OA
ATOM     52  HN  UNK N   1      33.962   8.564   4.869  1.00  0.00     0.195 HD
HETATM   53  C   UNK N   1      34.706  10.701   7.043  0.00  0.00     0.111 A 
HETATM   54  C   UNK N   1      33.446  10.396   7.434  0.00  0.00     0.072 A 
BRANCH  53  55
HETATM   55  C   UNK N   1      35.101  12.120   7.097  0.00  0.00    -0.000 A 
HETATM   56  C   UNK N   1      34.924  12.940   5.979  0.00  0.00     0.017 A 
HETATM   57  C   UNK N   1      34.853  14.330   6.136  0.00  0.00     0.037 A 
HETATM   58  C   UNK N   1      34.887  14.906   7.416  0.00  0.00     0.068 A 
HETATM   59  C   UNK N   1      35.103  14.087   8.529  0.00  0.00     0.037 A 
HETATM   60  C   UNK N   1      35.216  12.715   8.371  0.00  0.00     0.017 A 
BRANCH  58  61
HETATM   61  O   UNK N   1      34.653  16.234   7.556  0.00  0.00    -0.351 OA
BRANCH  61  62
HETATM   62  C   UNK N   1      33.934  16.774   8.611  0.00  0.00     0.175 C 
BRANCH  62  63
HETATM   63  C   UNK N   1      32.962  17.862   8.175  0.00  0.00     0.027 C 
BRANCH  63  64
HETATM   64  C   UNK N   1      31.538  17.333   8.242  0.00  0.00     0.002 C 
BRANCH  64  65
HETATM   65  C   UNK N   1      30.622  18.355   8.892  0.00  0.00    -0.004 C 
HETATM   66  C   UNK N   1      29.233  18.252   8.296  0.00  0.00     0.005 C 
ENDBRANCH  64  65
ENDBRANCH  63  64
ENDBRANCH  62  63
ENDBRANCH  61  62
ENDBRANCH  58  61
ENDBRANCH  53  55
ENDBRANCH  46  49
ENDBRANCH  40  43
ENDBRANCH  20  39
BRANCH  26  67
HETATM   67  O   UNK N   1      25.677   9.525   2.409  0.00  0.00    -0.391 OA
HETATM   68  H   UNK N   1      24.960  10.133   2.644  0.00  0.00     0.210 HD
ENDBRANCH  26  67
BRANCH   9  69
HETATM   69  C   UNK N   1      31.582  11.824  -0.212  0.00  0.00     0.146 C 
HETATM   70  C   UNK N   1      32.108  10.422   0.012  0.00  0.00     0.042 C 
BRANCH  69  71
HETATM   71  O   UNK N   1      31.787  12.262  -1.526  0.00  0.00    -0.393 OA
HETATM   72  H   UNK N   1      32.202  12.824  -2.199  0.00  0.00     0.210 HD
ENDBRANCH  69  71
ENDBRANCH   9  69
BRANCH  21  73
HETATM   73  O   UNK N   1      24.509   8.430  -0.821  0.00  0.00    -0.374 OA
HETATM   74  H   UNK N   1      23.990   8.702  -1.595  0.00  0.00     0.212 HD
ENDBRANCH  21  73
BRANCH  33  75
HETATM   75  O   UNK N   1      33.409  15.386   2.420  0.00  0.00    -0.394 OA
HETATM   76  H   UNK N   1      34.289  15.520   2.034  0.00  0.00     0.210 HD
ENDBRANCH  33  75
BRANCH  19  77
HETATM   77  O   UNK N   1      20.098  11.409   0.680  0.00  0.00    -0.393 OA
HETATM   78  H   UNK N   1      19.865  11.343  -0.259  0.00  0.00     0.210 HD
ENDBRANCH  19  77
BRANCH   6  79
HETATM   79  C   UNK N   1      26.819  16.537   4.783  0.00  0.00     0.183 C 
BRANCH  79  80
HETATM   80  C   UNK N   1      27.281  17.942   4.435  0.00  0.00     0.182 C 
BRANCH  80  81
HETATM   81  C   UNK N   1      26.162  18.743   3.886  0.00  0.00    -0.024 A 
HETATM   82  C   UNK N   1      24.833  18.439   4.186  0.00  0.00     0.051 A 
HETATM   83  C   UNK N   1      23.807  19.324   3.819  0.00  0.00     0.124 A 
HETATM   84  C   UNK N   1      24.142  20.526   3.177  0.00  0.00     0.100 A 
HETATM   85  C   UNK N   1      25.472  20.816   2.869  0.00  0.00     0.040 A 
HETATM   86  C   UNK N   1      26.480  19.927   3.225  0.00  0.00     0.013 A 
BRANCH  83  87
HETATM   87  O   UNK N   1      22.481  19.043   4.043  0.00  0.00    -0.218 OA
BRANCH  87  88
HETATM   88  S   UNK N   1      21.113  19.037   2.966  0.00  0.00     0.245 S 
HETATM   89  O   UNK N   1      19.910  18.368   3.648  0.00  0.00    -0.579 OA
HETATM   90  O   UNK N   1      20.668  20.067   4.014  0.00  0.00    -0.579 OA
BRANCH  88  91
HETATM   91  O   UNK N   1      21.480  17.425   3.448  0.00  0.00    -0.273 OA
HETATM   92  H   UNK N   1      21.270  16.535   3.125  0.00  0.00     0.234 HD
ENDBRANCH  88  91
ENDBRANCH  87  88
ENDBRANCH  83  87
BRANCH  84  93
HETATM   93  O   UNK N   1      23.181  21.395   2.828  0.00  0.00    -0.358 OA
HETATM   94  H   UNK N   1      22.975  22.233   3.194  0.00  0.00     0.217 HD
ENDBRANCH  84  93
ENDBRANCH  80  81
BRANCH  80  95
HETATM   95  O   UNK N   1      28.359  17.884   3.545  0.00  0.00    -0.388 OA
HETATM   96  H   UNK N   1      29.259  17.525   3.587  0.00  0.00     0.210 HD
ENDBRANCH  80  95
ENDBRANCH  79  80
BRANCH  79  97
HETATM   97  O   UNK N   1      27.540  15.990   5.852  0.00  0.00    -0.390 OA
HETATM   98  H   UNK N   1      27.556  15.369   6.598  0.00  0.00     0.210 HD
ENDBRANCH  79  97
ENDBRANCH   6  79
BRANCH   7  99
HETATM   99  C   UNK N   1      23.309  14.362   4.869  0.00  0.00     0.158 C 
BRANCH  99 100
HETATM  100  C   UNK N   1      23.746  15.277   5.996  0.00  0.00     0.137 C 
BRANCH 100 101
HETATM  101  C   UNK N   1      22.542  15.870   6.661  0.00  0.00     0.217 C 
HETATM  102  O   UNK N   1      22.136  16.975   6.336  0.00  0.00    -0.274 OA
HETATM  103  N   UNK N   1      21.899  15.179   7.620  0.00  0.00    -0.370 N 
HETATM  104  H   UNK N   1      21.672  14.230   7.495  0.00  0.00     0.159 HD
HETATM  105  H   UNK N   1      21.652  15.630   8.460  0.00  0.00     0.159 HD
ENDBRANCH 100 101
ENDBRANCH  99 100
BRANCH  99 106
HETATM  106  O   UNK N   1      23.113  15.186   3.754  0.00  0.00    -0.393 OA
HETATM  107  H   UNK N   1      23.355  16.126   3.782  0.00  0.00     0.210 HD
ENDBRANCH  99 106
ENDBRANCH   7  99
TORSDOF 28
ENDMDL
