REMARK  12 active torsions:
REMARK  status: ('A' for Active; 'I' for Inactive)
REMARK    1  A    between atoms: C_9  and  O_1 
REMARK    2  A    between atoms: C_17  and  O_2 
REMARK    3  A    between atoms: O_3  and  C_23 
REMARK    4  A    between atoms: C_7  and  C_13 
REMARK    5  A    between atoms: C_14  and  C_16 
REMARK    6  A    between atoms: C_15  and  C_17 
REMARK    7  A    between atoms: C_16  and  C_18 
REMARK    8  A    between atoms: C_17  and  C_19 
REMARK    9  A    between atoms: C_18  and  C_20 
REMARK   10  A    between atoms: C_19  and  C_21 
REMARK   11  A    between atoms: C_20  and  C_23 
REMARK   12  A    between atoms: C_21  and  C_24 
ROOT
HETATM    1  C   UNK N   1      -4.658   3.830   0.874  0.00  0.00    -0.107 C 
HETATM    2  C   UNK N   1      -5.695   4.060   0.301  0.00  0.00    -0.111 C 
HETATM    3  C   UNK N   1      -6.942   4.344  -0.413  0.00  0.00     0.112 C 
ENDROOT
BRANCH   1   4
HETATM    4  C   UNK N   1      -3.426   3.444   1.588  0.00  0.00     0.101 C 
BRANCH   4   5
HETATM    5  C   UNK N   1      -2.756   2.237   0.916  0.00  0.00     0.025 C 
HETATM    6  C   UNK N   1      -3.794   1.173   0.561  0.00  0.00     0.014 C 
BRANCH   5   7
HETATM    7  C   UNK N   1      -1.879   2.710  -0.260  0.00  0.00     0.145 C 
BRANCH   7   8
HETATM    8  O   UNK N   1      -0.699   3.290   0.213  0.00  0.00    -0.391 OA
HETATM    9  H   UNK N   1       0.059   2.782   0.542  0.00  0.00     0.210 HD
ENDBRANCH   7   8
BRANCH   7  10
HETATM   10  C   UNK N   1      -1.605   1.811  -1.459  0.00  0.00     0.001 C 
HETATM   11  C   UNK N   1      -1.366   0.488  -1.452  0.00  0.00    -0.021 C 
BRANCH  11  12
HETATM   12  C   UNK N   1      -1.401  -0.313  -0.190  0.00  0.00     0.041 C 
HETATM   13  C   UNK N   1      -0.060  -0.562   0.477  0.00  0.00     0.004 C 
HETATM   14  C   UNK N   1       0.327  -1.975   0.060  0.00  0.00    -0.003 C 
HETATM   15  C   UNK N   1       1.058   0.379  -0.005  0.00  0.00     0.039 C 
HETATM   16  C   UNK N   1      -0.960  -2.731  -0.192  0.00  0.00     0.037 C 
HETATM   17  C   UNK N   1       1.159  -1.793  -1.181  0.00  0.00     0.039 C 
HETATM   18  C   UNK N   1      -2.046  -1.681  -0.402  0.00  0.00     0.126 C 
HETATM   19  C   UNK N   1       1.888  -0.552  -0.800  0.00  0.00    -0.083 C 
HETATM   20  C   UNK N   1       3.202  -0.533  -0.586  0.00  0.00    -0.024 C 
BRANCH  18  21
HETATM   21  O   UNK N   1      -3.035  -1.878   0.560  0.00  0.00    -0.395 OA
HETATM   22  H   UNK N   1      -3.498  -1.351   1.230  0.00  0.00     0.210 HD
ENDBRANCH  18  21
BRANCH  20  23
HETATM   23  C   UNK N   1       4.023  -1.760  -0.726  0.00  0.00     0.028 C 
BRANCH  23  24
HETATM   24  C   UNK N   1       3.785  -2.477   0.607  0.00  0.00     0.014 C 
BRANCH  24  25
HETATM   25  C   UNK N   1       4.968  -3.249   1.164  0.00  0.00     0.110 C 
BRANCH  25  26
HETATM   26  C   UNK N   1       6.279  -2.621   0.830  0.00  0.00     0.139 C 
HETATM   27  O   UNK N   1       6.522  -1.470   1.157  0.00  0.00    -0.650 OA
BRANCH  26  28
HETATM   28  O   UNK N   1       7.181  -3.328   0.130  0.00  0.00    -0.776 OA
HETATM   29  H   UNK N   1       7.069  -4.120  -0.359  0.00  0.00     0.167 HD
ENDBRANCH  26  28
ENDBRANCH  25  26
ENDBRANCH  24  25
ENDBRANCH  23  24
ENDBRANCH  20  23
ENDBRANCH  11  12
ENDBRANCH   7  10
ENDBRANCH   5   7
ENDBRANCH   4   5
ENDBRANCH   1   4
TORSDOF 12
