MODEL 1
REMARK VINA RESULT:      -6.8      0.000      0.000
REMARK  7 active torsions:
REMARK  status: ('A' for Active; 'I' for Inactive)
REMARK    1  A    between atoms: C_2  and  O_22 
REMARK    2  A    between atoms: C_10  and  C_7 
REMARK    3  A    between atoms: N_11  and  N_13 
REMARK       I    between atoms: N_13  and  C_14 
REMARK       I    between atoms: C_14  and  N_15 
REMARK       I    between atoms: C_14  and  N_21 
REMARK    4  A    between atoms: N_15  and  C_16 
REMARK    5  A    between atoms: C_16  and  C_17 
REMARK    6  A    between atoms: C_17  and  C_18 
REMARK    7  A    between atoms: C_18  and  C_19 
ROOT
HETATM    1  C   UNK N   1      21.923  16.358   5.258  0.00  0.00     0.120 C 
HETATM    2  N   UNK N   1      21.745  16.363   6.537  0.00  0.00    -0.308 N 
ATOM      3  HN  UNK N   1      22.336  15.789   7.138  1.00  0.00     0.186 HD
ENDROOT
BRANCH   2   4
HETATM    4  N   UNK N   1      20.759  17.144   7.080  0.00  0.00    -0.260 N 
HETATM    5  C   UNK N   1      20.277  16.977   8.404  0.00  0.00     0.262 C 
HETATM    6  N   UNK N   1      20.309  15.728   9.082  0.00  0.00    -0.350 N 
HETATM    7  N   UNK N   1      19.831  18.000   9.022  0.00  0.00    -0.424 NA
HETATM    8  H   UNK N   1      20.105  15.727  10.044  0.00  0.00     0.163 HD
HETATM    9  H   UNK N   1      19.252  18.759   9.263  0.00  0.00     0.270 HD
HETATM   10  H   UNK N   1      20.365  17.855   6.524  0.00  0.00     0.191 HD
BRANCH   6  11
HETATM   11  C   UNK N   1      20.616  14.465   8.465  0.00  0.00     0.123 C 
BRANCH  11  12
HETATM   12  C   UNK N   1      21.809  13.846   9.181  0.00  0.00     0.020 C 
BRANCH  12  13
HETATM   13  C   UNK N   1      21.344  12.802  10.183  0.00  0.00     0.001 C 
BRANCH  13  14
HETATM   14  C   UNK N   1      22.490  11.882  10.548  0.00  0.00    -0.004 C 
HETATM   15  C   UNK N   1      22.762  11.990  12.035  0.00  0.00     0.005 C 
ENDBRANCH  13  14
ENDBRANCH  12  13
ENDBRANCH  11  12
ENDBRANCH   6  11
ENDBRANCH   2   4
BRANCH   1  16
HETATM   16  C   UNK N   1      21.013  17.108   4.363  0.00  0.00     0.009 A 
HETATM   17  C   UNK N   1      21.286  18.276   3.697  0.00  0.00     0.006 A 
HETATM   18  C   UNK N   1      22.414  19.091   3.701  0.00  0.00     0.051 A 
HETATM   19  C   UNK N   1      20.176  18.582   2.964  0.00  0.00     0.043 A 
HETATM   20  C   UNK N   1      22.385  20.269   2.932  0.00  0.00     0.069 A 
HETATM   21  C   UNK N   1      21.228  20.578   2.162  0.00  0.00     0.039 A 
HETATM   22  C   UNK N   1      20.110  19.724   2.172  0.00  0.00     0.033 A 
HETATM   23  N   UNK N   1      19.213  17.657   3.137  0.00  0.00    -0.364 N 
HETATM   24  C   UNK N   1      19.719  16.742   4.006  0.00  0.00     0.102 A 
HETATM   25  H   UNK N   1      18.322  17.646   2.718  0.00  0.00     0.165 HD
BRANCH  20  26
HETATM   26  O   UNK N   1      23.459  21.093   2.959  0.00  0.00    -0.356 OA
HETATM   27  C   UNK N   1      24.738  20.673   2.674  0.00  0.00     0.210 C 
ENDBRANCH  20  26
ENDBRANCH   1  16
TORSDOF 7
ENDMDL
MODEL 2
REMARK VINA RESULT:      -6.5     13.350     15.202
REMARK  7 active torsions:
REMARK  status: ('A' for Active; 'I' for Inactive)
REMARK    1  A    between atoms: C_2  and  O_22 
REMARK    2  A    between atoms: C_10  and  C_7 
REMARK    3  A    between atoms: N_11  and  N_13 
REMARK       I    between atoms: N_13  and  C_14 
REMARK       I    between atoms: C_14  and  N_15 
REMARK       I    between atoms: C_14  and  N_21 
REMARK    4  A    between atoms: N_15  and  C_16 
REMARK    5  A    between atoms: C_16  and  C_17 
REMARK    6  A    between atoms: C_17  and  C_18 
REMARK    7  A    between atoms: C_18  and  C_19 
ROOT
HETATM    1  C   UNK N   1      34.491  13.573  10.026  0.00  0.00     0.120 C 
HETATM    2  N   UNK N   1      35.548  12.843  10.153  0.00  0.00    -0.308 N 
ATOM      3  HN  UNK N   1      35.461  11.840  10.315  1.00  0.00     0.186 HD
ENDROOT
BRANCH   2   4
HETATM    4  N   UNK N   1      36.786  13.424  10.068  0.00  0.00    -0.260 N 
HETATM    5  C   UNK N   1      37.822  13.185  11.008  0.00  0.00     0.262 C 
HETATM    6  N   UNK N   1      37.566  12.829  12.361  0.00  0.00    -0.350 N 
HETATM    7  N   UNK N   1      39.033  13.259  10.611  0.00  0.00    -0.424 NA
HETATM    8  H   UNK N   1      38.329  12.527  12.904  0.00  0.00     0.163 HD
HETATM    9  H   UNK N   1      39.878  13.637  10.277  0.00  0.00     0.270 HD
HETATM   10  H   UNK N   1      36.965  14.037   9.319  0.00  0.00     0.191 HD
BRANCH   6  11
HETATM   11  C   UNK N   1      36.275  12.877  12.993  0.00  0.00     0.123 C 
BRANCH  11  12
HETATM   12  C   UNK N   1      36.210  14.111  13.883  0.00  0.00     0.020 C 
BRANCH  12  13
HETATM   13  C   UNK N   1      36.769  13.801  15.262  0.00  0.00     0.001 C 
BRANCH  13  14
HETATM   14  C   UNK N   1      36.048  12.613  15.864  0.00  0.00    -0.004 C 
HETATM   15  C   UNK N   1      34.863  13.105  16.671  0.00  0.00     0.005 C 
ENDBRANCH  13  14
ENDBRANCH  12  13
ENDBRANCH  11  12
ENDBRANCH   6  11
ENDBRANCH   2   4
BRANCH   1  16
HETATM   16  C   UNK N   1      34.597  15.043   9.889  0.00  0.00     0.009 A 
HETATM   17  C   UNK N   1      34.342  15.789   8.766  0.00  0.00     0.006 A 
HETATM   18  C   UNK N   1      33.981  15.409   7.476  0.00  0.00     0.051 A 
HETATM   19  C   UNK N   1      34.532  17.096   9.108  0.00  0.00     0.043 A 
HETATM   20  C   UNK N   1      33.824  16.418   6.507  0.00  0.00     0.069 A 
HETATM   21  C   UNK N   1      34.014  17.780   6.872  0.00  0.00     0.039 A 
HETATM   22  C   UNK N   1      34.367  18.128   8.189  0.00  0.00     0.033 A 
HETATM   23  N   UNK N   1      34.895  17.210  10.399  0.00  0.00    -0.364 N 
HETATM   24  C   UNK N   1      34.943  15.943  10.891  0.00  0.00     0.102 A 
HETATM   25  H   UNK N   1      35.086  18.043  10.889  0.00  0.00     0.165 HD
BRANCH  20  26
HETATM   26  O   UNK N   1      33.513  16.061   5.238  0.00  0.00    -0.356 OA
HETATM   27  C   UNK N   1      32.835  16.884   4.369  0.00  0.00     0.210 C 
ENDBRANCH  20  26
ENDBRANCH   1  16
TORSDOF 7
ENDMDL
MODEL 3
REMARK VINA RESULT:      -6.4     13.043     16.122
REMARK  7 active torsions:
REMARK  status: ('A' for Active; 'I' for Inactive)
REMARK    1  A    between atoms: C_2  and  O_22 
REMARK    2  A    between atoms: C_10  and  C_7 
REMARK    3  A    between atoms: N_11  and  N_13 
REMARK       I    between atoms: N_13  and  C_14 
REMARK       I    between atoms: C_14  and  N_15 
REMARK       I    between atoms: C_14  and  N_21 
REMARK    4  A    between atoms: N_15  and  C_16 
REMARK    5  A    between atoms: C_16  and  C_17 
REMARK    6  A    between atoms: C_17  and  C_18 
REMARK    7  A    between atoms: C_18  and  C_19 
ROOT
HETATM    1  C   UNK N   1      35.711  15.916  10.790  0.00  0.00     0.120 C 
HETATM    2  N   UNK N   1      34.481  16.241  10.574  0.00  0.00    -0.308 N 
ATOM      3  HN  UNK N   1      34.232  17.215  10.404  1.00  0.00     0.186 HD
ENDROOT
BRANCH   2   4
HETATM    4  N   UNK N   1      33.514  15.271  10.574  0.00  0.00    -0.260 N 
HETATM    5  C   UNK N   1      32.844  14.842   9.399  0.00  0.00     0.262 C 
HETATM    6  N   UNK N   1      32.659  15.684   8.269  0.00  0.00    -0.350 N 
HETATM    7  N   UNK N   1      32.423  13.639   9.344  0.00  0.00    -0.424 NA
HETATM    8  H   UNK N   1      32.329  15.269   7.440  0.00  0.00     0.163 HD
HETATM    9  H   UNK N   1      31.896  12.831   9.538  0.00  0.00     0.270 HD
HETATM   10  H   UNK N   1      33.272  14.851  11.432  0.00  0.00     0.191 HD
BRANCH   6  11
HETATM   11  C   UNK N   1      32.919  17.099   8.246  0.00  0.00     0.123 C 
BRANCH  11  12
HETATM   12  C   UNK N   1      31.633  17.840   8.587  0.00  0.00     0.020 C 
BRANCH  12  13
HETATM   13  C   UNK N   1      30.472  17.288   7.776  0.00  0.00     0.001 C 
BRANCH  13  14
HETATM   14  C   UNK N   1      29.157  17.783   8.342  0.00  0.00    -0.004 C 
HETATM   15  C   UNK N   1      29.411  18.456   9.676  0.00  0.00     0.005 C 
ENDBRANCH  13  14
ENDBRANCH  12  13
ENDBRANCH  11  12
ENDBRANCH   6  11
ENDBRANCH   2   4
BRANCH   1  16
HETATM   16  C   UNK N   1      36.078  14.523  11.136  0.00  0.00     0.009 A 
HETATM   17  C   UNK N   1      36.325  14.021  12.389  0.00  0.00     0.006 A 
HETATM   18  C   UNK N   1      36.359  14.641  13.635  0.00  0.00     0.051 A 
HETATM   19  C   UNK N   1      36.586  12.691  12.237  0.00  0.00     0.043 A 
HETATM   20  C   UNK N   1      36.686  13.858  14.757  0.00  0.00     0.069 A 
HETATM   21  C   UNK N   1      36.949  12.469  14.594  0.00  0.00     0.039 A 
HETATM   22  C   UNK N   1      36.894  11.873  13.320  0.00  0.00     0.033 A 
HETATM   23  N   UNK N   1      36.513  12.329  10.942  0.00  0.00    -0.364 N 
HETATM   24  C   UNK N   1      36.204  13.458  10.251  0.00  0.00     0.102 A 
HETATM   25  H   UNK N   1      36.655  11.428  10.570  0.00  0.00     0.165 HD
BRANCH  20  26
HETATM   26  O   UNK N   1      36.764  14.455  15.970  0.00  0.00    -0.356 OA
HETATM   27  C   UNK N   1      37.370  15.675  16.172  0.00  0.00     0.210 C 
ENDBRANCH  20  26
ENDBRANCH   1  16
TORSDOF 7
ENDMDL
MODEL 4
REMARK VINA RESULT:      -6.4     13.755     15.018
REMARK  7 active torsions:
REMARK  status: ('A' for Active; 'I' for Inactive)
REMARK    1  A    between atoms: C_2  and  O_22 
REMARK    2  A    between atoms: C_10  and  C_7 
REMARK    3  A    between atoms: N_11  and  N_13 
REMARK       I    between atoms: N_13  and  C_14 
REMARK       I    between atoms: C_14  and  N_15 
REMARK       I    between atoms: C_14  and  N_21 
REMARK    4  A    between atoms: N_15  and  C_16 
REMARK    5  A    between atoms: C_16  and  C_17 
REMARK    6  A    between atoms: C_17  and  C_18 
REMARK    7  A    between atoms: C_18  and  C_19 
ROOT
HETATM    1  C   UNK N   1      27.536  23.799  -3.009  0.00  0.00     0.120 C 
HETATM    2  N   UNK N   1      28.782  23.570  -3.258  0.00  0.00    -0.308 N 
ATOM      3  HN  UNK N   1      29.398  23.235  -2.518  1.00  0.00     0.186 HD
ENDROOT
BRANCH   2   4
HETATM    4  N   UNK N   1      29.269  23.779  -4.521  0.00  0.00    -0.260 N 
HETATM    5  C   UNK N   1      29.795  22.741  -5.333  0.00  0.00     0.262 C 
HETATM    6  N   UNK N   1      30.390  21.569  -4.791  0.00  0.00    -0.350 N 
HETATM    7  N   UNK N   1      29.695  22.849  -6.600  0.00  0.00    -0.424 NA
HETATM    8  H   UNK N   1      30.586  20.829  -5.410  0.00  0.00     0.163 HD
HETATM    9  H   UNK N   1      29.833  23.181  -7.517  0.00  0.00     0.270 HD
HETATM   10  H   UNK N   1      29.255  24.695  -4.883  0.00  0.00     0.191 HD
BRANCH   6  11
HETATM   11  C   UNK N   1      30.729  21.384  -3.406  0.00  0.00     0.123 C 
BRANCH  11  12
HETATM   12  C   UNK N   1      32.080  22.034  -3.139  0.00  0.00     0.020 C 
BRANCH  12  13
HETATM   13  C   UNK N   1      33.072  21.005  -2.622  0.00  0.00     0.001 C 
BRANCH  13  14
HETATM   14  C   UNK N   1      34.147  20.749  -3.657  0.00  0.00    -0.004 C 
HETATM   15  C   UNK N   1      34.108  19.290  -4.066  0.00  0.00     0.005 C 
ENDBRANCH  13  14
ENDBRANCH  12  13
ENDBRANCH  11  12
ENDBRANCH   6  11
ENDBRANCH   2   4
BRANCH   1  16
HETATM   16  C   UNK N   1      26.650  24.378  -4.044  0.00  0.00     0.009 A 
HETATM   17  C   UNK N   1      26.273  25.691  -4.169  0.00  0.00     0.006 A 
HETATM   18  C   UNK N   1      26.547  26.803  -3.376  0.00  0.00     0.051 A 
HETATM   19  C   UNK N   1      25.487  25.773  -5.281  0.00  0.00     0.043 A 
HETATM   20  C   UNK N   1      25.977  28.036  -3.743  0.00  0.00     0.069 A 
HETATM   21  C   UNK N   1      25.165  28.117  -4.909  0.00  0.00     0.039 A 
HETATM   22  C   UNK N   1      24.919  26.975  -5.693  0.00  0.00     0.033 A 
HETATM   23  N   UNK N   1      25.351  24.568  -5.867  0.00  0.00    -0.364 N 
HETATM   24  C   UNK N   1      26.064  23.696  -5.105  0.00  0.00     0.102 A 
HETATM   25  H   UNK N   1      24.840  24.361  -6.682  0.00  0.00     0.165 HD
BRANCH  20  26
HETATM   26  O   UNK N   1      26.201  29.117  -2.959  0.00  0.00    -0.356 OA
HETATM   27  C   UNK N   1      27.457  29.624  -2.716  0.00  0.00     0.210 C 
ENDBRANCH  20  26
ENDBRANCH   1  16
TORSDOF 7
ENDMDL
MODEL 5
REMARK VINA RESULT:      -6.4     13.037     16.469
REMARK  7 active torsions:
REMARK  status: ('A' for Active; 'I' for Inactive)
REMARK    1  A    between atoms: C_2  and  O_22 
REMARK    2  A    between atoms: C_10  and  C_7 
REMARK    3  A    between atoms: N_11  and  N_13 
REMARK       I    between atoms: N_13  and  C_14 
REMARK       I    between atoms: C_14  and  N_15 
REMARK       I    between atoms: C_14  and  N_21 
REMARK    4  A    between atoms: N_15  and  C_16 
REMARK    5  A    between atoms: C_16  and  C_17 
REMARK    6  A    between atoms: C_17  and  C_18 
REMARK    7  A    between atoms: C_18  and  C_19 
ROOT
HETATM    1  C   UNK N   1      35.612  16.032  10.794  0.00  0.00     0.120 C 
HETATM    2  N   UNK N   1      34.339  16.187  10.648  0.00  0.00    -0.308 N 
ATOM      3  HN  UNK N   1      33.943  17.124  10.580  1.00  0.00     0.186 HD
ENDROOT
BRANCH   2   4
HETATM    4  N   UNK N   1      33.526  15.087  10.585  0.00  0.00    -0.260 N 
HETATM    5  C   UNK N   1      32.790  14.730   9.425  0.00  0.00     0.262 C 
HETATM    6  N   UNK N   1      32.357  15.686   8.466  0.00  0.00    -0.350 N 
HETATM    7  N   UNK N   1      32.540  13.496   9.219  0.00  0.00    -0.424 NA
HETATM    8  H   UNK N   1      31.994  15.346   7.617  0.00  0.00     0.163 HD
HETATM    9  H   UNK N   1      32.159  12.595   9.330  0.00  0.00     0.270 HD
HETATM   10  H   UNK N   1      33.448  14.516  11.383  0.00  0.00     0.191 HD
BRANCH   6  11
HETATM   11  C   UNK N   1      32.409  17.112   8.644  0.00  0.00     0.123 C 
BRANCH  11  12
HETATM   12  C   UNK N   1      33.031  17.740   7.404  0.00  0.00     0.020 C 
BRANCH  12  13
HETATM   13  C   UNK N   1      32.344  17.227   6.149  0.00  0.00     0.001 C 
BRANCH  13  14
HETATM   14  C   UNK N   1      33.235  17.436   4.943  0.00  0.00    -0.004 C 
HETATM   15  C   UNK N   1      32.384  17.447   3.689  0.00  0.00     0.005 C 
ENDBRANCH  13  14
ENDBRANCH  12  13
ENDBRANCH  11  12
ENDBRANCH   6  11
ENDBRANCH   2   4
BRANCH   1  16
HETATM   16  C   UNK N   1      36.194  14.685  10.994  0.00  0.00     0.009 A 
HETATM   17  C   UNK N   1      36.384  14.036  12.187  0.00  0.00     0.006 A 
HETATM   18  C   UNK N   1      36.153  14.442  13.499  0.00  0.00     0.051 A 
HETATM   19  C   UNK N   1      36.910  12.812  11.892  0.00  0.00     0.043 A 
HETATM   20  C   UNK N   1      36.491  13.554  14.538  0.00  0.00     0.069 A 
HETATM   21  C   UNK N   1      37.030  12.275  14.223  0.00  0.00     0.039 A 
HETATM   22  C   UNK N   1      37.239  11.894  12.885  0.00  0.00     0.033 A 
HETATM   23  N   UNK N   1      37.059  12.658  10.563  0.00  0.00    -0.364 N 
HETATM   24  C   UNK N   1      36.624  13.815   9.997  0.00  0.00     0.102 A 
HETATM   25  H   UNK N   1      37.412  11.867  10.095  0.00  0.00     0.165 HD
BRANCH  20  26
HETATM   26  O   UNK N   1      36.310  13.951  15.819  0.00  0.00    -0.356 OA
HETATM   27  C   UNK N   1      35.479  13.298  16.701  0.00  0.00     0.210 C 
ENDBRANCH  20  26
ENDBRANCH   1  16
TORSDOF 7
ENDMDL
MODEL 6
REMARK VINA RESULT:      -6.3      7.171     10.027
REMARK  7 active torsions:
REMARK  status: ('A' for Active; 'I' for Inactive)
REMARK    1  A    between atoms: C_2  and  O_22 
REMARK    2  A    between atoms: C_10  and  C_7 
REMARK    3  A    between atoms: N_11  and  N_13 
REMARK       I    between atoms: N_13  and  C_14 
REMARK       I    between atoms: C_14  and  N_15 
REMARK       I    between atoms: C_14  and  N_21 
REMARK    4  A    between atoms: N_15  and  C_16 
REMARK    5  A    between atoms: C_16  and  C_17 
REMARK    6  A    between atoms: C_17  and  C_18 
REMARK    7  A    between atoms: C_18  and  C_19 
ROOT
HETATM    1  C   UNK N   1      27.793  17.221   7.218  0.00  0.00     0.120 C 
HETATM    2  N   UNK N   1      27.122  18.183   6.679  0.00  0.00    -0.308 N 
ATOM      3  HN  UNK N   1      26.302  17.978   6.109  1.00  0.00     0.186 HD
ENDROOT
BRANCH   2   4
HETATM    4  N   UNK N   1      27.518  19.479   6.879  0.00  0.00    -0.260 N 
HETATM    5  C   UNK N   1      27.090  20.557   6.061  0.00  0.00     0.262 C 
HETATM    6  N   UNK N   1      26.718  20.388   4.699  0.00  0.00    -0.350 N 
HETATM    7  N   UNK N   1      27.002  21.719   6.582  0.00  0.00    -0.424 NA
HETATM    8  H   UNK N   1      26.285  21.147   4.248  0.00  0.00     0.163 HD
HETATM    9  H   UNK N   1      27.266  22.573   6.993  0.00  0.00     0.270 HD
HETATM   10  H   UNK N   1      28.130  19.672   7.626  0.00  0.00     0.191 HD
BRANCH   6  11
HETATM   11  C   UNK N   1      26.928  19.189   3.932  0.00  0.00     0.123 C 
BRANCH  11  12
HETATM   12  C   UNK N   1      25.581  18.688   3.427  0.00  0.00     0.020 C 
BRANCH  12  13
HETATM   13  C   UNK N   1      24.577  19.827   3.371  0.00  0.00     0.001 C 
BRANCH  13  14
HETATM   14  C   UNK N   1      23.182  19.308   3.646  0.00  0.00    -0.004 C 
HETATM   15  C   UNK N   1      22.177  20.150   2.886  0.00  0.00     0.005 C 
ENDBRANCH  13  14
ENDBRANCH  12  13
ENDBRANCH  11  12
ENDBRANCH   6  11
ENDBRANCH   2   4
BRANCH   1  16
HETATM   16  C   UNK N   1      29.041  17.493   7.967  0.00  0.00     0.009 A 
HETATM   17  C   UNK N   1      30.323  17.447   7.480  0.00  0.00     0.006 A 
HETATM   18  C   UNK N   1      30.816  17.098   6.225  0.00  0.00     0.051 A 
HETATM   19  C   UNK N   1      31.148  17.805   8.506  0.00  0.00     0.043 A 
HETATM   20  C   UNK N   1      32.210  17.108   6.033  0.00  0.00     0.069 A 
HETATM   21  C   UNK N   1      33.065  17.492   7.104  0.00  0.00     0.039 A 
HETATM   22  C   UNK N   1      32.531  17.850   8.356  0.00  0.00     0.033 A 
HETATM   23  N   UNK N   1      30.444  18.077   9.621  0.00  0.00    -0.364 N 
HETATM   24  C   UNK N   1      29.137  17.882   9.298  0.00  0.00     0.102 A 
HETATM   25  H   UNK N   1      30.802  18.361  10.493  0.00  0.00     0.165 HD
BRANCH  20  26
HETATM   26  O   UNK N   1      32.705  16.731   4.831  0.00  0.00    -0.356 OA
HETATM   27  C   UNK N   1      32.404  17.380   3.655  0.00  0.00     0.210 C 
ENDBRANCH  20  26
ENDBRANCH   1  16
TORSDOF 7
ENDMDL
MODEL 7
REMARK VINA RESULT:      -6.3     12.838     15.531
REMARK  7 active torsions:
REMARK  status: ('A' for Active; 'I' for Inactive)
REMARK    1  A    between atoms: C_2  and  O_22 
REMARK    2  A    between atoms: C_10  and  C_7 
REMARK    3  A    between atoms: N_11  and  N_13 
REMARK       I    between atoms: N_13  and  C_14 
REMARK       I    between atoms: C_14  and  N_15 
REMARK       I    between atoms: C_14  and  N_21 
REMARK    4  A    between atoms: N_15  and  C_16 
REMARK    5  A    between atoms: C_16  and  C_17 
REMARK    6  A    between atoms: C_17  and  C_18 
REMARK    7  A    between atoms: C_18  and  C_19 
ROOT
HETATM    1  C   UNK N   1      33.511  15.121   9.727  0.00  0.00     0.120 C 
HETATM    2  N   UNK N   1      33.356  16.402   9.684  0.00  0.00    -0.308 N 
ATOM      3  HN  UNK N   1      32.433  16.810   9.831  1.00  0.00     0.186 HD
ENDROOT
BRANCH   2   4
HETATM    4  N   UNK N   1      34.437  17.207   9.443  0.00  0.00    -0.260 N 
HETATM    5  C   UNK N   1      34.483  18.150   8.383  0.00  0.00     0.262 C 
HETATM    6  N   UNK N   1      33.743  17.990   7.180  0.00  0.00    -0.350 N 
HETATM    7  N   UNK N   1      35.190  19.201   8.534  0.00  0.00    -0.424 NA
HETATM    8  H   UNK N   1      33.703  18.756   6.564  0.00  0.00     0.163 HD
HETATM    9  H   UNK N   1      35.977  19.782   8.640  0.00  0.00     0.270 HD
HETATM   10  H   UNK N   1      35.222  17.127  10.033  0.00  0.00     0.191 HD
BRANCH   6  11
HETATM   11  C   UNK N   1      33.049  16.790   6.795  0.00  0.00     0.123 C 
BRANCH  11  12
HETATM   12  C   UNK N   1      31.643  17.160   6.339  0.00  0.00     0.020 C 
BRANCH  12  13
HETATM   13  C   UNK N   1      30.613  16.665   7.341  0.00  0.00     0.001 C 
BRANCH  13  14
HETATM   14  C   UNK N   1      29.762  17.818   7.829  0.00  0.00    -0.004 C 
HETATM   15  C   UNK N   1      30.444  18.475   9.012  0.00  0.00     0.005 C 
ENDBRANCH  13  14
ENDBRANCH  12  13
ENDBRANCH  11  12
ENDBRANCH   6  11
ENDBRANCH   2   4
BRANCH   1  16
HETATM   16  C   UNK N   1      34.822  14.505   9.419  0.00  0.00     0.009 A 
HETATM   17  C   UNK N   1      35.686  13.916  10.307  0.00  0.00     0.006 A 
HETATM   18  C   UNK N   1      35.623  13.773  11.691  0.00  0.00     0.051 A 
HETATM   19  C   UNK N   1      36.745  13.455   9.581  0.00  0.00     0.043 A 
HETATM   20  C   UNK N   1      36.700  13.144  12.342  0.00  0.00     0.069 A 
HETATM   21  C   UNK N   1      37.798  12.658  11.579  0.00  0.00     0.039 A 
HETATM   22  C   UNK N   1      37.822  12.809  10.180  0.00  0.00     0.033 A 
HETATM   23  N   UNK N   1      36.589  13.727   8.272  0.00  0.00    -0.364 N 
HETATM   24  C   UNK N   1      35.402  14.383   8.162  0.00  0.00     0.102 A 
HETATM   25  H   UNK N   1      37.208  13.497   7.541  0.00  0.00     0.165 HD
BRANCH  20  26
HETATM   26  O   UNK N   1      36.672  13.035  13.692  0.00  0.00    -0.356 OA
HETATM   27  C   UNK N   1      36.529  14.116  14.532  0.00  0.00     0.210 C 
ENDBRANCH  20  26
ENDBRANCH   1  16
TORSDOF 7
ENDMDL
MODEL 8
REMARK VINA RESULT:      -6.1     13.116     15.728
REMARK  7 active torsions:
REMARK  status: ('A' for Active; 'I' for Inactive)
REMARK    1  A    between atoms: C_2  and  O_22 
REMARK    2  A    between atoms: C_10  and  C_7 
REMARK    3  A    between atoms: N_11  and  N_13 
REMARK       I    between atoms: N_13  and  C_14 
REMARK       I    between atoms: C_14  and  N_15 
REMARK       I    between atoms: C_14  and  N_21 
REMARK    4  A    between atoms: N_15  and  C_16 
REMARK    5  A    between atoms: C_16  and  C_17 
REMARK    6  A    between atoms: C_17  and  C_18 
REMARK    7  A    between atoms: C_18  and  C_19 
ROOT
HETATM    1  C   UNK N   1      33.822  15.237  10.270  0.00  0.00     0.120 C 
HETATM    2  N   UNK N   1      33.605  16.384   9.720  0.00  0.00    -0.308 N 
ATOM      3  HN  UNK N   1      32.661  16.645   9.435  1.00  0.00     0.186 HD
ENDROOT
BRANCH   2   4
HETATM    4  N   UNK N   1      34.649  17.249   9.523  0.00  0.00    -0.260 N 
HETATM    5  C   UNK N   1      34.696  18.179   8.452  0.00  0.00     0.262 C 
HETATM    6  N   UNK N   1      34.033  17.959   7.214  0.00  0.00    -0.350 N 
HETATM    7  N   UNK N   1      35.331  19.272   8.623  0.00  0.00    -0.424 NA
HETATM    8  H   UNK N   1      33.981  18.714   6.585  0.00  0.00     0.163 HD
HETATM    9  H   UNK N   1      36.076  19.901   8.761  0.00  0.00     0.270 HD
HETATM   10  H   UNK N   1      35.404  17.224  10.155  0.00  0.00     0.191 HD
BRANCH   6  11
HETATM   11  C   UNK N   1      33.432  16.715   6.812  0.00  0.00     0.123 C 
BRANCH  11  12
HETATM   12  C   UNK N   1      33.689  16.503   5.326  0.00  0.00     0.020 C 
BRANCH  12  13
HETATM   13  C   UNK N   1      33.198  17.698   4.526  0.00  0.00     0.001 C 
BRANCH  13  14
HETATM   14  C   UNK N   1      31.749  17.504   4.133  0.00  0.00    -0.004 C 
HETATM   15  C   UNK N   1      31.647  16.347   3.159  0.00  0.00     0.005 C 
ENDBRANCH  13  14
ENDBRANCH  12  13
ENDBRANCH  11  12
ENDBRANCH   6  11
ENDBRANCH   2   4
BRANCH   1  16
HETATM   16  C   UNK N   1      35.199  14.803  10.599  0.00  0.00     0.009 A 
HETATM   17  C   UNK N   1      36.157  14.358   9.724  0.00  0.00     0.006 A 
HETATM   18  C   UNK N   1      36.113  14.141   8.349  0.00  0.00     0.051 A 
HETATM   19  C   UNK N   1      37.278  14.106  10.459  0.00  0.00     0.043 A 
HETATM   20  C   UNK N   1      37.265  13.633   7.720  0.00  0.00     0.069 A 
HETATM   21  C   UNK N   1      38.434  13.381   8.491  0.00  0.00     0.039 A 
HETATM   22  C   UNK N   1      38.446  13.624   9.877  0.00  0.00     0.033 A 
HETATM   23  N   UNK N   1      37.071  14.373  11.763  0.00  0.00    -0.364 N 
HETATM   24  C   UNK N   1      35.784  14.800  11.861  0.00  0.00     0.102 A 
HETATM   25  H   UNK N   1      37.721  14.278  12.497  0.00  0.00     0.165 HD
BRANCH  20  26
HETATM   26  O   UNK N   1      37.224  13.378   6.391  0.00  0.00    -0.356 OA
HETATM   27  C   UNK N   1      36.641  14.228   5.478  0.00  0.00     0.210 C 
ENDBRANCH  20  26
ENDBRANCH   1  16
TORSDOF 7
ENDMDL
MODEL 9
REMARK VINA RESULT:      -6.1     10.957     12.532
REMARK  7 active torsions:
REMARK  status: ('A' for Active; 'I' for Inactive)
REMARK    1  A    between atoms: C_2  and  O_22 
REMARK    2  A    between atoms: C_10  and  C_7 
REMARK    3  A    between atoms: N_11  and  N_13 
REMARK       I    between atoms: N_13  and  C_14 
REMARK       I    between atoms: C_14  and  N_15 
REMARK       I    between atoms: C_14  and  N_21 
REMARK    4  A    between atoms: N_15  and  C_16 
REMARK    5  A    between atoms: C_16  and  C_17 
REMARK    6  A    between atoms: C_17  and  C_18 
REMARK    7  A    between atoms: C_18  and  C_19 
ROOT
HETATM    1  C   UNK N   1      34.480  17.341   7.768  0.00  0.00     0.120 C 
HETATM    2  N   UNK N   1      34.824  16.323   8.483  0.00  0.00    -0.308 N 
ATOM      3  HN  UNK N   1      35.613  16.393   9.125  1.00  0.00     0.186 HD
ENDROOT
BRANCH   2   4
HETATM    4  N   UNK N   1      34.123  15.152   8.375  0.00  0.00    -0.260 N 
HETATM    5  C   UNK N   1      33.341  14.615   9.431  0.00  0.00     0.262 C 
HETATM    6  N   UNK N   1      33.625  14.863  10.801  0.00  0.00    -0.350 N 
HETATM    7  N   UNK N   1      32.320  13.909   9.134  0.00  0.00    -0.424 NA
HETATM    8  H   UNK N   1      32.951  14.590  11.464  0.00  0.00     0.163 HD
HETATM    9  H   UNK N   1      31.774  13.163   8.797  0.00  0.00     0.270 HD
HETATM   10  H   UNK N   1      34.163  14.658   7.524  0.00  0.00     0.191 HD
BRANCH   6  11
HETATM   11  C   UNK N   1      34.826  15.485  11.293  0.00  0.00     0.123 C 
BRANCH  11  12
HETATM   12  C   UNK N   1      35.777  14.399  11.779  0.00  0.00     0.020 C 
BRANCH  12  13
HETATM   13  C   UNK N   1      36.141  14.628  13.237  0.00  0.00     0.001 C 
BRANCH  13  14
HETATM   14  C   UNK N   1      36.004  13.338  14.018  0.00  0.00    -0.004 C 
HETATM   15  C   UNK N   1      36.879  13.408  15.254  0.00  0.00     0.005 C 
ENDBRANCH  13  14
ENDBRANCH  12  13
ENDBRANCH  11  12
ENDBRANCH   6  11
ENDBRANCH   2   4
BRANCH   1  16
HETATM   16  C   UNK N   1      33.401  17.230   6.760  0.00  0.00     0.009 A 
HETATM   17  C   UNK N   1      32.050  17.309   6.985  0.00  0.00     0.006 A 
HETATM   18  C   UNK N   1      31.323  17.454   8.164  0.00  0.00     0.051 A 
HETATM   19  C   UNK N   1      31.439  17.190   5.771  0.00  0.00     0.043 A 
HETATM   20  C   UNK N   1      29.919  17.463   8.081  0.00  0.00     0.069 A 
HETATM   21  C   UNK N   1      29.288  17.348   6.811  0.00  0.00     0.039 A 
HETATM   22  C   UNK N   1      30.055  17.215   5.638  0.00  0.00     0.033 A 
HETATM   23  N   UNK N   1      32.346  17.041   4.787  0.00  0.00    -0.364 N 
HETATM   24  C   UNK N   1      33.565  17.059   5.390  0.00  0.00     0.102 A 
HETATM   25  H   UNK N   1      32.164  16.940   3.824  0.00  0.00     0.165 HD
BRANCH  20  26
HETATM   26  O   UNK N   1      29.198  17.561   9.223  0.00  0.00    -0.356 OA
HETATM   27  C   UNK N   1      27.822  17.601   9.246  0.00  0.00     0.210 C 
ENDBRANCH  20  26
ENDBRANCH   1  16
TORSDOF 7
ENDMDL
