MODEL 1
REMARK VINA RESULT:      -4.5      0.000      0.000
REMARK  4 active torsions:
REMARK  status: ('A' for Active; 'I' for Inactive)
REMARK    1  A    between atoms: N_3  and  C_6 
REMARK    2  A    between atoms: C_4  and  N_3 
REMARK    3  A    between atoms: C_5  and  C_4 
REMARK    4  A    between atoms: C_7  and  C_5 
ROOT
HETATM    1  C   UNK N   1      27.982  28.518  -6.969  0.00  0.00    -0.087 C 
HETATM    2  C   UNK N   1      27.806  27.621  -7.754  0.00  0.00     0.013 C 
HETATM    3  C   UNK N   1      28.223  29.599  -6.006  0.00  0.00     0.364 C 
ENDROOT
BRANCH   3   4
HETATM    4  N   UNK N   1      28.498  29.101  -4.658  0.00  0.00     0.099 N 
HETATM    5  C   UNK N   1      29.917  29.361  -4.442  0.00  0.00     0.311 C 
BRANCH   4   6
HETATM    6  C   UNK N   1      27.695  29.812  -3.633  0.00  0.00     0.223 C 
HETATM    7  C   UNK N   1      26.916  30.948  -4.291  0.00  0.00     0.043 C 
BRANCH   6   8
HETATM    8  C   UNK N   1      26.679  28.834  -3.004  0.00  0.00     0.074 C 
BRANCH   8   9
HETATM    9  C   UNK N   1      26.105  27.683  -3.794  0.00  0.00    -0.056 A 
HETATM   10  C   UNK N   1      26.713  26.424  -3.674  0.00  0.00     0.007 A 
HETATM   11  C   UNK N   1      26.366  25.381  -4.541  0.00  0.00     0.001 A 
HETATM   12  C   UNK N   1      25.416  25.594  -5.544  0.00  0.00     0.000 A 
HETATM   13  C   UNK N   1      24.802  26.843  -5.668  0.00  0.00     0.001 A 
HETATM   14  C   UNK N   1      25.157  27.888  -4.807  0.00  0.00     0.007 A 
ENDBRANCH   8   9
ENDBRANCH   6   8
ENDBRANCH   4   6
ENDBRANCH   3   4
TORSDOF 4
ENDMDL
MODEL 2
REMARK VINA RESULT:      -4.5      3.565      5.167
REMARK  4 active torsions:
REMARK  status: ('A' for Active; 'I' for Inactive)
REMARK    1  A    between atoms: N_3  and  C_6 
REMARK    2  A    between atoms: C_4  and  N_3 
REMARK    3  A    between atoms: C_5  and  C_4 
REMARK    4  A    between atoms: C_7  and  C_5 
ROOT
HETATM    1  C   UNK N   1      30.462  21.662  -5.165  0.00  0.00    -0.087 C 
HETATM    2  C   UNK N   1      30.466  20.571  -5.676  0.00  0.00     0.013 C 
HETATM    3  C   UNK N   1      30.461  22.979  -4.516  0.00  0.00     0.364 C 
ENDROOT
BRANCH   3   4
HETATM    4  N   UNK N   1      29.410  23.107  -3.507  0.00  0.00     0.099 N 
HETATM    5  C   UNK N   1      30.093  22.939  -2.228  0.00  0.00     0.311 C 
BRANCH   4   6
HETATM    6  C   UNK N   1      28.758  24.438  -3.556  0.00  0.00     0.223 C 
HETATM    7  C   UNK N   1      29.311  25.236  -4.734  0.00  0.00     0.043 C 
BRANCH   6   8
HETATM    8  C   UNK N   1      27.238  24.260  -3.768  0.00  0.00     0.074 C 
BRANCH   8   9
HETATM    9  C   UNK N   1      26.347  25.437  -4.085  0.00  0.00    -0.056 A 
HETATM   10  C   UNK N   1      25.666  25.445  -5.311  0.00  0.00     0.007 A 
HETATM   11  C   UNK N   1      25.007  26.599  -5.751  0.00  0.00     0.001 A 
HETATM   12  C   UNK N   1      25.035  27.759  -4.971  0.00  0.00     0.000 A 
HETATM   13  C   UNK N   1      25.707  27.758  -3.746  0.00  0.00     0.001 A 
HETATM   14  C   UNK N   1      26.375  26.607  -3.312  0.00  0.00     0.007 A 
ENDBRANCH   8   9
ENDBRANCH   6   8
ENDBRANCH   4   6
ENDBRANCH   3   4
TORSDOF 4
ENDMDL
MODEL 3
REMARK VINA RESULT:      -4.4      1.497      2.608
REMARK  4 active torsions:
REMARK  status: ('A' for Active; 'I' for Inactive)
REMARK    1  A    between atoms: N_3  and  C_6 
REMARK    2  A    between atoms: C_4  and  N_3 
REMARK    3  A    between atoms: C_5  and  C_4 
REMARK    4  A    between atoms: C_7  and  C_5 
ROOT
HETATM    1  C   UNK N   1      29.838  27.466  -3.692  0.00  0.00    -0.087 C 
HETATM    2  C   UNK N   1      30.343  26.373  -3.699  0.00  0.00     0.013 C 
HETATM    3  C   UNK N   1      29.224  28.799  -3.653  0.00  0.00     0.364 C 
ENDROOT
BRANCH   3   4
HETATM    4  N   UNK N   1      27.992  28.827  -2.865  0.00  0.00     0.099 N 
HETATM    5  C   UNK N   1      28.279  29.721  -1.748  0.00  0.00     0.311 C 
BRANCH   4   6
HETATM    6  C   UNK N   1      26.848  29.354  -3.649  0.00  0.00     0.223 C 
HETATM    7  C   UNK N   1      27.304  29.665  -5.072  0.00  0.00     0.043 C 
BRANCH   6   8
HETATM    8  C   UNK N   1      25.737  28.284  -3.723  0.00  0.00     0.074 C 
BRANCH   8   9
HETATM    9  C   UNK N   1      25.996  26.924  -4.324  0.00  0.00    -0.056 A 
HETATM   10  C   UNK N   1      25.494  26.656  -5.606  0.00  0.00     0.007 A 
HETATM   11  C   UNK N   1      25.512  25.353  -6.119  0.00  0.00     0.001 A 
HETATM   12  C   UNK N   1      26.022  24.306  -5.347  0.00  0.00     0.000 A 
HETATM   13  C   UNK N   1      26.529  24.564  -4.070  0.00  0.00     0.001 A 
HETATM   14  C   UNK N   1      26.500  25.866  -3.554  0.00  0.00     0.007 A 
ENDBRANCH   8   9
ENDBRANCH   6   8
ENDBRANCH   4   6
ENDBRANCH   3   4
TORSDOF 4
ENDMDL
MODEL 4
REMARK VINA RESULT:      -4.4     29.486     31.375
REMARK  4 active torsions:
REMARK  status: ('A' for Active; 'I' for Inactive)
REMARK    1  A    between atoms: N_3  and  C_6 
REMARK    2  A    between atoms: C_4  and  N_3 
REMARK    3  A    between atoms: C_5  and  C_4 
REMARK    4  A    between atoms: C_7  and  C_5 
ROOT
HETATM    1  C   UNK N   1      31.708   8.204  19.965  0.00  0.00    -0.087 C 
HETATM    2  C   UNK N   1      30.561   7.864  20.104  0.00  0.00     0.013 C 
HETATM    3  C   UNK N   1      33.114   8.598  19.814  0.00  0.00     0.364 C 
ENDROOT
BRANCH   3   4
HETATM    4  N   UNK N   1      33.735   8.965  21.087  0.00  0.00     0.099 N 
HETATM    5  C   UNK N   1      34.258   7.715  21.626  0.00  0.00     0.311 C 
BRANCH   4   6
HETATM    6  C   UNK N   1      34.842   9.934  20.901  0.00  0.00     0.223 C 
HETATM    7  C   UNK N   1      36.030   9.527  21.770  0.00  0.00     0.043 C 
BRANCH   6   8
HETATM    8  C   UNK N   1      35.299   9.918  19.425  0.00  0.00     0.074 C 
BRANCH   8   9
HETATM    9  C   UNK N   1      35.459  11.197  18.640  0.00  0.00    -0.056 A 
HETATM   10  C   UNK N   1      35.246  12.416  19.301  0.00  0.00     0.007 A 
HETATM   11  C   UNK N   1      35.164  13.612  18.578  0.00  0.00     0.001 A 
HETATM   12  C   UNK N   1      35.284  13.596  17.186  0.00  0.00     0.000 A 
HETATM   13  C   UNK N   1      35.502  12.387  16.519  0.00  0.00     0.001 A 
HETATM   14  C   UNK N   1      35.572  11.190  17.242  0.00  0.00     0.007 A 
ENDBRANCH   8   9
ENDBRANCH   6   8
ENDBRANCH   4   6
ENDBRANCH   3   4
TORSDOF 4
ENDMDL
MODEL 5
REMARK VINA RESULT:      -4.4      2.033      4.419
REMARK  4 active torsions:
REMARK  status: ('A' for Active; 'I' for Inactive)
REMARK    1  A    between atoms: N_3  and  C_6 
REMARK    2  A    between atoms: C_4  and  N_3 
REMARK    3  A    between atoms: C_5  and  C_4 
REMARK    4  A    between atoms: C_7  and  C_5 
ROOT
HETATM    1  C   UNK N   1      29.117  25.782  -4.453  0.00  0.00    -0.087 C 
HETATM    2  C   UNK N   1      29.752  26.683  -3.970  0.00  0.00     0.013 C 
HETATM    3  C   UNK N   1      28.356  24.687  -5.068  0.00  0.00     0.364 C 
ENDROOT
BRANCH   3   4
HETATM    4  N   UNK N   1      27.571  25.127  -6.221  0.00  0.00     0.099 N 
HETATM    5  C   UNK N   1      28.021  24.286  -7.326  0.00  0.00     0.311 C 
BRANCH   4   6
HETATM    6  C   UNK N   1      26.116  24.934  -6.004  0.00  0.00     0.223 C 
HETATM    7  C   UNK N   1      25.870  24.465  -4.573  0.00  0.00     0.043 C 
BRANCH   6   8
HETATM    8  C   UNK N   1      25.382  26.278  -6.202  0.00  0.00     0.074 C 
BRANCH   8   9
HETATM    9  C   UNK N   1      25.912  27.557  -5.600  0.00  0.00    -0.056 A 
HETATM   10  C   UNK N   1      26.955  28.223  -6.261  0.00  0.00     0.007 A 
HETATM   11  C   UNK N   1      27.628  29.282  -5.641  0.00  0.00     0.001 A 
HETATM   12  C   UNK N   1      27.270  29.676  -4.348  0.00  0.00     0.000 A 
HETATM   13  C   UNK N   1      26.229  29.022  -3.684  0.00  0.00     0.001 A 
HETATM   14  C   UNK N   1      25.564  27.955  -4.301  0.00  0.00     0.007 A 
ENDBRANCH   8   9
ENDBRANCH   6   8
ENDBRANCH   4   6
ENDBRANCH   3   4
TORSDOF 4
ENDMDL
MODEL 6
REMARK VINA RESULT:      -4.3      1.391      2.093
REMARK  4 active torsions:
REMARK  status: ('A' for Active; 'I' for Inactive)
REMARK    1  A    between atoms: N_3  and  C_6 
REMARK    2  A    between atoms: C_4  and  N_3 
REMARK    3  A    between atoms: C_5  and  C_4 
REMARK    4  A    between atoms: C_7  and  C_5 
ROOT
HETATM    1  C   UNK N   1      28.305  28.704  -7.174  0.00  0.00    -0.087 C 
HETATM    2  C   UNK N   1      28.693  28.341  -8.255  0.00  0.00     0.013 C 
HETATM    3  C   UNK N   1      27.858  29.136  -5.845  0.00  0.00     0.364 C 
ENDROOT
BRANCH   3   4
HETATM    4  N   UNK N   1      27.809  28.035  -4.883  0.00  0.00     0.099 N 
HETATM    5  C   UNK N   1      28.915  28.286  -3.966  0.00  0.00     0.311 C 
BRANCH   4   6
HETATM    6  C   UNK N   1      26.529  28.016  -4.132  0.00  0.00     0.223 C 
HETATM    7  C   UNK N   1      26.219  29.418  -3.614  0.00  0.00     0.043 C 
BRANCH   6   8
HETATM    8  C   UNK N   1      25.384  27.588  -5.075  0.00  0.00     0.074 C 
BRANCH   8   9
HETATM    9  C   UNK N   1      25.439  26.285  -5.835  0.00  0.00    -0.056 A 
HETATM   10  C   UNK N   1      25.582  25.094  -5.106  0.00  0.00     0.007 A 
HETATM   11  C   UNK N   1      25.858  23.888  -5.761  0.00  0.00     0.001 A 
HETATM   12  C   UNK N   1      26.005  23.866  -7.151  0.00  0.00     0.000 A 
HETATM   13  C   UNK N   1      25.859  25.046  -7.886  0.00  0.00     0.001 A 
HETATM   14  C   UNK N   1      25.594  26.254  -7.228  0.00  0.00     0.007 A 
ENDBRANCH   8   9
ENDBRANCH   6   8
ENDBRANCH   4   6
ENDBRANCH   3   4
TORSDOF 4
ENDMDL
MODEL 7
REMARK VINA RESULT:      -4.2      3.656      5.639
REMARK  4 active torsions:
REMARK  status: ('A' for Active; 'I' for Inactive)
REMARK    1  A    between atoms: N_3  and  C_6 
REMARK    2  A    between atoms: C_4  and  N_3 
REMARK    3  A    between atoms: C_5  and  C_4 
REMARK    4  A    between atoms: C_7  and  C_5 
ROOT
HETATM    1  C   UNK N   1      30.567  21.177  -4.847  0.00  0.00    -0.087 C 
HETATM    2  C   UNK N   1      31.176  20.473  -4.082  0.00  0.00     0.013 C 
HETATM    3  C   UNK N   1      29.835  22.058  -5.764  0.00  0.00     0.364 C 
ENDROOT
BRANCH   3   4
HETATM    4  N   UNK N   1      28.889  22.931  -5.070  0.00  0.00     0.099 N 
HETATM    5  C   UNK N   1      29.708  23.990  -4.491  0.00  0.00     0.311 C 
BRANCH   4   6
HETATM    6  C   UNK N   1      27.894  23.517  -6.002  0.00  0.00     0.223 C 
HETATM    7  C   UNK N   1      27.495  22.477  -7.045  0.00  0.00     0.043 C 
BRANCH   6   8
HETATM    8  C   UNK N   1      26.627  23.921  -5.216  0.00  0.00     0.074 C 
BRANCH   8   9
HETATM    9  C   UNK N   1      26.266  25.371  -5.001  0.00  0.00    -0.056 A 
HETATM   10  C   UNK N   1      26.614  25.970  -3.781  0.00  0.00     0.007 A 
HETATM   11  C   UNK N   1      26.116  27.233  -3.442  0.00  0.00     0.001 A 
HETATM   12  C   UNK N   1      25.255  27.902  -4.316  0.00  0.00     0.000 A 
HETATM   13  C   UNK N   1      24.907  27.316  -5.536  0.00  0.00     0.001 A 
HETATM   14  C   UNK N   1      25.398  26.047  -5.870  0.00  0.00     0.007 A 
ENDBRANCH   8   9
ENDBRANCH   6   8
ENDBRANCH   4   6
ENDBRANCH   3   4
TORSDOF 4
ENDMDL
MODEL 8
REMARK VINA RESULT:      -4.1     13.905     16.026
REMARK  4 active torsions:
REMARK  status: ('A' for Active; 'I' for Inactive)
REMARK    1  A    between atoms: N_3  and  C_6 
REMARK    2  A    between atoms: C_4  and  N_3 
REMARK    3  A    between atoms: C_5  and  C_4 
REMARK    4  A    between atoms: C_7  and  C_5 
ROOT
HETATM    1  C   UNK N   1      27.389  20.393   6.561  0.00  0.00    -0.087 C 
HETATM    2  C   UNK N   1      26.840  21.422   6.262  0.00  0.00     0.013 C 
HETATM    3  C   UNK N   1      28.071  19.138   6.900  0.00  0.00     0.364 C 
ENDROOT
BRANCH   3   4
HETATM    4  N   UNK N   1      27.725  18.047   5.989  0.00  0.00     0.099 N 
HETATM    5  C   UNK N   1      28.030  18.558   4.657  0.00  0.00     0.311 C 
BRANCH   4   6
HETATM    6  C   UNK N   1      28.529  16.830   6.256  0.00  0.00     0.223 C 
HETATM    7  C   UNK N   1      27.726  15.591   5.868  0.00  0.00     0.043 C 
BRANCH   6   8
HETATM    8  C   UNK N   1      29.811  16.859   5.395  0.00  0.00     0.074 C 
BRANCH   8   9
HETATM    9  C   UNK N   1      31.144  17.250   5.987  0.00  0.00    -0.056 A 
HETATM   10  C   UNK N   1      32.258  17.310   5.137  0.00  0.00     0.007 A 
HETATM   11  C   UNK N   1      33.548  17.449   5.663  0.00  0.00     0.001 A 
HETATM   12  C   UNK N   1      33.734  17.516   7.047  0.00  0.00     0.000 A 
HETATM   13  C   UNK N   1      32.630  17.462   7.901  0.00  0.00     0.001 A 
HETATM   14  C   UNK N   1      31.341  17.312   7.374  0.00  0.00     0.007 A 
ENDBRANCH   8   9
ENDBRANCH   6   8
ENDBRANCH   4   6
ENDBRANCH   3   4
TORSDOF 4
ENDMDL
MODEL 9
REMARK VINA RESULT:      -4.1     27.237     28.970
REMARK  4 active torsions:
REMARK  status: ('A' for Active; 'I' for Inactive)
REMARK    1  A    between atoms: N_3  and  C_6 
REMARK    2  A    between atoms: C_4  and  N_3 
REMARK    3  A    between atoms: C_5  and  C_4 
REMARK    4  A    between atoms: C_7  and  C_5 
ROOT
HETATM    1  C   UNK N   1      39.503   9.074  14.974  0.00  0.00    -0.087 C 
HETATM    2  C   UNK N   1      40.656   8.732  14.906  0.00  0.00     0.013 C 
HETATM    3  C   UNK N   1      38.095   9.487  15.027  0.00  0.00     0.364 C 
ENDROOT
BRANCH   3   4
HETATM    4  N   UNK N   1      37.808  10.619  14.148  0.00  0.00     0.099 N 
HETATM    5  C   UNK N   1      36.890  10.093  13.143  0.00  0.00     0.311 C 
BRANCH   4   6
HETATM    6  C   UNK N   1      37.162  11.736  14.880  0.00  0.00     0.223 C 
HETATM    7  C   UNK N   1      36.759  12.829  13.894  0.00  0.00     0.043 C 
BRANCH   6   8
HETATM    8  C   UNK N   1      35.884  11.224  15.579  0.00  0.00     0.074 C 
BRANCH   8   9
HETATM    9  C   UNK N   1      35.516  11.678  16.971  0.00  0.00    -0.056 A 
HETATM   10  C   UNK N   1      35.245  13.039  17.178  0.00  0.00     0.007 A 
HETATM   11  C   UNK N   1      35.116  13.549  18.475  0.00  0.00     0.001 A 
HETATM   12  C   UNK N   1      35.268  12.702  19.577  0.00  0.00     0.000 A 
HETATM   13  C   UNK N   1      35.532  11.344  19.380  0.00  0.00     0.001 A 
HETATM   14  C   UNK N   1      35.673  10.837  18.083  0.00  0.00     0.007 A 
ENDBRANCH   8   9
ENDBRANCH   6   8
ENDBRANCH   4   6
ENDBRANCH   3   4
TORSDOF 4
ENDMDL
