MODEL 1
REMARK VINA RESULT:      -7.8      0.000      0.000
REMARK  6 active torsions:
REMARK  status: ('A' for Active; 'I' for Inactive)
REMARK    1  A    between atoms: O_2  and  C_16 
REMARK       I    between atoms: N_4  and  C_11 
REMARK    2  A    between atoms: C_11  and  C_14 
REMARK    3  A    between atoms: C_14  and  C_15 
REMARK    4  A    between atoms: C_15  and  C_16 
REMARK    5  A    between atoms: C_15  and  C_17 
REMARK    6  A    between atoms: C_17  and  C_18 
ROOT
HETATM    1  C   UNK N   1      34.275  16.078   9.179  0.00  0.00     0.118 C 
ENDROOT
BRANCH   1   2
HETATM    2  C   UNK N   1      34.969  16.233  10.532  0.00  0.00     0.220 C 
HETATM    3  O   UNK N   1      35.353  17.329  10.908  0.00  0.00    -0.273 OA
HETATM    4  N   UNK N   1      35.216  15.147  11.308  0.00  0.00    -0.351 N 
HETATM    5  C   UNK N   1      36.025  15.236  12.505  0.00  0.00     0.130 C 
HETATM    6  C   UNK N   1      34.727  13.816  11.034  0.00  0.00     0.130 C 
HETATM    7  C   UNK N   1      36.292  13.776  12.795  0.00  0.00     0.009 C 
HETATM    8  C   UNK N   1      34.979  13.143  12.376  0.00  0.00     0.009 C 
HETATM    9  C   UNK N   1      36.632  13.421  14.234  0.00  0.00     0.007 C 
HETATM   10  C   UNK N   1      35.086  11.625  12.418  0.00  0.00     0.007 C 
HETATM   11  C   UNK N   1      35.441  11.207  13.855  0.00  0.00     0.000 C 
HETATM   12  C   UNK N   1      36.728  11.894  14.348  0.00  0.00     0.000 C 
ENDBRANCH   1   2
BRANCH   1  13
HETATM   13  C   UNK N   1      33.452  17.272   8.611  0.00  0.00     0.096 C 
BRANCH  13  14
HETATM   14  C   UNK N   1      34.327  18.206   7.801  0.00  0.00     0.144 C 
HETATM   15  O   UNK N   1      34.402  18.093   6.587  0.00  0.00    -0.650 OA
BRANCH  14  16
HETATM   16  O   UNK N   1      35.080  19.134   8.420  0.00  0.00    -0.776 OA
HETATM   17  H   UNK N   1      35.069  19.198   9.354  0.00  0.00     0.167 HD
ENDBRANCH  14  16
ENDBRANCH  13  14
BRANCH  13  18
HETATM   18  C   UNK N   1      32.236  16.751   7.820  0.00  0.00     0.054 C 
BRANCH  18  19
HETATM   19  C   UNK N   1      30.896  17.389   7.953  0.00  0.00    -0.057 A 
HETATM   20  C   UNK N   1      30.629  18.131   9.107  0.00  0.00     0.007 A 
HETATM   21  C   UNK N   1      29.356  18.662   9.325  0.00  0.00     0.001 A 
HETATM   22  C   UNK N   1      28.340  18.443   8.391  0.00  0.00     0.000 A 
HETATM   23  C   UNK N   1      28.600  17.692   7.241  0.00  0.00     0.001 A 
HETATM   24  C   UNK N   1      29.873  17.155   7.027  0.00  0.00     0.007 A 
ENDBRANCH  18  19
ENDBRANCH  13  18
ENDBRANCH   1  13
TORSDOF 6
ENDMDL
MODEL 2
REMARK VINA RESULT:      -7.3     11.351     15.131
REMARK  6 active torsions:
REMARK  status: ('A' for Active; 'I' for Inactive)
REMARK    1  A    between atoms: O_2  and  C_16 
REMARK       I    between atoms: N_4  and  C_11 
REMARK    2  A    between atoms: C_11  and  C_14 
REMARK    3  A    between atoms: C_14  and  C_15 
REMARK    4  A    between atoms: C_15  and  C_16 
REMARK    5  A    between atoms: C_15  and  C_17 
REMARK    6  A    between atoms: C_17  and  C_18 
ROOT
HETATM    1  C   UNK N   1      21.315  14.983   7.096  0.00  0.00     0.118 C 
ENDROOT
BRANCH   1   2
HETATM    2  C   UNK N   1      20.243  15.432   6.102  0.00  0.00     0.220 C 
HETATM    3  O   UNK N   1      19.174  14.848   6.041  0.00  0.00    -0.273 OA
HETATM    4  N   UNK N   1      20.489  16.451   5.239  0.00  0.00    -0.351 N 
HETATM    5  C   UNK N   1      19.568  16.781   4.172  0.00  0.00     0.130 C 
HETATM    6  C   UNK N   1      21.664  17.290   5.273  0.00  0.00     0.130 C 
HETATM    7  C   UNK N   1      20.417  17.693   3.316  0.00  0.00     0.009 C 
HETATM    8  C   UNK N   1      21.220  18.431   4.370  0.00  0.00     0.009 C 
HETATM    9  C   UNK N   1      19.672  18.668   2.418  0.00  0.00     0.007 C 
HETATM   10  C   UNK N   1      22.288  19.293   3.712  0.00  0.00     0.007 C 
HETATM   11  C   UNK N   1      21.590  20.298   2.779  0.00  0.00     0.000 C 
HETATM   12  C   UNK N   1      20.698  19.589   1.744  0.00  0.00     0.000 C 
ENDBRANCH   1   2
BRANCH   1  13
HETATM   13  C   UNK N   1      21.108  15.272   8.612  0.00  0.00     0.096 C 
BRANCH  13  14
HETATM   14  C   UNK N   1      20.006  16.289   8.831  0.00  0.00     0.144 C 
HETATM   15  O   UNK N   1      20.261  17.482   8.885  0.00  0.00    -0.650 OA
BRANCH  14  16
HETATM   16  O   UNK N   1      18.739  15.881   9.029  0.00  0.00    -0.776 OA
HETATM   17  H   UNK N   1      18.026  16.451   8.823  0.00  0.00     0.167 HD
ENDBRANCH  14  16
ENDBRANCH  13  14
BRANCH  13  18
HETATM   18  C   UNK N   1      20.871  13.956   9.378  0.00  0.00     0.054 C 
BRANCH  18  19
HETATM   19  C   UNK N   1      22.001  13.207   9.996  0.00  0.00    -0.057 A 
HETATM   20  C   UNK N   1      21.753  12.489  11.169  0.00  0.00     0.007 A 
HETATM   21  C   UNK N   1      22.800  11.854  11.842  0.00  0.00     0.001 A 
HETATM   22  C   UNK N   1      24.103  11.945  11.346  0.00  0.00     0.000 A 
HETATM   23  C   UNK N   1      24.357  12.671  10.179  0.00  0.00     0.001 A 
HETATM   24  C   UNK N   1      23.309  13.312   9.510  0.00  0.00     0.007 A 
ENDBRANCH  18  19
ENDBRANCH  13  18
ENDBRANCH   1  13
TORSDOF 6
ENDMDL
MODEL 3
REMARK VINA RESULT:      -7.2      1.636      2.869
REMARK  6 active torsions:
REMARK  status: ('A' for Active; 'I' for Inactive)
REMARK    1  A    between atoms: O_2  and  C_16 
REMARK       I    between atoms: N_4  and  C_11 
REMARK    2  A    between atoms: C_11  and  C_14 
REMARK    3  A    between atoms: C_14  and  C_15 
REMARK    4  A    between atoms: C_15  and  C_16 
REMARK    5  A    between atoms: C_15  and  C_17 
REMARK    6  A    between atoms: C_17  and  C_18 
ROOT
HETATM    1  C   UNK N   1      34.087  17.228   6.541  0.00  0.00     0.118 C 
ENDROOT
BRANCH   1   2
HETATM    2  C   UNK N   1      34.477  17.596   7.972  0.00  0.00     0.220 C 
HETATM    3  O   UNK N   1      34.606  18.765   8.297  0.00  0.00    -0.273 OA
HETATM    4  N   UNK N   1      34.736  16.626   8.887  0.00  0.00    -0.351 N 
HETATM    5  C   UNK N   1      35.278  16.938  10.192  0.00  0.00     0.130 C 
HETATM    6  C   UNK N   1      34.522  15.215   8.667  0.00  0.00     0.130 C 
HETATM    7  C   UNK N   1      35.708  15.571  10.671  0.00  0.00     0.009 C 
HETATM    8  C   UNK N   1      34.614  14.693  10.094  0.00  0.00     0.009 C 
HETATM    9  C   UNK N   1      35.818  15.383  12.177  0.00  0.00     0.007 C 
HETATM   10  C   UNK N   1      34.947  13.223  10.309  0.00  0.00     0.007 C 
HETATM   11  C   UNK N   1      35.081  12.975  11.821  0.00  0.00     0.000 C 
HETATM   12  C   UNK N   1      36.126  13.907  12.462  0.00  0.00     0.000 C 
ENDBRANCH   1   2
BRANCH   1  13
HETATM   13  C   UNK N   1      32.630  17.498   6.061  0.00  0.00     0.096 C 
BRANCH  13  14
HETATM   14  C   UNK N   1      32.507  17.334   4.560  0.00  0.00     0.144 C 
HETATM   15  O   UNK N   1      33.263  16.592   3.951  0.00  0.00    -0.650 OA
BRANCH  14  16
HETATM   16  O   UNK N   1      31.601  18.053   3.873  0.00  0.00    -0.776 OA
HETATM   17  H   UNK N   1      31.814  18.917   3.580  0.00  0.00     0.167 HD
ENDBRANCH  14  16
ENDBRANCH  13  14
BRANCH  13  18
HETATM   18  C   UNK N   1      31.641  16.613   6.844  0.00  0.00     0.054 C 
BRANCH  18  19
HETATM   19  C   UNK N   1      30.545  17.212   7.658  0.00  0.00    -0.057 A 
HETATM   20  C   UNK N   1      29.242  17.153   7.156  0.00  0.00     0.007 A 
HETATM   21  C   UNK N   1      28.196  17.789   7.830  0.00  0.00     0.001 A 
HETATM   22  C   UNK N   1      28.455  18.495   9.007  0.00  0.00     0.000 A 
HETATM   23  C   UNK N   1      29.759  18.566   9.508  0.00  0.00     0.001 A 
HETATM   24  C   UNK N   1      30.805  17.936   8.827  0.00  0.00     0.007 A 
ENDBRANCH  18  19
ENDBRANCH  13  18
ENDBRANCH   1  13
TORSDOF 6
ENDMDL
MODEL 4
REMARK VINA RESULT:      -7.1     11.088     14.263
REMARK  6 active torsions:
REMARK  status: ('A' for Active; 'I' for Inactive)
REMARK    1  A    between atoms: O_2  and  C_16 
REMARK       I    between atoms: N_4  and  C_11 
REMARK    2  A    between atoms: C_11  and  C_14 
REMARK    3  A    between atoms: C_14  and  C_15 
REMARK    4  A    between atoms: C_15  and  C_16 
REMARK    5  A    between atoms: C_15  and  C_17 
REMARK    6  A    between atoms: C_17  and  C_18 
ROOT
HETATM    1  C   UNK N   1      20.948  15.424   7.077  0.00  0.00     0.118 C 
ENDROOT
BRANCH   1   2
HETATM    2  C   UNK N   1      22.295  15.785   6.450  0.00  0.00     0.220 C 
HETATM    3  O   UNK N   1      23.295  15.141   6.720  0.00  0.00    -0.273 OA
HETATM    4  N   UNK N   1      22.406  16.860   5.627  0.00  0.00    -0.351 N 
HETATM    5  C   UNK N   1      23.693  17.331   5.163  0.00  0.00     0.130 C 
HETATM    6  C   UNK N   1      21.291  17.641   5.145  0.00  0.00     0.130 C 
HETATM    7  C   UNK N   1      23.331  18.690   4.608  0.00  0.00     0.009 C 
HETATM    8  C   UNK N   1      21.960  18.418   4.019  0.00  0.00     0.009 C 
HETATM    9  C   UNK N   1      24.268  19.266   3.558  0.00  0.00     0.007 C 
HETATM   10  C   UNK N   1      21.317  19.716   3.552  0.00  0.00     0.007 C 
HETATM   11  C   UNK N   1      22.231  20.352   2.491  0.00  0.00     0.000 C 
HETATM   12  C   UNK N   1      23.659  20.570   3.025  0.00  0.00     0.000 C 
ENDBRANCH   1   2
BRANCH   1  13
HETATM   13  C   UNK N   1      20.698  15.765   8.576  0.00  0.00     0.096 C 
BRANCH  13  14
HETATM   14  C   UNK N   1      19.787  16.967   8.720  0.00  0.00     0.144 C 
HETATM   15  O   UNK N   1      18.590  16.821   8.920  0.00  0.00    -0.650 OA
BRANCH  14  16
HETATM   16  O   UNK N   1      20.277  18.210   8.568  0.00  0.00    -0.776 OA
HETATM   17  H   UNK N   1      20.968  18.512   9.124  0.00  0.00     0.167 HD
ENDBRANCH  14  16
ENDBRANCH  13  14
BRANCH  13  18
HETATM   18  C   UNK N   1      20.177  14.523   9.324  0.00  0.00     0.054 C 
BRANCH  18  19
HETATM   19  C   UNK N   1      21.113  13.560   9.971  0.00  0.00    -0.057 A 
HETATM   20  C   UNK N   1      20.608  12.712  10.960  0.00  0.00     0.007 A 
HETATM   21  C   UNK N   1      21.464  11.864  11.667  0.00  0.00     0.001 A 
HETATM   22  C   UNK N   1      22.833  11.870  11.391  0.00  0.00     0.000 A 
HETATM   23  C   UNK N   1      23.345  12.725  10.410  0.00  0.00     0.001 A 
HETATM   24  C   UNK N   1      22.487  13.578   9.708  0.00  0.00     0.007 A 
ENDBRANCH  18  19
ENDBRANCH  13  18
ENDBRANCH   1  13
TORSDOF 6
ENDMDL
MODEL 5
REMARK VINA RESULT:      -7.0      4.507      7.810
REMARK  6 active torsions:
REMARK  status: ('A' for Active; 'I' for Inactive)
REMARK    1  A    between atoms: O_2  and  C_16 
REMARK       I    between atoms: N_4  and  C_11 
REMARK    2  A    between atoms: C_11  and  C_14 
REMARK    3  A    between atoms: C_14  and  C_15 
REMARK    4  A    between atoms: C_15  and  C_16 
REMARK    5  A    between atoms: C_15  and  C_17 
REMARK    6  A    between atoms: C_17  and  C_18 
ROOT
HETATM    1  C   UNK N   1      32.339  17.007   8.258  0.00  0.00     0.118 C 
ENDROOT
BRANCH   1   2
HETATM    2  C   UNK N   1      30.990  17.722   8.190  0.00  0.00     0.220 C 
HETATM    3  O   UNK N   1      30.714  18.601   8.990  0.00  0.00    -0.273 OA
HETATM    4  N   UNK N   1      30.060  17.353   7.271  0.00  0.00    -0.351 N 
HETATM    5  C   UNK N   1      28.715  17.885   7.295  0.00  0.00     0.130 C 
HETATM    6  C   UNK N   1      30.293  16.407   6.204  0.00  0.00     0.130 C 
HETATM    7  C   UNK N   1      28.004  16.943   6.351  0.00  0.00     0.009 C 
HETATM    8  C   UNK N   1      29.085  16.679   5.320  0.00  0.00     0.009 C 
HETATM    9  C   UNK N   1      26.740  17.470   5.690  0.00  0.00     0.007 C 
HETATM   10  C   UNK N   1      28.638  15.596   4.349  0.00  0.00     0.007 C 
HETATM   11  C   UNK N   1      27.350  16.072   3.655  0.00  0.00     0.000 C 
HETATM   12  C   UNK N   1      26.251  16.429   4.674  0.00  0.00     0.000 C 
ENDBRANCH   1   2
BRANCH   1  13
HETATM   13  C   UNK N   1      33.589  17.690   7.626  0.00  0.00     0.096 C 
BRANCH  13  14
HETATM   14  C   UNK N   1      34.554  18.163   8.694  0.00  0.00     0.144 C 
HETATM   15  O   UNK N   1      35.260  19.142   8.505  0.00  0.00    -0.650 OA
BRANCH  14  16
HETATM   16  O   UNK N   1      34.687  17.471   9.840  0.00  0.00    -0.776 OA
HETATM   17  H   UNK N   1      35.439  16.930   9.975  0.00  0.00     0.167 HD
ENDBRANCH  14  16
ENDBRANCH  13  14
BRANCH  13  18
HETATM   18  C   UNK N   1      34.246  16.749   6.598  0.00  0.00     0.054 C 
BRANCH  18  19
HETATM   19  C   UNK N   1      33.626  16.506   5.265  0.00  0.00    -0.057 A 
HETATM   20  C   UNK N   1      33.102  17.601   4.571  0.00  0.00     0.007 A 
HETATM   21  C   UNK N   1      32.421  17.413   3.366  0.00  0.00     0.001 A 
HETATM   22  C   UNK N   1      32.253  16.124   2.856  0.00  0.00     0.000 A 
HETATM   23  C   UNK N   1      32.766  15.024   3.551  0.00  0.00     0.001 A 
HETATM   24  C   UNK N   1      33.441  15.214   4.761  0.00  0.00     0.007 A 
ENDBRANCH  18  19
ENDBRANCH  13  18
ENDBRANCH   1  13
TORSDOF 6
ENDMDL
MODEL 6
REMARK VINA RESULT:      -6.9      3.386      8.701
REMARK  6 active torsions:
REMARK  status: ('A' for Active; 'I' for Inactive)
REMARK    1  A    between atoms: O_2  and  C_16 
REMARK       I    between atoms: N_4  and  C_11 
REMARK    2  A    between atoms: C_11  and  C_14 
REMARK    3  A    between atoms: C_14  and  C_15 
REMARK    4  A    between atoms: C_15  and  C_16 
REMARK    5  A    between atoms: C_15  and  C_17 
REMARK    6  A    between atoms: C_17  and  C_18 
ROOT
HETATM    1  C   UNK N   1      35.580  12.755  12.760  0.00  0.00     0.118 C 
ENDROOT
BRANCH   1   2
HETATM    2  C   UNK N   1      35.752  14.252  12.505  0.00  0.00     0.220 C 
HETATM    3  O   UNK N   1      36.177  14.984  13.383  0.00  0.00    -0.273 OA
HETATM    4  N   UNK N   1      35.382  14.795  11.316  0.00  0.00    -0.351 N 
HETATM    5  C   UNK N   1      35.365  16.227  11.108  0.00  0.00     0.130 C 
HETATM    6  C   UNK N   1      34.965  14.034  10.162  0.00  0.00     0.130 C 
HETATM    7  C   UNK N   1      34.577  16.332   9.822  0.00  0.00     0.009 C 
HETATM    8  C   UNK N   1      35.051  15.099   9.078  0.00  0.00     0.009 C 
HETATM    9  C   UNK N   1      34.798  17.587   8.991  0.00  0.00     0.007 C 
HETATM   10  C   UNK N   1      34.241  14.905   7.804  0.00  0.00     0.007 C 
HETATM   11  C   UNK N   1      34.419  16.155   6.925  0.00  0.00     0.000 C 
HETATM   12  C   UNK N   1      34.024  17.441   7.674  0.00  0.00     0.000 C 
ENDBRANCH   1   2
BRANCH   1  13
HETATM   13  C   UNK N   1      34.853  12.288  14.056  0.00  0.00     0.096 C 
BRANCH  13  14
HETATM   14  C   UNK N   1      33.882  11.162  13.765  0.00  0.00     0.144 C 
HETATM   15  O   UNK N   1      33.181  10.699  14.652  0.00  0.00    -0.650 OA
BRANCH  14  16
HETATM   16  O   UNK N   1      33.827  10.617  12.536  0.00  0.00    -0.776 OA
HETATM   17  H   UNK N   1      34.488  10.821  11.904  0.00  0.00     0.167 HD
ENDBRANCH  14  16
ENDBRANCH  13  14
BRANCH  13  18
HETATM   18  C   UNK N   1      35.883  11.926  15.143  0.00  0.00     0.054 C 
BRANCH  18  19
HETATM   19  C   UNK N   1      35.587  12.133  16.589  0.00  0.00    -0.057 A 
HETATM   20  C   UNK N   1      35.369  13.439  17.038  0.00  0.00     0.007 A 
HETATM   21  C   UNK N   1      35.190  13.696  18.399  0.00  0.00     0.001 A 
HETATM   22  C   UNK N   1      35.238  12.645  19.318  0.00  0.00     0.000 A 
HETATM   23  C   UNK N   1      35.466  11.339  18.875  0.00  0.00     0.001 A 
HETATM   24  C   UNK N   1      35.653  11.084  17.513  0.00  0.00     0.007 A 
ENDBRANCH  18  19
ENDBRANCH  13  18
ENDBRANCH   1  13
TORSDOF 6
ENDMDL
MODEL 7
REMARK VINA RESULT:      -6.9     16.227     19.176
REMARK  6 active torsions:
REMARK  status: ('A' for Active; 'I' for Inactive)
REMARK    1  A    between atoms: O_2  and  C_16 
REMARK       I    between atoms: N_4  and  C_11 
REMARK    2  A    between atoms: C_11  and  C_14 
REMARK    3  A    between atoms: C_14  and  C_15 
REMARK    4  A    between atoms: C_15  and  C_16 
REMARK    5  A    between atoms: C_15  and  C_17 
REMARK    6  A    between atoms: C_17  and  C_18 
ROOT
HETATM    1  C   UNK N   1      25.823  24.192  -5.563  0.00  0.00     0.118 C 
ENDROOT
BRANCH   1   2
HETATM    2  C   UNK N   1      26.742  24.204  -4.341  0.00  0.00     0.220 C 
HETATM    3  O   UNK N   1      26.383  24.733  -3.303  0.00  0.00    -0.273 OA
HETATM    4  N   UNK N   1      27.990  23.673  -4.413  0.00  0.00    -0.351 N 
HETATM    5  C   UNK N   1      28.944  23.827  -3.336  0.00  0.00     0.130 C 
HETATM    6  C   UNK N   1      28.500  22.928  -5.541  0.00  0.00     0.130 C 
HETATM    7  C   UNK N   1      30.228  23.401  -4.011  0.00  0.00     0.009 C 
HETATM    8  C   UNK N   1      29.735  22.292  -4.920  0.00  0.00     0.009 C 
HETATM    9  C   UNK N   1      31.341  22.905  -3.101  0.00  0.00     0.007 C 
HETATM   10  C   UNK N   1      30.854  21.827  -5.842  0.00  0.00     0.007 C 
HETATM   11  C   UNK N   1      32.017  21.322  -4.972  0.00  0.00     0.000 C 
HETATM   12  C   UNK N   1      32.494  22.395  -3.976  0.00  0.00     0.000 C 
ENDBRANCH   1   2
BRANCH   1  13
HETATM   13  C   UNK N   1      26.012  25.280  -6.661  0.00  0.00     0.096 C 
BRANCH  13  14
HETATM   14  C   UNK N   1      25.647  24.747  -8.031  0.00  0.00     0.144 C 
HETATM   15  O   UNK N   1      24.955  23.747  -8.146  0.00  0.00    -0.650 OA
BRANCH  14  16
HETATM   16  O   UNK N   1      26.133  25.336  -9.138  0.00  0.00    -0.776 OA
HETATM   17  H   UNK N   1      27.025  25.621  -9.163  0.00  0.00     0.167 HD
ENDBRANCH  14  16
ENDBRANCH  13  14
BRANCH  13  18
HETATM   18  C   UNK N   1      25.232  26.555  -6.286  0.00  0.00     0.054 C 
BRANCH  18  19
HETATM   19  C   UNK N   1      25.899  27.693  -5.592  0.00  0.00    -0.057 A 
HETATM   20  C   UNK N   1      27.016  28.274  -6.199  0.00  0.00     0.007 A 
HETATM   21  C   UNK N   1      27.736  29.274  -5.542  0.00  0.00     0.001 A 
HETATM   22  C   UNK N   1      27.345  29.690  -4.267  0.00  0.00     0.000 A 
HETATM   23  C   UNK N   1      26.234  29.105  -3.651  0.00  0.00     0.001 A 
HETATM   24  C   UNK N   1      25.519  28.099  -4.307  0.00  0.00     0.007 A 
ENDBRANCH  18  19
ENDBRANCH  13  18
ENDBRANCH   1  13
TORSDOF 6
ENDMDL
MODEL 8
REMARK VINA RESULT:      -6.8     15.429     18.807
REMARK  6 active torsions:
REMARK  status: ('A' for Active; 'I' for Inactive)
REMARK    1  A    between atoms: O_2  and  C_16 
REMARK       I    between atoms: N_4  and  C_11 
REMARK    2  A    between atoms: C_11  and  C_14 
REMARK    3  A    between atoms: C_14  and  C_15 
REMARK    4  A    between atoms: C_15  and  C_16 
REMARK    5  A    between atoms: C_15  and  C_17 
REMARK    6  A    between atoms: C_17  and  C_18 
ROOT
HETATM    1  C   UNK N   1      27.676  26.125  -4.390  0.00  0.00     0.118 C 
ENDROOT
BRANCH   1   2
HETATM    2  C   UNK N   1      27.870  24.778  -3.695  0.00  0.00     0.220 C 
HETATM    3  O   UNK N   1      26.967  24.284  -3.040  0.00  0.00    -0.273 OA
HETATM    4  N   UNK N   1      29.068  24.140  -3.751  0.00  0.00    -0.351 N 
HETATM    5  C   UNK N   1      29.337  22.958  -2.960  0.00  0.00     0.130 C 
HETATM    6  C   UNK N   1      30.181  24.558  -4.571  0.00  0.00     0.130 C 
HETATM    7  C   UNK N   1      30.839  22.847  -3.091  0.00  0.00     0.009 C 
HETATM    8  C   UNK N   1      31.050  23.310  -4.520  0.00  0.00     0.009 C 
HETATM    9  C   UNK N   1      31.439  21.467  -2.872  0.00  0.00     0.007 C 
HETATM   10  C   UNK N   1      32.537  23.448  -4.816  0.00  0.00     0.007 C 
HETATM   11  C   UNK N   1      33.202  22.078  -4.600  0.00  0.00     0.000 C 
HETATM   12  C   UNK N   1      32.940  21.534  -3.183  0.00  0.00     0.000 C 
ENDBRANCH   1   2
BRANCH   1  13
HETATM   13  C   UNK N   1      26.249  26.747  -4.447  0.00  0.00     0.096 C 
BRANCH  13  14
HETATM   14  C   UNK N   1      25.969  27.590  -3.220  0.00  0.00     0.144 C 
HETATM   15  O   UNK N   1      25.826  28.799  -3.314  0.00  0.00    -0.650 OA
BRANCH  14  16
HETATM   16  O   UNK N   1      25.936  27.019  -2.001  0.00  0.00    -0.776 OA
HETATM   17  H   UNK N   1      25.896  26.087  -1.922  0.00  0.00     0.167 HD
ENDBRANCH  14  16
ENDBRANCH  13  14
BRANCH  13  18
HETATM   18  C   UNK N   1      26.060  27.524  -5.764  0.00  0.00     0.054 C 
BRANCH  18  19
HETATM   19  C   UNK N   1      27.227  28.053  -6.525  0.00  0.00    -0.057 A 
HETATM   20  C   UNK N   1      27.839  29.223  -6.066  0.00  0.00     0.007 A 
HETATM   21  C   UNK N   1      28.869  29.815  -6.800  0.00  0.00     0.001 A 
HETATM   22  C   UNK N   1      29.285  29.241  -8.003  0.00  0.00     0.000 A 
HETATM   23  C   UNK N   1      28.669  28.077  -8.472  0.00  0.00     0.001 A 
HETATM   24  C   UNK N   1      27.633  27.490  -7.740  0.00  0.00     0.007 A 
ENDBRANCH  18  19
ENDBRANCH  13  18
ENDBRANCH   1  13
TORSDOF 6
ENDMDL
MODEL 9
REMARK VINA RESULT:      -6.7     14.825     16.972
REMARK  6 active torsions:
REMARK  status: ('A' for Active; 'I' for Inactive)
REMARK    1  A    between atoms: O_2  and  C_16 
REMARK       I    between atoms: N_4  and  C_11 
REMARK    2  A    between atoms: C_11  and  C_14 
REMARK    3  A    between atoms: C_14  and  C_15 
REMARK    4  A    between atoms: C_15  and  C_16 
REMARK    5  A    between atoms: C_15  and  C_17 
REMARK    6  A    between atoms: C_17  and  C_18 
ROOT
HETATM    1  C   UNK N   1      28.862  22.769  -3.113  0.00  0.00     0.118 C 
ENDROOT
BRANCH   1   2
HETATM    2  C   UNK N   1      30.250  22.506  -2.529  0.00  0.00     0.220 C 
HETATM    3  O   UNK N   1      30.544  22.922  -1.420  0.00  0.00    -0.273 OA
HETATM    4  N   UNK N   1      31.192  21.854  -3.259  0.00  0.00    -0.351 N 
HETATM    5  C   UNK N   1      32.563  21.748  -2.808  0.00  0.00     0.130 C 
HETATM    6  C   UNK N   1      30.948  21.222  -4.535  0.00  0.00     0.130 C 
HETATM    7  C   UNK N   1      33.256  21.279  -4.067  0.00  0.00     0.009 C 
HETATM    8  C   UNK N   1      32.202  20.370  -4.669  0.00  0.00     0.009 C 
HETATM    9  C   UNK N   1      34.571  20.539  -3.883  0.00  0.00     0.007 C 
HETATM   10  C   UNK N   1      32.625  19.917  -6.059  0.00  0.00     0.007 C 
HETATM   11  C   UNK N   1      33.963  19.167  -5.935  0.00  0.00     0.000 C 
HETATM   12  C   UNK N   1      35.040  20.030  -5.253  0.00  0.00     0.000 C 
ENDBRANCH   1   2
BRANCH   1  13
HETATM   13  C   UNK N   1      28.490  24.215  -3.557  0.00  0.00     0.096 C 
BRANCH  13  14
HETATM   14  C   UNK N   1      29.191  24.590  -4.846  0.00  0.00     0.144 C 
HETATM   15  O   UNK N   1      30.004  25.501  -4.872  0.00  0.00    -0.650 OA
BRANCH  14  16
HETATM   16  O   UNK N   1      28.878  23.960  -5.994  0.00  0.00    -0.776 OA
HETATM   17  H   UNK N   1      29.445  23.295  -6.332  0.00  0.00     0.167 HD
ENDBRANCH  14  16
ENDBRANCH  13  14
BRANCH  13  18
HETATM   18  C   UNK N   1      26.960  24.370  -3.639  0.00  0.00     0.054 C 
BRANCH  18  19
HETATM   19  C   UNK N   1      26.335  25.627  -4.139  0.00  0.00    -0.057 A 
HETATM   20  C   UNK N   1      26.359  26.752  -3.310  0.00  0.00     0.007 A 
HETATM   21  C   UNK N   1      25.698  27.923  -3.690  0.00  0.00     0.001 A 
HETATM   22  C   UNK N   1      25.002  27.968  -4.900  0.00  0.00     0.000 A 
HETATM   23  C   UNK N   1      24.967  26.842  -5.728  0.00  0.00     0.001 A 
HETATM   24  C   UNK N   1      25.622  25.668  -5.343  0.00  0.00     0.007 A 
ENDBRANCH  18  19
ENDBRANCH  13  18
ENDBRANCH   1  13
TORSDOF 6
ENDMDL
