MODEL 1
REMARK VINA RESULT:      -6.6      0.000      0.000
REMARK  13 active torsions:
REMARK  status: ('A' for Active; 'I' for Inactive)
REMARK    1  A    between atoms: C_1  and  O_16 
REMARK    2  A    between atoms: C_1  and  C_11 
REMARK    3  A    between atoms: C_7  and  C_19 
REMARK    4  A    between atoms: C_11  and  C_12 
REMARK    5  A    between atoms: C_12  and  C_15 
REMARK    6  A    between atoms: C_15  and  C_17 
REMARK    7  A    between atoms: C_19  and  C_20 
REMARK    8  A    between atoms: C_20  and  C_21 
REMARK    9  A    between atoms: C_21  and  C_22 
REMARK   10  A    between atoms: C_22  and  C_23 
REMARK   11  A    between atoms: C_23  and  C_24 
REMARK   12  A    between atoms: C_24  and  C_25 
REMARK   13  A    between atoms: C_25  and  O_27 
ROOT
HETATM    1  C   UNK N   1      26.397  25.773  -4.304  0.00  0.00     0.229 C 
HETATM    2  C   UNK N   1      27.914  25.763  -4.592  0.00  0.00     0.075 C 
HETATM    3  C   UNK N   1      28.371  24.449  -5.202  0.00  0.00     0.013 C 
HETATM    4  O   UNK N   1      25.714  24.625  -4.804  0.00  0.00    -0.344 OA
HETATM    5  C   UNK N   1      26.035  24.249  -6.135  0.00  0.00     0.137 C 
HETATM    6  C   UNK N   1      27.551  24.241  -6.469  0.00  0.00     0.026 C 
HETATM    7  C   UNK N   1      27.855  22.947  -7.260  0.00  0.00     0.062 C 
HETATM    8  C   UNK N   1      26.502  22.359  -7.390  0.00  0.00     0.134 C 
HETATM    9  C   UNK N   1      25.567  22.823  -6.352  0.00  0.00     0.111 C 
HETATM   10  O   UNK N   1      26.103  21.875  -8.436  0.00  0.00    -0.297 OA
ENDROOT
BRANCH   7  11
HETATM   11  C   UNK N   1      28.733  21.958  -6.491  0.00  0.00     0.013 C 
BRANCH  11  12
HETATM   12  C   UNK N   1      29.474  21.031  -7.442  0.00  0.00     0.001 C 
BRANCH  12  13
HETATM   13  C   UNK N   1      30.756  20.505  -6.820  0.00  0.00     0.000 C 
BRANCH  13  14
HETATM   14  C   UNK N   1      30.774  20.791  -5.332  0.00  0.00     0.001 C 
BRANCH  14  15
HETATM   15  C   UNK N   1      32.007  21.591  -4.959  0.00  0.00     0.010 C 
BRANCH  15  16
HETATM   16  C   UNK N   1      31.633  22.735  -4.028  0.00  0.00     0.110 C 
BRANCH  16  17
HETATM   17  C   UNK N   1      31.576  22.288  -2.602  0.00  0.00     0.139 C 
HETATM   18  O   UNK N   1      30.825  22.834  -1.812  0.00  0.00    -0.650 OA
BRANCH  17  19
HETATM   19  O   UNK N   1      32.382  21.295  -2.184  0.00  0.00    -0.776 OA
HETATM   20  H   UNK N   1      32.828  20.721  -2.776  0.00  0.00     0.167 HD
ENDBRANCH  17  19
ENDBRANCH  16  17
ENDBRANCH  15  16
ENDBRANCH  14  15
ENDBRANCH  13  14
ENDBRANCH  12  13
ENDBRANCH  11  12
ENDBRANCH   7  11
BRANCH   1  21
HETATM   21  O   UNK N   1      26.258  25.739  -2.916  0.00  0.00    -0.361 OA
HETATM   22  H   UNK N   1      26.157  25.113  -2.183  0.00  0.00     0.213 HD
ENDBRANCH   1  21
BRANCH   1  23
HETATM   23  C   UNK N   1      25.743  27.073  -4.843  0.00  0.00     0.298 C 
HETATM   24  F   UNK N   1      24.559  26.768  -5.491  0.00  0.00    -0.200 F 
HETATM   25  F   UNK N   1      25.449  27.919  -3.786  0.00  0.00    -0.200 F 
BRANCH  23  26
HETATM   26  C   UNK N   1      26.627  27.813  -5.854  0.00  0.00     0.085 C 
BRANCH  26  27
HETATM   27  C   UNK N   1      27.155  29.135  -5.318  0.00  0.00     0.006 C 
BRANCH  27  28
HETATM   28  C   UNK N   1      28.271  29.629  -6.213  0.00  0.00    -0.004 C 
HETATM   29  C   UNK N   1      28.410  28.705  -7.404  0.00  0.00     0.005 C 
ENDBRANCH  27  28
ENDBRANCH  26  27
ENDBRANCH  23  26
ENDBRANCH   1  23
TORSDOF 13
ENDMDL
MODEL 2
REMARK VINA RESULT:      -6.6      1.295      1.808
REMARK  13 active torsions:
REMARK  status: ('A' for Active; 'I' for Inactive)
REMARK    1  A    between atoms: C_1  and  O_16 
REMARK    2  A    between atoms: C_1  and  C_11 
REMARK    3  A    between atoms: C_7  and  C_19 
REMARK    4  A    between atoms: C_11  and  C_12 
REMARK    5  A    between atoms: C_12  and  C_15 
REMARK    6  A    between atoms: C_15  and  C_17 
REMARK    7  A    between atoms: C_19  and  C_20 
REMARK    8  A    between atoms: C_20  and  C_21 
REMARK    9  A    between atoms: C_21  and  C_22 
REMARK   10  A    between atoms: C_22  and  C_23 
REMARK   11  A    between atoms: C_23  and  C_24 
REMARK   12  A    between atoms: C_24  and  C_25 
REMARK   13  A    between atoms: C_25  and  O_27 
ROOT
HETATM    1  C   UNK N   1      26.093  24.655  -5.348  0.00  0.00     0.229 C 
HETATM    2  C   UNK N   1      27.602  24.347  -5.464  0.00  0.00     0.075 C 
HETATM    3  C   UNK N   1      27.863  23.035  -6.184  0.00  0.00     0.013 C 
HETATM    4  O   UNK N   1      25.267  23.740  -6.064  0.00  0.00    -0.344 OA
HETATM    5  C   UNK N   1      25.683  23.442  -7.388  0.00  0.00     0.137 C 
HETATM    6  C   UNK N   1      27.197  23.140  -7.550  0.00  0.00     0.026 C 
HETATM    7  C   UNK N   1      27.339  21.900  -8.463  0.00  0.00     0.062 C 
HETATM    8  C   UNK N   1      25.925  21.634  -8.817  0.00  0.00     0.134 C 
HETATM    9  C   UNK N   1      24.971  22.181  -7.838  0.00  0.00     0.111 C 
HETATM   10  O   UNK N   1      25.582  21.358  -9.954  0.00  0.00    -0.297 OA
ENDROOT
BRANCH   7  11
HETATM   11  C   UNK N   1      27.886  20.670  -7.735  0.00  0.00     0.013 C 
BRANCH  11  12
HETATM   12  C   UNK N   1      29.342  20.422  -8.101  0.00  0.00     0.001 C 
BRANCH  12  13
HETATM   13  C   UNK N   1      30.139  19.931  -6.905  0.00  0.00     0.000 C 
BRANCH  13  14
HETATM   14  C   UNK N   1      30.834  21.092  -6.223  0.00  0.00     0.001 C 
BRANCH  14  15
HETATM   15  C   UNK N   1      30.656  21.008  -4.719  0.00  0.00     0.010 C 
BRANCH  15  16
HETATM   16  C   UNK N   1      30.837  22.381  -4.088  0.00  0.00     0.110 C 
BRANCH  16  17
HETATM   17  C   UNK N   1      31.276  22.278  -2.663  0.00  0.00     0.139 C 
HETATM   18  O   UNK N   1      32.250  21.608  -2.362  0.00  0.00    -0.650 OA
BRANCH  17  19
HETATM   19  O   UNK N   1      30.574  22.907  -1.703  0.00  0.00    -0.776 OA
HETATM   20  H   UNK N   1      30.705  22.743  -0.789  0.00  0.00     0.167 HD
ENDBRANCH  17  19
ENDBRANCH  16  17
ENDBRANCH  15  16
ENDBRANCH  14  15
ENDBRANCH  13  14
ENDBRANCH  12  13
ENDBRANCH  11  12
ENDBRANCH   7  11
BRANCH   1  21
HETATM   21  O   UNK N   1      25.763  24.510  -4.000  0.00  0.00    -0.361 OA
HETATM   22  H   UNK N   1      25.240  24.932  -3.301  0.00  0.00     0.213 HD
ENDBRANCH   1  21
BRANCH   1  23
HETATM   23  C   UNK N   1      25.794  26.114  -5.784  0.00  0.00     0.298 C 
HETATM   24  F   UNK N   1      26.193  26.302  -7.095  0.00  0.00    -0.200 F 
HETATM   25  F   UNK N   1      24.431  26.352  -5.711  0.00  0.00    -0.200 F 
BRANCH  23  26
HETATM   26  C   UNK N   1      26.535  27.156  -4.938  0.00  0.00     0.085 C 
BRANCH  26  27
HETATM   27  C   UNK N   1      25.594  28.070  -4.169  0.00  0.00     0.006 C 
BRANCH  27  28
HETATM   28  C   UNK N   1      26.306  29.364  -3.842  0.00  0.00    -0.004 C 
HETATM   29  C   UNK N   1      27.249  29.721  -4.972  0.00  0.00     0.005 C 
ENDBRANCH  27  28
ENDBRANCH  26  27
ENDBRANCH  23  26
ENDBRANCH   1  23
TORSDOF 13
ENDMDL
MODEL 3
REMARK VINA RESULT:      -6.5      2.939      7.286
REMARK  13 active torsions:
REMARK  status: ('A' for Active; 'I' for Inactive)
REMARK    1  A    between atoms: C_1  and  O_16 
REMARK    2  A    between atoms: C_1  and  C_11 
REMARK    3  A    between atoms: C_7  and  C_19 
REMARK    4  A    between atoms: C_11  and  C_12 
REMARK    5  A    between atoms: C_12  and  C_15 
REMARK    6  A    between atoms: C_15  and  C_17 
REMARK    7  A    between atoms: C_19  and  C_20 
REMARK    8  A    between atoms: C_20  and  C_21 
REMARK    9  A    between atoms: C_21  and  C_22 
REMARK   10  A    between atoms: C_22  and  C_23 
REMARK   11  A    between atoms: C_23  and  C_24 
REMARK   12  A    between atoms: C_24  and  C_25 
REMARK   13  A    between atoms: C_25  and  O_27 
ROOT
HETATM    1  C   UNK N   1      30.374  23.563  -2.915  0.00  0.00     0.229 C 
HETATM    2  C   UNK N   1      28.878  23.415  -3.265  0.00  0.00     0.075 C 
HETATM    3  C   UNK N   1      28.157  24.751  -3.269  0.00  0.00     0.013 C 
HETATM    4  O   UNK N   1      30.806  24.917  -2.818  0.00  0.00    -0.344 OA
HETATM    5  C   UNK N   1      30.384  25.775  -3.868  0.00  0.00     0.137 C 
HETATM    6  C   UNK N   1      28.888  25.646  -4.261  0.00  0.00     0.026 C 
HETATM    7  C   UNK N   1      28.317  27.074  -4.426  0.00  0.00     0.062 C 
HETATM    8  C   UNK N   1      29.524  27.901  -4.198  0.00  0.00     0.134 C 
HETATM    9  C   UNK N   1      30.559  27.210  -3.410  0.00  0.00     0.111 C 
HETATM   10  O   UNK N   1      29.795  28.861  -4.899  0.00  0.00    -0.297 OA
ENDROOT
BRANCH   7  11
HETATM   11  C   UNK N   1      27.281  27.440  -3.360  0.00  0.00     0.013 C 
BRANCH  11  12
HETATM   12  C   UNK N   1      26.091  28.156  -3.977  0.00  0.00     0.001 C 
BRANCH  12  13
HETATM   13  C   UNK N   1      26.029  27.937  -5.479  0.00  0.00     0.000 C 
BRANCH  13  14
HETATM   14  C   UNK N   1      24.937  26.943  -5.821  0.00  0.00     0.001 C 
BRANCH  14  15
HETATM   15  C   UNK N   1      25.527  25.712  -6.482  0.00  0.00     0.010 C 
BRANCH  15  16
HETATM   16  C   UNK N   1      25.538  24.543  -5.507  0.00  0.00     0.110 C 
BRANCH  16  17
HETATM   17  C   UNK N   1      25.915  23.265  -6.185  0.00  0.00     0.139 C 
HETATM   18  O   UNK N   1      25.054  22.485  -6.557  0.00  0.00    -0.650 OA
BRANCH  17  19
HETATM   19  O   UNK N   1      27.214  22.963  -6.360  0.00  0.00    -0.776 OA
HETATM   20  H   UNK N   1      27.500  22.144  -6.715  0.00  0.00     0.167 HD
ENDBRANCH  17  19
ENDBRANCH  16  17
ENDBRANCH  15  16
ENDBRANCH  14  15
ENDBRANCH  13  14
ENDBRANCH  12  13
ENDBRANCH  11  12
ENDBRANCH   7  11
BRANCH   1  21
HETATM   21  O   UNK N   1      30.539  23.006  -1.646  0.00  0.00    -0.361 OA
HETATM   22  H   UNK N   1      30.706  23.261  -0.726  0.00  0.00     0.213 HD
ENDBRANCH   1  21
BRANCH   1  23
HETATM   23  C   UNK N   1      31.256  22.781  -3.924  0.00  0.00     0.298 C 
HETATM   24  F   UNK N   1      30.645  22.764  -5.165  0.00  0.00    -0.200 F 
HETATM   25  F   UNK N   1      32.483  23.412  -4.058  0.00  0.00    -0.200 F 
BRANCH  23  26
HETATM   26  C   UNK N   1      31.481  21.320  -3.517  0.00  0.00     0.085 C 
BRANCH  26  27
HETATM   27  C   UNK N   1      31.858  20.430  -4.692  0.00  0.00     0.006 C 
BRANCH  27  28
HETATM   28  C   UNK N   1      33.083  19.618  -4.335  0.00  0.00    -0.004 C 
HETATM   29  C   UNK N   1      34.088  20.504  -3.629  0.00  0.00     0.005 C 
ENDBRANCH  27  28
ENDBRANCH  26  27
ENDBRANCH  23  26
ENDBRANCH   1  23
TORSDOF 13
ENDMDL
MODEL 4
REMARK VINA RESULT:      -6.4      3.089      7.077
REMARK  13 active torsions:
REMARK  status: ('A' for Active; 'I' for Inactive)
REMARK    1  A    between atoms: C_1  and  O_16 
REMARK    2  A    between atoms: C_1  and  C_11 
REMARK    3  A    between atoms: C_7  and  C_19 
REMARK    4  A    between atoms: C_11  and  C_12 
REMARK    5  A    between atoms: C_12  and  C_15 
REMARK    6  A    between atoms: C_15  and  C_17 
REMARK    7  A    between atoms: C_19  and  C_20 
REMARK    8  A    between atoms: C_20  and  C_21 
REMARK    9  A    between atoms: C_21  and  C_22 
REMARK   10  A    between atoms: C_22  and  C_23 
REMARK   11  A    between atoms: C_23  and  C_24 
REMARK   12  A    between atoms: C_24  and  C_25 
REMARK   13  A    between atoms: C_25  and  O_27 
ROOT
HETATM    1  C   UNK N   1      30.223  23.429  -2.771  0.00  0.00     0.229 C 
HETATM    2  C   UNK N   1      28.734  23.451  -3.180  0.00  0.00     0.075 C 
HETATM    3  C   UNK N   1      28.205  24.867  -3.334  0.00  0.00     0.013 C 
HETATM    4  O   UNK N   1      30.834  24.717  -2.770  0.00  0.00    -0.344 OA
HETATM    5  C   UNK N   1      30.573  25.522  -3.911  0.00  0.00     0.137 C 
HETATM    6  C   UNK N   1      29.089  25.559  -4.364  0.00  0.00     0.026 C 
HETATM    7  C   UNK N   1      28.726  27.030  -4.680  0.00  0.00     0.062 C 
HETATM    8  C   UNK N   1      30.027  27.704  -4.466  0.00  0.00     0.134 C 
HETATM    9  C   UNK N   1      30.927  26.957  -3.570  0.00  0.00     0.111 C 
HETATM   10  O   UNK N   1      30.453  28.550  -5.233  0.00  0.00    -0.297 OA
ENDROOT
BRANCH   7  11
HETATM   11  C   UNK N   1      27.713  27.628  -3.701  0.00  0.00     0.013 C 
BRANCH  11  12
HETATM   12  C   UNK N   1      26.645  28.421  -4.438  0.00  0.00     0.001 C 
BRANCH  12  13
HETATM   13  C   UNK N   1      26.354  27.825  -5.804  0.00  0.00     0.000 C 
BRANCH  13  14
HETATM   14  C   UNK N   1      25.039  27.071  -5.780  0.00  0.00     0.001 C 
BRANCH  14  15
HETATM   15  C   UNK N   1      25.275  25.600  -5.494  0.00  0.00     0.010 C 
BRANCH  15  16
HETATM   16  C   UNK N   1      25.889  24.919  -6.708  0.00  0.00     0.110 C 
BRANCH  16  17
HETATM   17  C   UNK N   1      26.068  23.451  -6.484  0.00  0.00     0.139 C 
HETATM   18  O   UNK N   1      27.181  22.982  -6.318  0.00  0.00    -0.650 OA
BRANCH  17  19
HETATM   19  O   UNK N   1      24.994  22.641  -6.494  0.00  0.00    -0.776 OA
HETATM   20  H   UNK N   1      24.455  22.524  -7.252  0.00  0.00     0.167 HD
ENDBRANCH  17  19
ENDBRANCH  16  17
ENDBRANCH  15  16
ENDBRANCH  14  15
ENDBRANCH  13  14
ENDBRANCH  12  13
ENDBRANCH  11  12
ENDBRANCH   7  11
BRANCH   1  21
HETATM   21  O   UNK N   1      30.262  22.975  -1.452  0.00  0.00    -0.361 OA
HETATM   22  H   UNK N   1      30.381  22.163  -0.936  0.00  0.00     0.213 HD
ENDBRANCH   1  21
BRANCH   1  23
HETATM   23  C   UNK N   1      31.025  22.446  -3.664  0.00  0.00     0.298 C 
HETATM   24  F   UNK N   1      32.311  22.921  -3.845  0.00  0.00    -0.200 F 
HETATM   25  F   UNK N   1      31.106  21.211  -3.042  0.00  0.00    -0.200 F 
BRANCH  23  26
HETATM   26  C   UNK N   1      30.413  22.270  -5.059  0.00  0.00     0.085 C 
BRANCH  26  27
HETATM   27  C   UNK N   1      30.515  20.842  -5.573  0.00  0.00     0.006 C 
BRANCH  27  28
HETATM   28  C   UNK N   1      29.741  20.717  -6.866  0.00  0.00    -0.004 C 
HETATM   29  C   UNK N   1      29.813  19.288  -7.362  0.00  0.00     0.005 C 
ENDBRANCH  27  28
ENDBRANCH  26  27
ENDBRANCH  23  26
ENDBRANCH   1  23
TORSDOF 13
ENDMDL
MODEL 5
REMARK VINA RESULT:      -6.2     18.326     22.664
REMARK  13 active torsions:
REMARK  status: ('A' for Active; 'I' for Inactive)
REMARK    1  A    between atoms: C_1  and  O_16 
REMARK    2  A    between atoms: C_1  and  C_11 
REMARK    3  A    between atoms: C_7  and  C_19 
REMARK    4  A    between atoms: C_11  and  C_12 
REMARK    5  A    between atoms: C_12  and  C_15 
REMARK    6  A    between atoms: C_15  and  C_17 
REMARK    7  A    between atoms: C_19  and  C_20 
REMARK    8  A    between atoms: C_20  and  C_21 
REMARK    9  A    between atoms: C_21  and  C_22 
REMARK   10  A    between atoms: C_22  and  C_23 
REMARK   11  A    between atoms: C_23  and  C_24 
REMARK   12  A    between atoms: C_24  and  C_25 
REMARK   13  A    between atoms: C_25  and  O_27 
ROOT
HETATM    1  C   UNK N   1      36.698  12.904  14.296  0.00  0.00     0.229 C 
HETATM    2  C   UNK N   1      35.815  14.030  13.716  0.00  0.00     0.075 C 
HETATM    3  C   UNK N   1      36.039  14.222  12.226  0.00  0.00     0.013 C 
HETATM    4  O   UNK N   1      37.421  12.178  13.304  0.00  0.00    -0.344 OA
HETATM    5  C   UNK N   1      36.672  11.780  12.165  0.00  0.00     0.137 C 
HETATM    6  C   UNK N   1      35.759  12.880  11.561  0.00  0.00     0.026 C 
HETATM    7  C   UNK N   1      35.928  12.845  10.023  0.00  0.00     0.062 C 
HETATM    8  C   UNK N   1      36.847  11.695   9.856  0.00  0.00     0.134 C 
HETATM    9  C   UNK N   1      37.645  11.412  11.061  0.00  0.00     0.111 C 
HETATM   10  O   UNK N   1      36.680  10.853   8.991  0.00  0.00    -0.297 OA
ENDROOT
BRANCH   7  11
HETATM   11  C   UNK N   1      36.616  14.091   9.460  0.00  0.00     0.013 C 
BRANCH  11  12
HETATM   12  C   UNK N   1      35.749  14.766   8.410  0.00  0.00     0.001 C 
BRANCH  12  13
HETATM   13  C   UNK N   1      34.276  14.471   8.633  0.00  0.00     0.000 C 
BRANCH  13  14
HETATM   14  C   UNK N   1      33.603  15.642   9.320  0.00  0.00     0.001 C 
BRANCH  14  15
HETATM   15  C   UNK N   1      32.686  16.369   8.355  0.00  0.00     0.010 C 
BRANCH  15  16
HETATM   16  C   UNK N   1      32.919  17.871   8.436  0.00  0.00     0.110 C 
BRANCH  16  17
HETATM   17  C   UNK N   1      34.223  18.260   7.816  0.00  0.00     0.139 C 
HETATM   18  O   UNK N   1      34.979  19.023   8.393  0.00  0.00    -0.650 OA
BRANCH  17  19
HETATM   19  O   UNK N   1      34.549  17.786   6.599  0.00  0.00    -0.776 OA
HETATM   20  H   UNK N   1      33.919  17.673   5.914  0.00  0.00     0.167 HD
ENDBRANCH  17  19
ENDBRANCH  16  17
ENDBRANCH  15  16
ENDBRANCH  14  15
ENDBRANCH  13  14
ENDBRANCH  12  13
ENDBRANCH  11  12
ENDBRANCH   7  11
BRANCH   1  21
HETATM   21  O   UNK N   1      37.653  13.526  15.100  0.00  0.00    -0.361 OA
HETATM   22  H   UNK N   1      38.424  13.322  15.652  0.00  0.00     0.213 HD
ENDBRANCH   1  21
BRANCH   1  23
HETATM   23  C   UNK N   1      35.856  11.938  15.171  0.00  0.00     0.298 C 
HETATM   24  F   UNK N   1      34.900  11.313  14.391  0.00  0.00    -0.200 F 
HETATM   25  F   UNK N   1      36.677  10.961  15.710  0.00  0.00    -0.200 F 
BRANCH  23  26
HETATM   26  C   UNK N   1      35.111  12.654  16.304  0.00  0.00     0.085 C 
BRANCH  26  27
HETATM   27  C   UNK N   1      35.219  11.925  17.635  0.00  0.00     0.006 C 
BRANCH  27  28
HETATM   28  C   UNK N   1      35.292  12.936  18.757  0.00  0.00    -0.004 C 
HETATM   29  C   UNK N   1      35.325  14.334  18.176  0.00  0.00     0.005 C 
ENDBRANCH  27  28
ENDBRANCH  26  27
ENDBRANCH  23  26
ENDBRANCH   1  23
TORSDOF 13
ENDMDL
MODEL 6
REMARK VINA RESULT:      -6.1     11.113     14.004
REMARK  13 active torsions:
REMARK  status: ('A' for Active; 'I' for Inactive)
REMARK    1  A    between atoms: C_1  and  O_16 
REMARK    2  A    between atoms: C_1  and  C_11 
REMARK    3  A    between atoms: C_7  and  C_19 
REMARK    4  A    between atoms: C_11  and  C_12 
REMARK    5  A    between atoms: C_12  and  C_15 
REMARK    6  A    between atoms: C_15  and  C_17 
REMARK    7  A    between atoms: C_19  and  C_20 
REMARK    8  A    between atoms: C_20  and  C_21 
REMARK    9  A    between atoms: C_21  and  C_22 
REMARK   10  A    between atoms: C_22  and  C_23 
REMARK   11  A    between atoms: C_23  and  C_24 
REMARK   12  A    between atoms: C_24  and  C_25 
REMARK   13  A    between atoms: C_25  and  O_27 
ROOT
HETATM    1  C   UNK N   1      29.696  17.422   4.914  0.00  0.00     0.229 C 
HETATM    2  C   UNK N   1      28.899  18.580   5.553  0.00  0.00     0.075 C 
HETATM    3  C   UNK N   1      27.596  18.849   4.822  0.00  0.00     0.013 C 
HETATM    4  O   UNK N   1      28.988  16.746   3.877  0.00  0.00    -0.344 OA
HETATM    5  C   UNK N   1      27.639  16.411   4.171  0.00  0.00     0.137 C 
HETATM    6  C   UNK N   1      26.808  17.545   4.829  0.00  0.00     0.026 C 
HETATM    7  C   UNK N   1      25.429  17.589   4.129  0.00  0.00     0.062 C 
HETATM    8  C   UNK N   1      25.539  16.447   3.193  0.00  0.00     0.134 C 
HETATM    9  C   UNK N   1      26.932  16.098   2.866  0.00  0.00     0.111 C 
HETATM   10  O   UNK N   1      24.630  15.651   3.031  0.00  0.00    -0.297 OA
ENDROOT
BRANCH   7  11
HETATM   11  C   UNK N   1      25.208  18.860   3.305  0.00  0.00     0.013 C 
BRANCH  11  12
HETATM   12  C   UNK N   1      23.852  19.478   3.608  0.00  0.00     0.001 C 
BRANCH  12  13
HETATM   13  C   UNK N   1      23.021  18.580   4.507  0.00  0.00     0.000 C 
BRANCH  13  14
HETATM   14  C   UNK N   1      21.765  18.132   3.787  0.00  0.00     0.001 C 
BRANCH  14  15
HETATM   15  C   UNK N   1      20.896  19.327   3.442  0.00  0.00     0.010 C 
BRANCH  15  16
HETATM   16  C   UNK N   1      20.454  19.256   1.987  0.00  0.00     0.110 C 
BRANCH  16  17
HETATM   17  C   UNK N   1      20.880  20.469   1.224  0.00  0.00     0.139 C 
HETATM   18  O   UNK N   1      21.432  21.396   1.792  0.00  0.00    -0.650 OA
BRANCH  17  19
HETATM   19  O   UNK N   1      20.625  20.548  -0.096  0.00  0.00    -0.776 OA
HETATM   20  H   UNK N   1      19.853  20.186  -0.485  0.00  0.00     0.167 HD
ENDBRANCH  17  19
ENDBRANCH  16  17
ENDBRANCH  15  16
ENDBRANCH  14  15
ENDBRANCH  13  14
ENDBRANCH  12  13
ENDBRANCH  11  12
ENDBRANCH   7  11
BRANCH   1  21
HETATM   21  O   UNK N   1      30.816  17.998   4.313  0.00  0.00    -0.361 OA
HETATM   22  H   UNK N   1      31.373  18.791   4.359  0.00  0.00     0.213 HD
ENDBRANCH   1  21
BRANCH   1  23
HETATM   23  C   UNK N   1      30.168  16.415   5.996  0.00  0.00     0.298 C 
HETATM   24  F   UNK N   1      29.136  16.161   6.881  0.00  0.00    -0.200 F 
HETATM   25  F   UNK N   1      30.524  15.218   5.395  0.00  0.00    -0.200 F 
BRANCH  23  26
HETATM   26  C   UNK N   1      31.349  16.936   6.823  0.00  0.00     0.085 C 
BRANCH  26  27
HETATM   27  C   UNK N   1      31.058  16.962   8.316  0.00  0.00     0.006 C 
BRANCH  27  28
HETATM   28  C   UNK N   1      30.825  18.390   8.757  0.00  0.00    -0.004 C 
HETATM   29  C   UNK N   1      29.582  18.457   9.619  0.00  0.00     0.005 C 
ENDBRANCH  27  28
ENDBRANCH  26  27
ENDBRANCH  23  26
ENDBRANCH   1  23
TORSDOF 13
ENDMDL
MODEL 7
REMARK VINA RESULT:      -6.1     14.905     19.224
REMARK  13 active torsions:
REMARK  status: ('A' for Active; 'I' for Inactive)
REMARK    1  A    between atoms: C_1  and  O_16 
REMARK    2  A    between atoms: C_1  and  C_11 
REMARK    3  A    between atoms: C_7  and  C_19 
REMARK    4  A    between atoms: C_11  and  C_12 
REMARK    5  A    between atoms: C_12  and  C_15 
REMARK    6  A    between atoms: C_15  and  C_17 
REMARK    7  A    between atoms: C_19  and  C_20 
REMARK    8  A    between atoms: C_20  and  C_21 
REMARK    9  A    between atoms: C_21  and  C_22 
REMARK   10  A    between atoms: C_22  and  C_23 
REMARK   11  A    between atoms: C_23  and  C_24 
REMARK   12  A    between atoms: C_24  and  C_25 
REMARK   13  A    between atoms: C_25  and  O_27 
ROOT
HETATM    1  C   UNK N   1      35.976  15.394  10.496  0.00  0.00     0.229 C 
HETATM    2  C   UNK N   1      34.830  16.428  10.466  0.00  0.00     0.075 C 
HETATM    3  C   UNK N   1      34.379  16.741   9.050  0.00  0.00     0.013 C 
HETATM    4  O   UNK N   1      36.272  14.833   9.219  0.00  0.00    -0.344 OA
HETATM    5  C   UNK N   1      35.150  14.413   8.457  0.00  0.00     0.137 C 
HETATM    6  C   UNK N   1      33.969  15.419   8.414  0.00  0.00     0.026 C 
HETATM    7  C   UNK N   1      33.470  15.503   6.952  0.00  0.00     0.062 C 
HETATM    8  C   UNK N   1      34.333  14.497   6.291  0.00  0.00     0.134 C 
HETATM    9  C   UNK N   1      35.590  14.246   7.015  0.00  0.00     0.111 C 
HETATM   10  O   UNK N   1      33.893  13.696   5.484  0.00  0.00    -0.297 OA
ENDROOT
BRANCH   7  11
HETATM   11  C   UNK N   1      33.735  16.861   6.298  0.00  0.00     0.013 C 
BRANCH  11  12
HETATM   12  C   UNK N   1      32.732  17.137   5.189  0.00  0.00     0.001 C 
BRANCH  12  13
HETATM   13  C   UNK N   1      31.369  16.552   5.514  0.00  0.00     0.000 C 
BRANCH  13  14
HETATM   14  C   UNK N   1      30.512  17.579   6.227  0.00  0.00     0.001 C 
BRANCH  14  15
HETATM   15  C   UNK N   1      30.075  17.057   7.583  0.00  0.00     0.010 C 
BRANCH  15  16
HETATM   16  C   UNK N   1      29.780  18.215   8.525  0.00  0.00     0.110 C 
BRANCH  16  17
HETATM   17  C   UNK N   1      28.330  18.581   8.509  0.00  0.00     0.139 C 
HETATM   18  O   UNK N   1      27.909  19.404   7.713  0.00  0.00    -0.650 OA
BRANCH  17  19
HETATM   19  O   UNK N   1      27.492  18.019   9.398  0.00  0.00    -0.776 OA
HETATM   20  H   UNK N   1      27.474  17.097   9.564  0.00  0.00     0.167 HD
ENDBRANCH  17  19
ENDBRANCH  16  17
ENDBRANCH  15  16
ENDBRANCH  14  15
ENDBRANCH  13  14
ENDBRANCH  12  13
ENDBRANCH  11  12
ENDBRANCH   7  11
BRANCH   1  21
HETATM   21  O   UNK N   1      37.121  16.085  10.896  0.00  0.00    -0.361 OA
HETATM   22  H   UNK N   1      37.420  16.732  11.553  0.00  0.00     0.213 HD
ENDBRANCH   1  21
BRANCH   1  23
HETATM   23  C   UNK N   1      35.680  14.273  11.527  0.00  0.00     0.298 C 
HETATM   24  F   UNK N   1      34.318  14.044  11.591  0.00  0.00    -0.200 F 
HETATM   25  F   UNK N   1      36.295  13.097  11.127  0.00  0.00    -0.200 F 
BRANCH  23  26
HETATM   26  C   UNK N   1      36.141  14.627  12.945  0.00  0.00     0.085 C 
BRANCH  26  27
HETATM   27  C   UNK N   1      35.831  13.535  13.958  0.00  0.00     0.006 C 
BRANCH  27  28
HETATM   28  C   UNK N   1      36.621  13.784  15.224  0.00  0.00    -0.004 C 
HETATM   29  C   UNK N   1      35.781  13.406  16.426  0.00  0.00     0.005 C 
ENDBRANCH  27  28
ENDBRANCH  26  27
ENDBRANCH  23  26
ENDBRANCH   1  23
TORSDOF 13
ENDMDL
MODEL 8
REMARK VINA RESULT:      -6.1     18.954     23.340
REMARK  13 active torsions:
REMARK  status: ('A' for Active; 'I' for Inactive)
REMARK    1  A    between atoms: C_1  and  O_16 
REMARK    2  A    between atoms: C_1  and  C_11 
REMARK    3  A    between atoms: C_7  and  C_19 
REMARK    4  A    between atoms: C_11  and  C_12 
REMARK    5  A    between atoms: C_12  and  C_15 
REMARK    6  A    between atoms: C_15  and  C_17 
REMARK    7  A    between atoms: C_19  and  C_20 
REMARK    8  A    between atoms: C_20  and  C_21 
REMARK    9  A    between atoms: C_21  and  C_22 
REMARK   10  A    between atoms: C_22  and  C_23 
REMARK   11  A    between atoms: C_23  and  C_24 
REMARK   12  A    between atoms: C_24  and  C_25 
REMARK   13  A    between atoms: C_25  and  O_27 
ROOT
HETATM    1  C   UNK N   1      36.588  13.341  14.843  0.00  0.00     0.229 C 
HETATM    2  C   UNK N   1      35.869  14.215  13.792  0.00  0.00     0.075 C 
HETATM    3  C   UNK N   1      36.171  13.766  12.373  0.00  0.00     0.013 C 
HETATM    4  O   UNK N   1      37.255  12.211  14.285  0.00  0.00    -0.344 OA
HETATM    5  C   UNK N   1      36.507  11.460  13.340  0.00  0.00     0.137 C 
HETATM    6  C   UNK N   1      35.757  12.304  12.274  0.00  0.00     0.026 C 
HETATM    7  C   UNK N   1      35.979  11.634  10.898  0.00  0.00     0.062 C 
HETATM    8  C   UNK N   1      36.758  10.434  11.278  0.00  0.00     0.134 C 
HETATM    9  C   UNK N   1      37.470  10.587  12.558  0.00  0.00     0.111 C 
HETATM   10  O   UNK N   1      36.525   9.333  10.808  0.00  0.00    -0.297 OA
ENDROOT
BRANCH   7  11
HETATM   11  C   UNK N   1      36.834  12.475   9.946  0.00  0.00     0.013 C 
BRANCH  11  12
HETATM   12  C   UNK N   1      36.059  12.829   8.686  0.00  0.00     0.001 C 
BRANCH  12  13
HETATM   13  C   UNK N   1      36.188  14.305   8.351  0.00  0.00     0.000 C 
BRANCH  13  14
HETATM   14  C   UNK N   1      34.844  14.994   8.483  0.00  0.00     0.001 C 
BRANCH  14  15
HETATM   15  C   UNK N   1      34.930  16.139   9.474  0.00  0.00     0.010 C 
BRANCH  15  16
HETATM   16  C   UNK N   1      33.979  17.257   9.073  0.00  0.00     0.110 C 
BRANCH  16  17
HETATM   17  C   UNK N   1      34.610  18.191   8.091  0.00  0.00     0.139 C 
HETATM   18  O   UNK N   1      34.531  17.975   6.893  0.00  0.00    -0.650 OA
BRANCH  17  19
HETATM   19  O   UNK N   1      35.294  19.261   8.535  0.00  0.00    -0.776 OA
HETATM   20  H   UNK N   1      36.152  19.196   8.906  0.00  0.00     0.167 HD
ENDBRANCH  17  19
ENDBRANCH  16  17
ENDBRANCH  15  16
ENDBRANCH  14  15
ENDBRANCH  13  14
ENDBRANCH  12  13
ENDBRANCH  11  12
ENDBRANCH   7  11
BRANCH   1  21
HETATM   21  O   UNK N   1      37.579  14.142  15.411  0.00  0.00    -0.361 OA
HETATM   22  H   UNK N   1      38.015  14.315  16.259  0.00  0.00     0.213 HD
ENDBRANCH   1  21
BRANCH   1  23
HETATM   23  C   UNK N   1      35.602  12.896  15.956  0.00  0.00     0.298 C 
HETATM   24  F   UNK N   1      35.552  13.858  16.949  0.00  0.00    -0.200 F 
HETATM   25  F   UNK N   1      34.330  12.759  15.425  0.00  0.00    -0.200 F 
BRANCH  23  26
HETATM   26  C   UNK N   1      36.013  11.581  16.629  0.00  0.00     0.085 C 
BRANCH  26  27
HETATM   27  C   UNK N   1      34.925  10.519  16.564  0.00  0.00     0.006 C 
BRANCH  27  28
HETATM   28  C   UNK N   1      34.793   9.853  17.915  0.00  0.00    -0.004 C 
HETATM   29  C   UNK N   1      35.394  10.746  18.980  0.00  0.00     0.005 C 
ENDBRANCH  27  28
ENDBRANCH  26  27
ENDBRANCH  23  26
ENDBRANCH   1  23
TORSDOF 13
ENDMDL
MODEL 9
REMARK VINA RESULT:      -6.1     15.459     17.002
REMARK  13 active torsions:
REMARK  status: ('A' for Active; 'I' for Inactive)
REMARK    1  A    between atoms: C_1  and  O_16 
REMARK    2  A    between atoms: C_1  and  C_11 
REMARK    3  A    between atoms: C_7  and  C_19 
REMARK    4  A    between atoms: C_11  and  C_12 
REMARK    5  A    between atoms: C_12  and  C_15 
REMARK    6  A    between atoms: C_15  and  C_17 
REMARK    7  A    between atoms: C_19  and  C_20 
REMARK    8  A    between atoms: C_20  and  C_21 
REMARK    9  A    between atoms: C_21  and  C_22 
REMARK   10  A    between atoms: C_22  and  C_23 
REMARK   11  A    between atoms: C_23  and  C_24 
REMARK   12  A    between atoms: C_24  and  C_25 
REMARK   13  A    between atoms: C_25  and  O_27 
ROOT
HETATM    1  C   UNK N   1      22.373  17.498   5.628  0.00  0.00     0.229 C 
HETATM    2  C   UNK N   1      22.831  16.025   5.705  0.00  0.00     0.075 C 
HETATM    3  C   UNK N   1      22.430  15.369   7.014  0.00  0.00     0.013 C 
HETATM    4  O   UNK N   1      21.545  17.895   6.718  0.00  0.00    -0.344 OA
HETATM    5  C   UNK N   1      20.501  16.994   7.058  0.00  0.00     0.137 C 
HETATM    6  C   UNK N   1      20.917  15.501   7.130  0.00  0.00     0.026 C 
HETATM    7  C   UNK N   1      20.286  14.894   8.405  0.00  0.00     0.062 C 
HETATM    8  C   UNK N   1      19.502  16.041   8.918  0.00  0.00     0.134 C 
HETATM    9  C   UNK N   1      20.005  17.343   8.448  0.00  0.00     0.111 C 
HETATM   10  O   UNK N   1      18.365  15.913   9.339  0.00  0.00    -0.297 OA
ENDROOT
BRANCH   7  11
HETATM   11  C   UNK N   1      21.318  14.509   9.468  0.00  0.00     0.013 C 
BRANCH  11  12
HETATM   12  C   UNK N   1      20.948  13.193  10.136  0.00  0.00     0.001 C 
BRANCH  12  13
HETATM   13  C   UNK N   1      22.152  12.553  10.805  0.00  0.00     0.000 C 
BRANCH  13  14
HETATM   14  C   UNK N   1      23.329  12.519   9.850  0.00  0.00     0.001 C 
BRANCH  14  15
HETATM   15  C   UNK N   1      23.176  11.379   8.861  0.00  0.00     0.010 C 
BRANCH  15  16
HETATM   16  C   UNK N   1      23.279  11.901   7.435  0.00  0.00     0.110 C 
BRANCH  16  17
HETATM   17  C   UNK N   1      22.127  11.447   6.598  0.00  0.00     0.139 C 
HETATM   18  O   UNK N   1      22.312  10.751   5.615  0.00  0.00    -0.650 OA
BRANCH  17  19
HETATM   19  O   UNK N   1      20.878  11.836   6.919  0.00  0.00    -0.776 OA
HETATM   20  H   UNK N   1      20.199  11.932   6.281  0.00  0.00     0.167 HD
ENDBRANCH  17  19
ENDBRANCH  16  17
ENDBRANCH  15  16
ENDBRANCH  14  15
ENDBRANCH  13  14
ENDBRANCH  12  13
ENDBRANCH  11  12
ENDBRANCH   7  11
BRANCH   1  21
HETATM   21  O   UNK N   1      23.529  18.275   5.709  0.00  0.00    -0.361 OA
HETATM   22  H   UNK N   1      23.947  19.050   5.305  0.00  0.00     0.213 HD
ENDBRANCH   1  21
BRANCH   1  23
HETATM   23  C   UNK N   1      21.668  17.786   4.276  0.00  0.00     0.298 C 
HETATM   24  F   UNK N   1      20.655  18.708   4.464  0.00  0.00    -0.200 F 
HETATM   25  F   UNK N   1      22.579  18.323   3.381  0.00  0.00    -0.200 F 
BRANCH  23  26
HETATM   26  C   UNK N   1      21.027  16.538   3.658  0.00  0.00     0.085 C 
BRANCH  26  27
HETATM   27  C   UNK N   1      20.668  16.723   2.191  0.00  0.00     0.006 C 
BRANCH  27  28
HETATM   28  C   UNK N   1      21.058  15.483   1.418  0.00  0.00    -0.004 C 
HETATM   29  C   UNK N   1      22.305  14.879   2.028  0.00  0.00     0.005 C 
ENDBRANCH  27  28
ENDBRANCH  26  27
ENDBRANCH  23  26
ENDBRANCH   1  23
TORSDOF 13
ENDMDL
