MODEL 1
REMARK VINA RESULT:      -9.0      0.000      0.000
REMARK  4 active torsions:
REMARK  status: ('A' for Active; 'I' for Inactive)
REMARK    1  A    between atoms: C_18  and  C_21 
REMARK       I    between atoms: C_21  and  N_23 
REMARK    2  A    between atoms: N_23  and  C_24 
REMARK    3  A    between atoms: C_26  and  C_34 
REMARK    4  A    between atoms: C_29  and  C_30 
ROOT
HETATM    1  C   UNK N   1      33.173  17.448   5.280  0.00  0.00     0.071 C 
HETATM    2  C   UNK N   1      33.736  17.562   6.649  0.00  0.00     0.241 C 
HETATM    3  N   UNK N   1      32.899  17.541   7.721  0.00  0.00    -0.352 N 
HETATM    4  C   UNK N   1      31.887  17.091   5.122  0.00  0.00    -0.009 C 
HETATM    5  C   UNK N   1      31.037  16.721   6.327  0.00  0.00    -0.002 C 
HETATM    6  C   UNK N   1      31.473  17.637   7.504  0.00  0.00     0.097 C 
HETATM    7  C   UNK N   1      30.678  17.343   8.772  0.00  0.00     0.026 C 
HETATM    8  C   UNK N   1      29.207  17.654   8.498  0.00  0.00     0.007 C 
HETATM    9  C   UNK N   1      29.547  16.993   6.049  0.00  0.00     0.004 C 
HETATM   10  C   UNK N   1      28.664  16.824   7.326  0.00  0.00    -0.004 C 
HETATM   11  C   UNK N   1      27.598  15.595   5.053  0.00  0.00     0.011 C 
HETATM   12  O   UNK N   1      34.937  17.647   6.813  0.00  0.00    -0.269 OA
HETATM   13  C   UNK N   1      28.987  16.219   4.839  0.00  0.00     0.007 C 
HETATM   14  C   UNK N   1      26.575  16.367   5.936  0.00  0.00    -0.028 C 
HETATM   15  C   UNK N   1      27.242  17.292   6.972  0.00  0.00    -0.001 C 
HETATM   16  C   UNK N   1      27.252  18.695   6.310  0.00  0.00     0.007 C 
HETATM   17  C   UNK N   1      26.727  18.480   4.886  0.00  0.00     0.015 C 
HETATM   18  C   UNK N   1      25.733  17.374   5.125  0.00  0.00     0.086 C 
HETATM   19  C   UNK N   1      25.762  15.277   6.620  0.00  0.00     0.016 C 
HETATM   20  C   UNK N   1      31.275  15.247   6.660  0.00  0.00     0.022 C 
HETATM   21  H   UNK N   1      33.259  17.461   8.633  0.00  0.00     0.163 HD
ENDROOT
BRANCH  18  22
HETATM   22  C   UNK N   1      25.014  16.780   3.927  0.00  0.00     0.227 C 
HETATM   23  O   UNK N   1      25.635  16.624   2.887  0.00  0.00    -0.273 OA
HETATM   24  N   UNK N   1      23.691  16.408   3.968  0.00  0.00    -0.326 N 
HETATM   25  H   UNK N   1      23.356  15.936   3.172  0.00  0.00     0.169 HD
BRANCH  24  26
HETATM   26  C   UNK N   1      22.734  16.616   5.023  0.00  0.00     0.050 A 
HETATM   27  C   UNK N   1      22.577  15.694   6.058  0.00  0.00     0.046 A 
HETATM   28  C   UNK N   1      21.684  15.862   7.099  0.00  0.00     0.050 A 
HETATM   29  C   UNK N   1      20.911  17.024   7.140  0.00  0.00     0.017 A 
HETATM   30  C   UNK N   1      21.044  17.982   6.123  0.00  0.00     0.019 A 
HETATM   31  C   UNK N   1      21.947  17.786   5.058  0.00  0.00     0.074 A 
BRANCH  28  32
HETATM   32  C   UNK N   1      21.574  14.771   8.127  0.00  0.00     0.417 C 
HETATM   33  F   UNK N   1      20.687  13.808   7.675  0.00  0.00    -0.166 F 
HETATM   34  F   UNK N   1      21.122  15.260   9.338  0.00  0.00    -0.166 F 
HETATM   35  F   UNK N   1      22.812  14.179   8.313  0.00  0.00    -0.166 F 
ENDBRANCH  28  32
BRANCH  31  36
HETATM   36  C   UNK N   1      22.056  18.819   3.969  0.00  0.00     0.419 C 
HETATM   37  F   UNK N   1      23.315  19.395   3.955  0.00  0.00    -0.166 F 
HETATM   38  F   UNK N   1      21.118  19.812   4.184  0.00  0.00    -0.166 F 
HETATM   39  F   UNK N   1      21.824  18.231   2.739  0.00  0.00    -0.166 F 
ENDBRANCH  31  36
ENDBRANCH  24  26
ENDBRANCH  18  22
TORSDOF 4
ENDMDL
MODEL 2
REMARK VINA RESULT:      -8.5      1.986      3.506
REMARK  4 active torsions:
REMARK  status: ('A' for Active; 'I' for Inactive)
REMARK    1  A    between atoms: C_18  and  C_21 
REMARK       I    between atoms: C_21  and  N_23 
REMARK    2  A    between atoms: N_23  and  C_24 
REMARK    3  A    between atoms: C_26  and  C_34 
REMARK    4  A    between atoms: C_29  and  C_30 
ROOT
HETATM    1  C   UNK N   1      33.906  17.564   6.825  0.00  0.00     0.071 C 
HETATM    2  C   UNK N   1      33.959  18.117   8.202  0.00  0.00     0.241 C 
HETATM    3  N   UNK N   1      32.802  18.327   8.884  0.00  0.00    -0.352 N 
HETATM    4  C   UNK N   1      32.749  17.060   6.359  0.00  0.00    -0.009 C 
HETATM    5  C   UNK N   1      31.529  16.974   7.261  0.00  0.00    -0.002 C 
HETATM    6  C   UNK N   1      31.541  18.224   8.184  0.00  0.00     0.097 C 
HETATM    7  C   UNK N   1      30.352  18.235   9.138  0.00  0.00     0.026 C 
HETATM    8  C   UNK N   1      29.072  18.317   8.306  0.00  0.00     0.007 C 
HETATM    9  C   UNK N   1      30.232  17.017   6.432  0.00  0.00     0.004 C 
HETATM   10  C   UNK N   1      28.958  17.141   7.327  0.00  0.00    -0.004 C 
HETATM   11  C   UNK N   1      28.730  15.219   5.310  0.00  0.00     0.011 C 
HETATM   12  O   UNK N   1      35.030  18.355   8.725  0.00  0.00    -0.269 OA
HETATM   13  C   UNK N   1      30.116  15.881   5.397  0.00  0.00     0.007 C 
HETATM   14  C   UNK N   1      27.476  16.115   5.523  0.00  0.00    -0.028 C 
HETATM   15  C   UNK N   1      27.755  17.355   6.394  0.00  0.00    -0.001 C 
HETATM   16  C   UNK N   1      28.014  18.504   5.384  0.00  0.00     0.007 C 
HETATM   17  C   UNK N   1      28.013  17.842   4.001  0.00  0.00     0.015 C 
HETATM   18  C   UNK N   1      26.982  16.765   4.215  0.00  0.00     0.086 C 
HETATM   19  C   UNK N   1      26.460  15.196   6.189  0.00  0.00     0.016 C 
HETATM   20  C   UNK N   1      31.615  15.686   8.081  0.00  0.00     0.022 C 
HETATM   21  H   UNK N   1      32.822  18.545   9.844  0.00  0.00     0.163 HD
ENDROOT
BRANCH  18  22
HETATM   22  C   UNK N   1      26.715  15.790   3.082  0.00  0.00     0.227 C 
HETATM   23  O   UNK N   1      27.641  15.471   2.352  0.00  0.00    -0.273 OA
HETATM   24  N   UNK N   1      25.474  15.248   2.849  0.00  0.00    -0.326 N 
HETATM   25  H   UNK N   1      25.436  14.547   2.159  0.00  0.00     0.169 HD
BRANCH  24  26
HETATM   26  C   UNK N   1      24.222  15.571   3.483  0.00  0.00     0.050 A 
HETATM   27  C   UNK N   1      23.749  16.882   3.538  0.00  0.00     0.046 A 
HETATM   28  C   UNK N   1      22.546  17.233   4.120  0.00  0.00     0.050 A 
HETATM   29  C   UNK N   1      21.742  16.229   4.661  0.00  0.00     0.017 A 
HETATM   30  C   UNK N   1      22.176  14.895   4.618  0.00  0.00     0.019 A 
HETATM   31  C   UNK N   1      23.415  14.555   4.038  0.00  0.00     0.074 A 
BRANCH  28  32
HETATM   32  C   UNK N   1      22.172  18.688   4.159  0.00  0.00     0.417 C 
HETATM   33  F   UNK N   1      21.391  18.988   3.055  0.00  0.00    -0.166 F 
HETATM   34  F   UNK N   1      23.291  19.499   4.147  0.00  0.00    -0.166 F 
HETATM   35  F   UNK N   1      21.437  18.951   5.303  0.00  0.00    -0.166 F 
ENDBRANCH  28  32
BRANCH  31  36
HETATM   36  C   UNK N   1      23.868  13.120   4.023  0.00  0.00     0.419 C 
HETATM   37  F   UNK N   1      25.136  12.993   4.566  0.00  0.00    -0.166 F 
HETATM   38  F   UNK N   1      23.900  12.663   2.718  0.00  0.00    -0.166 F 
HETATM   39  F   UNK N   1      22.992  12.343   4.758  0.00  0.00    -0.166 F 
ENDBRANCH  31  36
ENDBRANCH  24  26
ENDBRANCH  18  22
TORSDOF 4
ENDMDL
MODEL 3
REMARK VINA RESULT:      -8.4      4.468      8.733
REMARK  4 active torsions:
REMARK  status: ('A' for Active; 'I' for Inactive)
REMARK    1  A    between atoms: C_18  and  C_21 
REMARK       I    between atoms: C_21  and  N_23 
REMARK    2  A    between atoms: N_23  and  C_24 
REMARK    3  A    between atoms: C_26  and  C_34 
REMARK    4  A    between atoms: C_29  and  C_30 
ROOT
HETATM    1  C   UNK N   1      23.462  10.685   0.122  0.00  0.00     0.071 C 
HETATM    2  C   UNK N   1      22.071  10.500   0.606  0.00  0.00     0.241 C 
HETATM    3  N   UNK N   1      21.605  11.282   1.616  0.00  0.00    -0.352 N 
HETATM    4  C   UNK N   1      24.161  11.765   0.514  0.00  0.00    -0.009 C 
HETATM    5  C   UNK N   1      23.506  12.834   1.374  0.00  0.00    -0.002 C 
HETATM    6  C   UNK N   1      22.530  12.117   2.348  0.00  0.00     0.097 C 
HETATM    7  C   UNK N   1      21.814  13.106   3.261  0.00  0.00     0.026 C 
HETATM    8  C   UNK N   1      22.863  13.804   4.127  0.00  0.00     0.007 C 
HETATM    9  C   UNK N   1      24.557  13.572   2.223  0.00  0.00     0.004 C 
HETATM   10  C   UNK N   1      23.909  14.532   3.270  0.00  0.00    -0.004 C 
HETATM   11  C   UNK N   1      26.035  15.678   1.863  0.00  0.00     0.011 C 
HETATM   12  O   UNK N   1      21.346   9.674   0.087  0.00  0.00    -0.269 OA
HETATM   13  C   UNK N   1      25.657  14.263   1.392  0.00  0.00     0.007 C 
HETATM   14  C   UNK N   1      26.009  15.974   3.391  0.00  0.00    -0.028 C 
HETATM   15  C   UNK N   1      25.036  15.067   4.169  0.00  0.00    -0.001 C 
HETATM   16  C   UNK N   1      25.916  13.918   4.726  0.00  0.00     0.007 C 
HETATM   17  C   UNK N   1      27.309  14.141   4.126  0.00  0.00     0.015 C 
HETATM   18  C   UNK N   1      27.349  15.645   4.081  0.00  0.00     0.086 C 
HETATM   19  C   UNK N   1      25.594  17.435   3.490  0.00  0.00     0.016 C 
HETATM   20  C   UNK N   1      22.756  13.806   0.461  0.00  0.00     0.022 C 
HETATM   21  H   UNK N   1      20.647  11.281   1.846  0.00  0.00     0.163 HD
ENDROOT
BRANCH  18  22
HETATM   22  C   UNK N   1      28.563  16.314   3.461  0.00  0.00     0.227 C 
HETATM   23  O   UNK N   1      29.030  15.847   2.434  0.00  0.00    -0.273 OA
HETATM   24  N   UNK N   1      29.154  17.428   4.008  0.00  0.00    -0.326 N 
HETATM   25  H   UNK N   1      29.865  17.843   3.468  0.00  0.00     0.169 HD
BRANCH  24  26
HETATM   26  C   UNK N   1      28.867  18.069   5.265  0.00  0.00     0.050 A 
HETATM   27  C   UNK N   1      27.986  19.146   5.351  0.00  0.00     0.046 A 
HETATM   28  C   UNK N   1      27.670  19.779   6.538  0.00  0.00     0.050 A 
HETATM   29  C   UNK N   1      28.236  19.306   7.723  0.00  0.00     0.017 A 
HETATM   30  C   UNK N   1      29.121  18.218   7.683  0.00  0.00     0.019 A 
HETATM   31  C   UNK N   1      29.448  17.596   6.460  0.00  0.00     0.074 A 
BRANCH  28  32
HETATM   32  C   UNK N   1      26.744  20.962   6.490  0.00  0.00     0.417 C 
HETATM   33  F   UNK N   1      27.490  22.117   6.326  0.00  0.00    -0.166 F 
HETATM   34  F   UNK N   1      26.002  21.071   7.651  0.00  0.00    -0.166 F 
HETATM   35  F   UNK N   1      25.882  20.836   5.414  0.00  0.00    -0.166 F 
ENDBRANCH  28  32
BRANCH  31  36
HETATM   36  C   UNK N   1      30.417  16.444   6.441  0.00  0.00     0.419 C 
HETATM   37  F   UNK N   1      29.771  15.257   6.138  0.00  0.00    -0.166 F 
HETATM   38  F   UNK N   1      31.005  16.320   7.687  0.00  0.00    -0.166 F 
HETATM   39  F   UNK N   1      31.397  16.669   5.493  0.00  0.00    -0.166 F 
ENDBRANCH  31  36
ENDBRANCH  24  26
ENDBRANCH  18  22
TORSDOF 4
ENDMDL
MODEL 4
REMARK VINA RESULT:      -8.4      6.569      9.844
REMARK  4 active torsions:
REMARK  status: ('A' for Active; 'I' for Inactive)
REMARK    1  A    between atoms: C_18  and  C_21 
REMARK       I    between atoms: C_21  and  N_23 
REMARK    2  A    between atoms: N_23  and  C_24 
REMARK    3  A    between atoms: C_26  and  C_34 
REMARK    4  A    between atoms: C_29  and  C_30 
ROOT
HETATM    1  C   UNK N   1      34.552  11.862  15.465  0.00  0.00     0.071 C 
HETATM    2  C   UNK N   1      34.835  10.413  15.309  0.00  0.00     0.241 C 
HETATM    3  N   UNK N   1      35.070   9.907  14.069  0.00  0.00    -0.352 N 
HETATM    4  C   UNK N   1      34.761  12.692  14.429  0.00  0.00    -0.009 C 
HETATM    5  C   UNK N   1      35.365  12.170  13.135  0.00  0.00    -0.002 C 
HETATM    6  C   UNK N   1      34.818  10.733  12.910  0.00  0.00     0.097 C 
HETATM    7  C   UNK N   1      35.369  10.113  11.631  0.00  0.00     0.026 C 
HETATM    8  C   UNK N   1      34.891  10.953  10.447  0.00  0.00     0.007 C 
HETATM    9  C   UNK N   1      34.923  13.032  11.938  0.00  0.00     0.004 C 
HETATM   10  C   UNK N   1      35.350  12.413  10.570  0.00  0.00    -0.004 C 
HETATM   11  C   UNK N   1      35.872  15.151  10.773  0.00  0.00     0.011 C 
HETATM   12  O   UNK N   1      34.883   9.690  16.285  0.00  0.00    -0.269 OA
HETATM   13  C   UNK N   1      35.317  14.518  12.060  0.00  0.00     0.007 C 
HETATM   14  C   UNK N   1      35.280  14.684   9.412  0.00  0.00    -0.028 C 
HETATM   15  C   UNK N   1      34.704  13.256   9.457  0.00  0.00    -0.001 C 
HETATM   16  C   UNK N   1      33.182  13.444   9.695  0.00  0.00     0.007 C 
HETATM   17  C   UNK N   1      32.985  14.948   9.916  0.00  0.00     0.015 C 
HETATM   18  C   UNK N   1      34.040  15.500   8.994  0.00  0.00     0.086 C 
HETATM   19  C   UNK N   1      36.447  14.773   8.439  0.00  0.00     0.016 C 
HETATM   20  C   UNK N   1      36.889  12.162  13.274  0.00  0.00     0.022 C 
HETATM   21  H   UNK N   1      35.408   8.989  13.961  0.00  0.00     0.163 HD
ENDROOT
BRANCH  18  22
HETATM   22  C   UNK N   1      34.251  17.004   8.959  0.00  0.00     0.227 C 
HETATM   23  O   UNK N   1      35.252  17.468   9.485  0.00  0.00    -0.273 OA
HETATM   24  N   UNK N   1      33.364  17.862   8.357  0.00  0.00    -0.326 N 
HETATM   25  H   UNK N   1      33.651  18.802   8.298  0.00  0.00     0.169 HD
BRANCH  24  26
HETATM   26  C   UNK N   1      32.069  17.567   7.798  0.00  0.00     0.050 A 
HETATM   27  C   UNK N   1      30.906  17.668   8.560  0.00  0.00     0.046 A 
HETATM   28  C   UNK N   1      29.644  17.412   8.060  0.00  0.00     0.050 A 
HETATM   29  C   UNK N   1      29.512  17.057   6.716  0.00  0.00     0.017 A 
HETATM   30  C   UNK N   1      30.657  16.953   5.912  0.00  0.00     0.019 A 
HETATM   31  C   UNK N   1      31.940  17.199   6.442  0.00  0.00     0.074 A 
BRANCH  28  32
HETATM   32  C   UNK N   1      28.473  17.508   8.997  0.00  0.00     0.417 C 
HETATM   33  F   UNK N   1      28.061  18.828   9.077  0.00  0.00    -0.166 F 
HETATM   34  F   UNK N   1      28.801  17.066  10.265  0.00  0.00    -0.166 F 
HETATM   35  F   UNK N   1      27.422  16.747   8.512  0.00  0.00    -0.166 F 
ENDBRANCH  28  32
BRANCH  31  36
HETATM   36  C   UNK N   1      33.154  17.060   5.564  0.00  0.00     0.419 C 
HETATM   37  F   UNK N   1      34.073  18.063   5.824  0.00  0.00    -0.166 F 
HETATM   38  F   UNK N   1      32.772  17.146   4.237  0.00  0.00    -0.166 F 
HETATM   39  F   UNK N   1      33.758  15.837   5.787  0.00  0.00    -0.166 F 
ENDBRANCH  31  36
ENDBRANCH  24  26
ENDBRANCH  18  22
TORSDOF 4
ENDMDL
MODEL 5
REMARK VINA RESULT:      -8.3     12.332     14.068
REMARK  4 active torsions:
REMARK  status: ('A' for Active; 'I' for Inactive)
REMARK    1  A    between atoms: C_18  and  C_21 
REMARK       I    between atoms: C_21  and  N_23 
REMARK    2  A    between atoms: N_23  and  C_24 
REMARK    3  A    between atoms: C_26  and  C_34 
REMARK    4  A    between atoms: C_29  and  C_30 
ROOT
HETATM    1  C   UNK N   1      34.221  18.266  -4.350  0.00  0.00     0.071 C 
HETATM    2  C   UNK N   1      35.431  18.539  -5.167  0.00  0.00     0.241 C 
HETATM    3  N   UNK N   1      35.571  19.749  -5.771  0.00  0.00    -0.352 N 
HETATM    4  C   UNK N   1      33.401  19.280  -4.022  0.00  0.00    -0.009 C 
HETATM    5  C   UNK N   1      33.752  20.708  -4.408  0.00  0.00    -0.002 C 
HETATM    6  C   UNK N   1      34.448  20.659  -5.796  0.00  0.00     0.097 C 
HETATM    7  C   UNK N   1      34.847  22.050  -6.278  0.00  0.00     0.026 C 
HETATM    8  C   UNK N   1      33.575  22.879  -6.454  0.00  0.00     0.007 C 
HETATM    9  C   UNK N   1      32.481  21.564  -4.551  0.00  0.00     0.004 C 
HETATM   10  C   UNK N   1      32.778  22.977  -5.145  0.00  0.00    -0.004 C 
HETATM   11  C   UNK N   1      31.081  23.029  -2.926  0.00  0.00     0.011 C 
HETATM   12  O   UNK N   1      36.301  17.697  -5.272  0.00  0.00    -0.269 OA
HETATM   13  C   UNK N   1      31.627  21.633  -3.268  0.00  0.00     0.007 C 
HETATM   14  C   UNK N   1      30.673  23.966  -4.099  0.00  0.00    -0.028 C 
HETATM   15  C   UNK N   1      31.428  23.664  -5.408  0.00  0.00    -0.001 C 
HETATM   16  C   UNK N   1      30.473  22.751  -6.221  0.00  0.00     0.007 C 
HETATM   17  C   UNK N   1      29.292  22.460  -5.288  0.00  0.00     0.015 C 
HETATM   18  C   UNK N   1      29.209  23.763  -4.538  0.00  0.00     0.086 C 
HETATM   19  C   UNK N   1      30.990  25.367  -3.596  0.00  0.00     0.016 C 
HETATM   20  C   UNK N   1      34.688  21.286  -3.345  0.00  0.00     0.022 C 
HETATM   21  H   UNK N   1      36.427  20.003  -6.185  0.00  0.00     0.163 HD
ENDROOT
BRANCH  18  22
HETATM   22  C   UNK N   1      28.188  23.887  -3.420  0.00  0.00     0.227 C 
HETATM   23  O   UNK N   1      28.397  23.303  -2.368  0.00  0.00    -0.273 OA
HETATM   24  N   UNK N   1      27.041  24.633  -3.545  0.00  0.00    -0.326 N 
HETATM   25  H   UNK N   1      26.504  24.732  -2.725  0.00  0.00     0.169 HD
BRANCH  24  26
HETATM   26  C   UNK N   1      26.521  25.290  -4.716  0.00  0.00     0.050 A 
HETATM   27  C   UNK N   1      26.299  24.594  -5.904  0.00  0.00     0.046 A 
HETATM   28  C   UNK N   1      25.786  25.180  -7.045  0.00  0.00     0.050 A 
HETATM   29  C   UNK N   1      25.445  26.533  -7.011  0.00  0.00     0.017 A 
HETATM   30  C   UNK N   1      25.644  27.268  -5.832  0.00  0.00     0.019 A 
HETATM   31  C   UNK N   1      26.186  26.659  -4.682  0.00  0.00     0.074 A 
BRANCH  28  32
HETATM   32  C   UNK N   1      25.640  24.332  -8.278  0.00  0.00     0.417 C 
HETATM   33  F   UNK N   1      25.142  25.111  -9.310  0.00  0.00    -0.166 F 
HETATM   34  F   UNK N   1      24.780  23.272  -8.064  0.00  0.00    -0.166 F 
HETATM   35  F   UNK N   1      26.878  23.840  -8.655  0.00  0.00    -0.166 F 
ENDBRANCH  28  32
BRANCH  31  36
HETATM   36  C   UNK N   1      26.410  27.475  -3.437  0.00  0.00     0.419 C 
HETATM   37  F   UNK N   1      25.792  28.711  -3.535  0.00  0.00    -0.166 F 
HETATM   38  F   UNK N   1      27.766  27.674  -3.257  0.00  0.00    -0.166 F 
HETATM   39  F   UNK N   1      25.896  26.809  -2.340  0.00  0.00    -0.166 F 
ENDBRANCH  31  36
ENDBRANCH  24  26
ENDBRANCH  18  22
TORSDOF 4
ENDMDL
MODEL 6
REMARK VINA RESULT:      -8.3      5.789      8.783
REMARK  4 active torsions:
REMARK  status: ('A' for Active; 'I' for Inactive)
REMARK    1  A    between atoms: C_18  and  C_21 
REMARK       I    between atoms: C_21  and  N_23 
REMARK    2  A    between atoms: N_23  and  C_24 
REMARK    3  A    between atoms: C_26  and  C_34 
REMARK    4  A    between atoms: C_29  and  C_30 
ROOT
HETATM    1  C   UNK N   1      36.312  13.814  14.184  0.00  0.00     0.071 C 
HETATM    2  C   UNK N   1      36.318  12.375  14.553  0.00  0.00     0.241 C 
HETATM    3  N   UNK N   1      35.909  11.450  13.644  0.00  0.00    -0.352 N 
HETATM    4  C   UNK N   1      36.134  14.166  12.898  0.00  0.00    -0.009 C 
HETATM    5  C   UNK N   1      36.027  13.102  11.817  0.00  0.00    -0.002 C 
HETATM    6  C   UNK N   1      35.268  11.891  12.426  0.00  0.00     0.097 C 
HETATM    7  C   UNK N   1      35.108  10.759  11.418  0.00  0.00     0.026 C 
HETATM    8  C   UNK N   1      34.257  11.270  10.256  0.00  0.00     0.007 C 
HETATM    9  C   UNK N   1      35.204  13.618  10.622  0.00  0.00     0.004 C 
HETATM   10  C   UNK N   1      34.895  12.494   9.584  0.00  0.00    -0.004 C 
HETATM   11  C   UNK N   1      35.780  14.878   8.426  0.00  0.00     0.011 C 
HETATM   12  O   UNK N   1      36.709  12.026  15.649  0.00  0.00    -0.269 OA
HETATM   13  C   UNK N   1      35.788  14.884   9.963  0.00  0.00     0.007 C 
HETATM   14  C   UNK N   1      34.590  14.186   7.700  0.00  0.00    -0.028 C 
HETATM   15  C   UNK N   1      33.927  13.078   8.542  0.00  0.00    -0.001 C 
HETATM   16  C   UNK N   1      32.708  13.762   9.216  0.00  0.00     0.007 C 
HETATM   17  C   UNK N   1      32.814  15.246   8.846  0.00  0.00     0.015 C 
HETATM   18  C   UNK N   1      33.403  15.142   7.464  0.00  0.00     0.086 C 
HETATM   19  C   UNK N   1      35.199  13.616   6.427  0.00  0.00     0.016 C 
HETATM   20  C   UNK N   1      37.438  12.703  11.382  0.00  0.00     0.022 C 
HETATM   21  H   UNK N   1      36.050  10.490  13.813  0.00  0.00     0.163 HD
ENDROOT
BRANCH  18  22
HETATM   22  C   UNK N   1      33.757  16.425   6.734  0.00  0.00     0.227 C 
HETATM   23  O   UNK N   1      34.934  16.675   6.523  0.00  0.00    -0.273 OA
HETATM   24  N   UNK N   1      32.805  17.315   6.297  0.00  0.00    -0.326 N 
HETATM   25  H   UNK N   1      33.136  18.058   5.742  0.00  0.00     0.169 HD
BRANCH  24  26
HETATM   26  C   UNK N   1      31.386  17.302   6.543  0.00  0.00     0.050 A 
HETATM   27  C   UNK N   1      30.862  17.590   7.803  0.00  0.00     0.046 A 
HETATM   28  C   UNK N   1      29.508  17.606   8.079  0.00  0.00     0.050 A 
HETATM   29  C   UNK N   1      28.608  17.348   7.044  0.00  0.00     0.017 A 
HETATM   30  C   UNK N   1      29.093  17.063   5.759  0.00  0.00     0.019 A 
HETATM   31  C   UNK N   1      30.478  17.032   5.498  0.00  0.00     0.074 A 
BRANCH  28  32
HETATM   32  C   UNK N   1      29.072  17.882   9.491  0.00  0.00     0.417 C 
HETATM   33  F   UNK N   1      27.713  18.147   9.504  0.00  0.00    -0.166 F 
HETATM   34  F   UNK N   1      29.743  18.965  10.026  0.00  0.00    -0.166 F 
HETATM   35  F   UNK N   1      29.312  16.769  10.279  0.00  0.00    -0.166 F 
ENDBRANCH  28  32
BRANCH  31  36
HETATM   36  C   UNK N   1      30.973  16.703   4.115  0.00  0.00     0.419 C 
HETATM   37  F   UNK N   1      31.821  17.691   3.643  0.00  0.00    -0.166 F 
HETATM   38  F   UNK N   1      29.895  16.599   3.255  0.00  0.00    -0.166 F 
HETATM   39  F   UNK N   1      31.659  15.503   4.135  0.00  0.00    -0.166 F 
ENDBRANCH  31  36
ENDBRANCH  24  26
ENDBRANCH  18  22
TORSDOF 4
ENDMDL
MODEL 7
REMARK VINA RESULT:      -8.2      4.368      6.524
REMARK  4 active torsions:
REMARK  status: ('A' for Active; 'I' for Inactive)
REMARK    1  A    between atoms: C_18  and  C_21 
REMARK       I    between atoms: C_21  and  N_23 
REMARK    2  A    between atoms: N_23  and  C_24 
REMARK    3  A    between atoms: C_26  and  C_34 
REMARK    4  A    between atoms: C_29  and  C_30 
ROOT
HETATM    1  C   UNK N   1      37.747  13.797   8.236  0.00  0.00     0.071 C 
HETATM    2  C   UNK N   1      37.572  13.641   9.702  0.00  0.00     0.241 C 
HETATM    3  N   UNK N   1      36.374  13.946  10.269  0.00  0.00    -0.352 N 
HETATM    4  C   UNK N   1      36.670  14.006   7.460  0.00  0.00    -0.009 C 
HETATM    5  C   UNK N   1      35.274  13.997   8.062  0.00  0.00    -0.002 C 
HETATM    6  C   UNK N   1      35.372  14.626   9.479  0.00  0.00     0.097 C 
HETATM    7  C   UNK N   1      34.017  14.663  10.177  0.00  0.00     0.026 C 
HETATM    8  C   UNK N   1      33.084  15.559   9.363  0.00  0.00     0.007 C 
HETATM    9  C   UNK N   1      34.313  14.865   7.229  0.00  0.00     0.004 C 
HETATM   10  C   UNK N   1      32.927  15.051   7.923  0.00  0.00    -0.004 C 
HETATM   11  C   UNK N   1      32.746  14.417   5.207  0.00  0.00     0.011 C 
HETATM   12  O   UNK N   1      38.483  13.218  10.386  0.00  0.00    -0.269 OA
HETATM   13  C   UNK N   1      34.181  14.416   5.760  0.00  0.00     0.007 C 
HETATM   14  C   UNK N   1      31.771  15.525   5.700  0.00  0.00    -0.028 C 
HETATM   15  C   UNK N   1      32.127  16.071   7.096  0.00  0.00    -0.001 C 
HETATM   16  C   UNK N   1      32.951  17.358   6.826  0.00  0.00     0.007 C 
HETATM   17  C   UNK N   1      33.148  17.407   5.306  0.00  0.00     0.015 C 
HETATM   18  C   UNK N   1      31.847  16.806   4.843  0.00  0.00     0.086 C 
HETATM   19  C   UNK N   1      30.404  14.855   5.707  0.00  0.00     0.016 C 
HETATM   20  C   UNK N   1      34.783  12.550   8.137  0.00  0.00     0.022 C 
HETATM   21  H   UNK N   1      36.190  13.707  11.206  0.00  0.00     0.163 HD
ENDROOT
BRANCH  18  22
HETATM   22  C   UNK N   1      31.645  16.586   3.354  0.00  0.00     0.227 C 
HETATM   23  O   UNK N   1      32.628  16.449   2.643  0.00  0.00    -0.273 OA
HETATM   24  N   UNK N   1      30.399  16.532   2.777  0.00  0.00    -0.326 N 
HETATM   25  H   UNK N   1      30.379  16.278   1.825  0.00  0.00     0.169 HD
BRANCH  24  26
HETATM   26  C   UNK N   1      29.118  16.795   3.381  0.00  0.00     0.050 A 
HETATM   27  C   UNK N   1      28.884  17.957   4.117  0.00  0.00     0.046 A 
HETATM   28  C   UNK N   1      27.667  18.258   4.698  0.00  0.00     0.050 A 
HETATM   29  C   UNK N   1      26.602  17.372   4.524  0.00  0.00     0.017 A 
HETATM   30  C   UNK N   1      26.792  16.196   3.782  0.00  0.00     0.019 A 
HETATM   31  C   UNK N   1      28.046  15.895   3.212  0.00  0.00     0.074 A 
BRANCH  28  32
HETATM   32  C   UNK N   1      27.557  19.518   5.509  0.00  0.00     0.417 C 
HETATM   33  F   UNK N   1      28.237  19.351   6.704  0.00  0.00    -0.166 F 
HETATM   34  F   UNK N   1      26.240  19.831   5.784  0.00  0.00    -0.166 F 
HETATM   35  F   UNK N   1      28.135  20.570   4.817  0.00  0.00    -0.166 F 
ENDBRANCH  28  32
BRANCH  31  36
HETATM   36  C   UNK N   1      28.230  14.617   2.439  0.00  0.00     0.419 C 
HETATM   37  F   UNK N   1      29.297  13.885   2.934  0.00  0.00    -0.166 F 
HETATM   38  F   UNK N   1      28.479  14.915   1.112  0.00  0.00    -0.166 F 
HETATM   39  F   UNK N   1      27.086  13.845   2.526  0.00  0.00    -0.166 F 
ENDBRANCH  31  36
ENDBRANCH  24  26
ENDBRANCH  18  22
TORSDOF 4
ENDMDL
MODEL 8
REMARK VINA RESULT:      -8.2      4.267      8.883
REMARK  4 active torsions:
REMARK  status: ('A' for Active; 'I' for Inactive)
REMARK    1  A    between atoms: C_18  and  C_21 
REMARK       I    between atoms: C_21  and  N_23 
REMARK    2  A    between atoms: N_23  and  C_24 
REMARK    3  A    between atoms: C_26  and  C_34 
REMARK    4  A    between atoms: C_29  and  C_30 
ROOT
HETATM    1  C   UNK N   1      21.729  13.902   1.983  0.00  0.00     0.071 C 
HETATM    2  C   UNK N   1      20.613  13.812   2.958  0.00  0.00     0.241 C 
HETATM    3  N   UNK N   1      20.809  14.225   4.239  0.00  0.00    -0.352 N 
HETATM    4  C   UNK N   1      22.834  14.598   2.304  0.00  0.00    -0.009 C 
HETATM    5  C   UNK N   1      22.906  15.362   3.617  0.00  0.00    -0.002 C 
HETATM    6  C   UNK N   1      22.150  14.527   4.686  0.00  0.00     0.097 C 
HETATM    7  C   UNK N   1      22.161  15.211   6.049  0.00  0.00     0.026 C 
HETATM    8  C   UNK N   1      23.611  15.315   6.521  0.00  0.00     0.007 C 
HETATM    9  C   UNK N   1      24.367  15.508   4.083  0.00  0.00     0.004 C 
HETATM   10  C   UNK N   1      24.474  16.102   5.524  0.00  0.00    -0.004 C 
HETATM   11  C   UNK N   1      26.233  17.272   3.695  0.00  0.00     0.011 C 
HETATM   12  O   UNK N   1      19.525  13.399   2.607  0.00  0.00    -0.269 OA
HETATM   13  C   UNK N   1      25.273  16.242   3.076  0.00  0.00     0.007 C 
HETATM   14  C   UNK N   1      26.835  16.964   5.096  0.00  0.00    -0.028 C 
HETATM   15  C   UNK N   1      25.950  16.032   5.946  0.00  0.00    -0.001 C 
HETATM   16  C   UNK N   1      26.539  14.612   5.730  0.00  0.00     0.007 C 
HETATM   17  C   UNK N   1      27.629  14.779   4.665  0.00  0.00     0.015 C 
HETATM   18  C   UNK N   1      28.144  16.151   5.013  0.00  0.00     0.086 C 
HETATM   19  C   UNK N   1      26.985  18.328   5.755  0.00  0.00     0.016 C 
HETATM   20  C   UNK N   1      22.251  16.731   3.424  0.00  0.00     0.022 C 
HETATM   21  H   UNK N   1      20.046  14.317   4.855  0.00  0.00     0.163 HD
ENDROOT
BRANCH  18  22
HETATM   22  C   UNK N   1      29.216  16.763   4.130  0.00  0.00     0.227 C 
HETATM   23  O   UNK N   1      29.054  16.756   2.919  0.00  0.00    -0.273 OA
HETATM   24  N   UNK N   1      30.360  17.329   4.640  0.00  0.00    -0.326 N 
HETATM   25  H   UNK N   1      30.936  17.791   3.988  0.00  0.00     0.169 HD
BRANCH  24  26
HETATM   26  C   UNK N   1      30.827  17.335   6.002  0.00  0.00     0.050 A 
HETATM   27  C   UNK N   1      29.952  17.519   7.072  0.00  0.00     0.046 A 
HETATM   28  C   UNK N   1      30.354  17.515   8.394  0.00  0.00     0.050 A 
HETATM   29  C   UNK N   1      31.700  17.290   8.687  0.00  0.00     0.017 A 
HETATM   30  C   UNK N   1      32.613  17.091   7.640  0.00  0.00     0.019 A 
HETATM   31  C   UNK N   1      32.190  17.117   6.295  0.00  0.00     0.074 A 
BRANCH  28  32
HETATM   32  C   UNK N   1      29.320  17.774   9.454  0.00  0.00     0.417 C 
HETATM   33  F   UNK N   1      29.645  18.936  10.133  0.00  0.00    -0.166 F 
HETATM   34  F   UNK N   1      29.250  16.733  10.360  0.00  0.00    -0.166 F 
HETATM   35  F   UNK N   1      28.078  17.941   8.863  0.00  0.00    -0.166 F 
ENDBRANCH  28  32
BRANCH  31  36
HETATM   36  C   UNK N   1      33.192  16.922   5.190  0.00  0.00     0.419 C 
HETATM   37  F   UNK N   1      32.885  15.805   4.432  0.00  0.00    -0.166 F 
HETATM   38  F   UNK N   1      34.451  16.751   5.738  0.00  0.00    -0.166 F 
HETATM   39  F   UNK N   1      33.201  18.030   4.362  0.00  0.00    -0.166 F 
ENDBRANCH  31  36
ENDBRANCH  24  26
ENDBRANCH  18  22
TORSDOF 4
ENDMDL
MODEL 9
REMARK VINA RESULT:      -8.2     11.324     14.964
REMARK  4 active torsions:
REMARK  status: ('A' for Active; 'I' for Inactive)
REMARK    1  A    between atoms: C_18  and  C_21 
REMARK       I    between atoms: C_21  and  N_23 
REMARK    2  A    between atoms: N_23  and  C_24 
REMARK    3  A    between atoms: C_26  and  C_34 
REMARK    4  A    between atoms: C_29  and  C_30 
ROOT
HETATM    1  C   UNK N   1      37.594   9.173  20.547  0.00  0.00     0.071 C 
HETATM    2  C   UNK N   1      36.998  10.130  21.512  0.00  0.00     0.241 C 
HETATM    3  N   UNK N   1      36.214  11.142  21.053  0.00  0.00    -0.352 N 
HETATM    4  C   UNK N   1      37.170   9.170  19.271  0.00  0.00    -0.009 C 
HETATM    5  C   UNK N   1      36.028  10.075  18.838  0.00  0.00    -0.002 C 
HETATM    6  C   UNK N   1      36.158  11.404  19.633  0.00  0.00     0.097 C 
HETATM    7  C   UNK N   1      35.051  12.389  19.273  0.00  0.00     0.026 C 
HETATM    8  C   UNK N   1      35.193  12.748  17.794  0.00  0.00     0.007 C 
HETATM    9  C   UNK N   1      36.137  10.414  17.340  0.00  0.00     0.004 C 
HETATM   10  C   UNK N   1      35.109  11.503  16.900  0.00  0.00    -0.004 C 
HETATM   11  C   UNK N   1      35.246   9.322  15.158  0.00  0.00     0.011 C 
HETATM   12  O   UNK N   1      37.187   9.995  22.705  0.00  0.00    -0.269 OA
HETATM   13  C   UNK N   1      36.116   9.178  16.418  0.00  0.00     0.007 C 
HETATM   14  C   UNK N   1      35.169  10.717  14.474  0.00  0.00    -0.028 C 
HETATM   15  C   UNK N   1      35.431  11.885  15.445  0.00  0.00    -0.001 C 
HETATM   16  C   UNK N   1      36.933  12.229  15.265  0.00  0.00     0.007 C 
HETATM   17  C   UNK N   1      37.487  11.159  14.316  0.00  0.00     0.015 C 
HETATM   18  C   UNK N   1      36.288  10.930  13.434  0.00  0.00     0.086 C 
HETATM   19  C   UNK N   1      33.760  10.786  13.903  0.00  0.00     0.016 C 
HETATM   20  C   UNK N   1      34.703   9.376  19.149  0.00  0.00     0.022 C 
HETATM   21  H   UNK N   1      35.689  11.690  21.681  0.00  0.00     0.163 HD
ENDROOT
BRANCH  18  22
HETATM   22  C   UNK N   1      36.375   9.853  12.367  0.00  0.00     0.227 C 
HETATM   23  O   UNK N   1      36.939   8.803  12.637  0.00  0.00    -0.273 OA
HETATM   24  N   UNK N   1      35.841  10.011  11.111  0.00  0.00    -0.326 N 
HETATM   25  H   UNK N   1      35.859   9.212  10.535  0.00  0.00     0.169 HD
BRANCH  24  26
HETATM   26  C   UNK N   1      35.257  11.190  10.527  0.00  0.00     0.050 A 
HETATM   27  C   UNK N   1      35.921  12.417  10.543  0.00  0.00     0.046 A 
HETATM   28  C   UNK N   1      35.405  13.569   9.980  0.00  0.00     0.050 A 
HETATM   29  C   UNK N   1      34.169  13.507   9.336  0.00  0.00     0.017 A 
HETATM   30  C   UNK N   1      33.472  12.290   9.288  0.00  0.00     0.019 A 
HETATM   31  C   UNK N   1      34.003  11.128   9.884  0.00  0.00     0.074 A 
BRANCH  28  32
HETATM   32  C   UNK N   1      36.197  14.840  10.108  0.00  0.00     0.417 C 
HETATM   33  F   UNK N   1      35.600  15.828   9.342  0.00  0.00    -0.166 F 
HETATM   34  F   UNK N   1      37.500  14.671   9.681  0.00  0.00    -0.166 F 
HETATM   35  F   UNK N   1      36.206  15.253  11.430  0.00  0.00    -0.166 F 
ENDBRANCH  28  32
BRANCH  31  36
HETATM   36  C   UNK N   1      33.226   9.840   9.838  0.00  0.00     0.419 C 
HETATM   37  F   UNK N   1      33.046   9.322  11.110  0.00  0.00    -0.166 F 
HETATM   38  F   UNK N   1      33.919   8.914   9.079  0.00  0.00    -0.166 F 
HETATM   39  F   UNK N   1      31.985  10.059   9.269  0.00  0.00    -0.166 F 
ENDBRANCH  31  36
ENDBRANCH  24  26
ENDBRANCH  18  22
TORSDOF 4
ENDMDL
