REMARK  10 active torsions:
REMARK  status: ('A' for Active; 'I' for Inactive)
REMARK    1  A    between atoms: C_2  and  C_1 
REMARK    2  A    between atoms: O_22  and  C_2 
REMARK    3  A    between atoms: C_3  and  C_11 
REMARK       I    between atoms: N_17  and  C_3 
REMARK    4  A    between atoms: N_4  and  C_15 
REMARK    5  A    between atoms: C_21  and  N_6 
REMARK    6  A    between atoms: O_28  and  C_8 
REMARK    7  A    between atoms: C_9  and  C_12 
REMARK    8  A    between atoms: O_16  and  C_9 
REMARK    9  A    between atoms: C_12  and  C_23 
REMARK   10  A    between atoms: C_23  and  N_17 
ROOT
HETATM    1  C   UNK N   1      12.167 -19.944  -0.000  0.00  0.00     0.032 A 
HETATM    2  C   UNK N   1      12.273 -21.341   0.000  0.00  0.00     0.019 A 
HETATM    3  C   UNK N   1      10.897 -19.348   0.000  0.00  0.00     0.019 A 
HETATM    4  C   UNK N   1       9.872 -21.552  -0.000  0.00  0.00     0.048 A 
HETATM    5  C   UNK N   1       9.751 -20.155  -0.000  0.00  0.00     0.032 A 
HETATM    6  C   UNK N   1      11.140 -22.139   0.000  0.00  0.00     0.032 A 
ENDROOT
BRANCH   4   7
HETATM    7  N   UNK N   1       8.713 -22.358   0.000  0.00  0.00    -0.300 N 
HETATM    8  N   UNK N   1       8.792 -23.603   0.000  0.00  0.00    -0.300 N 
ATOM      9  HN  UNK N   1       9.708 -24.052   0.000  1.00  0.00     0.187 HD
ATOM     10  HN  UNK N   1       7.795 -21.914   0.000  1.00  0.00     0.187 HD
BRANCH   8  11
HETATM   11  C   UNK N   1       7.624 -24.398  -0.000  0.00  0.00     0.049 A 
HETATM   12  C   UNK N   1       6.363 -23.795  -0.000  0.00  0.00     0.052 A 
HETATM   13  C   UNK N   1       5.196 -24.561   0.000  0.00  0.00     0.072 A 
HETATM   14  C   UNK N   1       5.304 -25.970   0.000  0.00  0.00     0.082 A 
HETATM   15  C   UNK N   1       6.567 -26.574   0.000  0.00  0.00     0.040 A 
HETATM   16  C   UNK N   1       7.725 -25.791  -0.000  0.00  0.00     0.034 A 
BRANCH  13  17
HETATM   17  C   UNK N   1       3.891 -23.856  -0.000  0.00  0.00     0.179 C 
HETATM   18  O   UNK N   1       3.858 -22.634   0.000  0.00  0.00    -0.646 OA
BRANCH  17  19
HETATM   19  O   UNK N   1       2.734 -24.543  -0.000  0.00  0.00    -0.773 OA
HETATM   20  H   UNK N   1       1.916 -24.085  -0.000  0.00  0.00     0.167 HD
ENDBRANCH  17  19
ENDBRANCH  13  17
BRANCH  14  21
HETATM   21  O   UNK N   1       4.208 -26.749  -0.000  0.00  0.00    -0.360 OA
HETATM   22  H   UNK N   1       3.356 -26.359  -0.000  0.00  0.00     0.217 HD
ENDBRANCH  14  21
ENDBRANCH   8  11
ENDBRANCH   4   7
BRANCH   1  23
HETATM   23  C   UNK N   1      13.409 -19.152   0.000  0.00  0.00     0.251 C 
HETATM   24  O   UNK N   1      13.383 -17.929  -0.000  0.00  0.00    -0.268 OA
HETATM   25  N   UNK N   1      14.581 -19.826   0.000  0.00  0.00    -0.356 N 
HETATM   26  H   UNK N   1      14.530 -20.809   0.000  0.00  0.00     0.162 HD
BRANCH  25  27
HETATM   27  C   UNK N   1      15.890 -19.244   0.000  0.00  0.00     0.133 C 
BRANCH  27  28
HETATM   28  C   UNK N   1      16.850 -20.423   0.000  0.00  0.00     0.129 C 
BRANCH  28  29
HETATM   29  C   UNK N   1      18.299 -20.071   0.000  0.00  0.00     0.140 C 
HETATM   30  O   UNK N   1      18.666 -18.907  -0.000  0.00  0.00    -0.650 OA
BRANCH  29  31
HETATM   31  O   UNK N   1      19.211 -21.060  -0.000  0.00  0.00    -0.776 OA
HETATM   32  H   UNK N   1      18.932 -21.955  -0.000  0.00  0.00     0.167 HD
ENDBRANCH  29  31
ENDBRANCH  28  29
ENDBRANCH  27  28
ENDBRANCH  25  27
ENDBRANCH   1  23
TORSDOF 10
