REMARK  7 active torsions:
REMARK  status: ('A' for Active; 'I' for Inactive)
REMARK    1  A    between atoms: C_1  and  N_19 
REMARK    2  A    between atoms: C_4  and  O_27 
REMARK    3  A    between atoms: C_12  and  O_29 
REMARK    4  A    between atoms: C_13  and  O_21 
REMARK    5  A    between atoms: C_15  and  N_20 
REMARK    6  A    between atoms: C_17  and  C_31 
REMARK    7  A    between atoms: C_18  and  O_26 
REMARK       I    between atoms: C_31  and  N_33 
ROOT
HETATM    1  C   UNK N   1       9.149  -9.105  -0.092  0.00  0.00     0.036 A 
HETATM    2  C   UNK N   1       7.940  -9.757  -0.383  0.00  0.00     0.033 A 
HETATM    3  C   UNK N   1       7.850 -11.145  -0.402  0.00  0.00     0.040 A 
HETATM    4  C   UNK N   1       8.972 -11.931  -0.159  0.00  0.00     0.080 A 
HETATM    5  C   UNK N   1      10.212 -11.321   0.127  0.00  0.00     0.056 A 
HETATM    6  C   UNK N   1      10.291  -9.909   0.189  0.00  0.00    -0.014 A 
HETATM    7  C   UNK N   1      11.578  -9.302   0.641  0.00  0.00     0.051 C 
HETATM    8  C   UNK N   1      11.465 -12.127   0.283  0.00  0.00     0.194 C 
HETATM    9  C   UNK N   1      12.779 -11.435   0.081  0.00  0.00     0.030 C 
HETATM   10  C   UNK N   1      12.816  -9.919   0.040  0.00  0.00     0.030 C 
HETATM   11  C   UNK N   1      13.983  -9.417   0.898  0.00  0.00     0.021 C 
HETATM   12  C   UNK N   1      13.950 -12.096  -0.123  0.00  0.00     0.096 C 
HETATM   13  C   UNK N   1      15.208 -11.267  -0.415  0.00  0.00     0.177 C 
HETATM   14  C   UNK N   1      15.316 -10.155   0.651  0.00  0.00     0.075 C 
HETATM   15  C   UNK N   1      16.492  -9.190   0.332  0.00  0.00     0.286 C 
HETATM   16  C   UNK N   1      16.516 -12.031  -0.422  0.00  0.00     0.208 C 
HETATM   17  C   UNK N   1      17.813 -11.306  -0.179  0.00  0.00     0.112 C 
HETATM   18  C   UNK N   1      17.793  -9.978   0.163  0.00  0.00     0.096 C 
HETATM   19  O   UNK N   1      11.412 -13.344   0.389  0.00  0.00    -0.287 OA
HETATM   20  O   UNK N   1      16.520 -13.233  -0.644  0.00  0.00    -0.288 OA
ENDROOT
BRANCH  17  21
HETATM   21  C   UNK N   1      19.112 -12.060  -0.306  0.00  0.00     0.255 C 
HETATM   22  O   UNK N   1      19.106 -13.243  -0.613  0.00  0.00    -0.268 OA
HETATM   23  N   UNK N   1      20.298 -11.459  -0.086  0.00  0.00    -0.366 N 
HETATM   24  H   UNK N   1      21.112 -11.990   0.075  0.00  0.00     0.159 HD
HETATM   25  H   UNK N   1      20.352 -10.476  -0.086  0.00  0.00     0.159 HD
ENDBRANCH  17  21
BRANCH  18  26
HETATM   26  O   UNK N   1      18.946  -9.313   0.380  0.00  0.00    -0.362 OA
HETATM   27  H   UNK N   1      19.746  -9.776   0.531  0.00  0.00     0.217 HD
ENDBRANCH  18  26
BRANCH  13  28
HETATM   28  O   UNK N   1      15.057 -10.685  -1.679  0.00  0.00    -0.374 OA
HETATM   29  H   UNK N   1      15.353 -10.393  -2.555  0.00  0.00     0.211 HD
ENDBRANCH  13  28
BRANCH  15  30
HETATM   30  N   UNK N   1      16.229  -8.282  -0.814  0.00  0.00     0.091 N 
HETATM   31  C   UNK N   1      17.416  -7.525  -1.191  0.00  0.00     0.310 C 
HETATM   32  C   UNK N   1      15.274  -7.255  -0.421  0.00  0.00     0.310 C 
ENDBRANCH  15  30
BRANCH  12  33
HETATM   33  O   UNK N   1      13.999 -13.444  -0.072  0.00  0.00    -0.361 OA
HETATM   34  H   UNK N   1      13.205 -13.941  -0.037  0.00  0.00     0.217 HD
ENDBRANCH  12  33
BRANCH   4  35
HETATM   35  O   UNK N   1       8.856 -13.269  -0.232  0.00  0.00    -0.360 OA
HETATM   36  H   UNK N   1       8.008 -13.664  -0.283  0.00  0.00     0.217 HD
ENDBRANCH   4  35
BRANCH   1  37
HETATM   37  N   UNK N   1       9.174  -7.661  -0.095  0.00  0.00    -0.389 N 
HETATM   38  C   UNK N   1      10.385  -6.893   0.057  0.00  0.00     0.149 C 
HETATM   39  C   UNK N   1       7.970  -6.919  -0.370  0.00  0.00     0.149 C 
ENDBRANCH   1  37
TORSDOF 7
