MODEL 1
REMARK VINA RESULT:      -5.0      0.000      0.000
REMARK  3 active torsions:
REMARK  status: ('A' for Active; 'I' for Inactive)
REMARK    1  A    between atoms: C_2  and  N_1 
REMARK    2  A    between atoms: C_5  and  C_2 
REMARK    3  A    between atoms: C_2  and  C_6 
REMARK       I    between atoms: N_10  and  C_5 
ROOT
HETATM    1  C   UNK N   1      33.664  16.907   8.769  0.00  0.00     0.178 C 
ENDROOT
BRANCH   1   2
HETATM    2  N   UNK N   1      34.279  16.089   9.849  0.00  0.00    -0.339 N 
HETATM    3  C   UNK N   1      35.325  16.387  10.655  0.00  0.00     0.220 A 
HETATM    4  C   UNK N   1      35.668  15.329  11.623  0.00  0.00     0.104 A 
HETATM    5  O   UNK N   1      35.954  17.427  10.614  0.00  0.00    -0.273 OA
HETATM    6  C   UNK N   1      34.638  14.249  11.310  0.00  0.00     0.029 A 
HETATM    7  C   UNK N   1      33.772  14.783  10.167  0.00  0.00     0.127 A 
ENDBRANCH   1   2
BRANCH   1   8
HETATM    8  C   UNK N   1      34.369  17.974   7.925  0.00  0.00     0.238 C 
HETATM    9  N   UNK N   1      34.947  19.063   8.454  0.00  0.00    -0.368 N 
HETATM   10  H   UNK N   1      35.388  19.719   7.869  0.00  0.00     0.159 HD
HETATM   11  H   UNK N   1      34.930  19.204   9.428  0.00  0.00     0.159 HD
HETATM   12  O   UNK N   1      34.410  17.831   6.713  0.00  0.00    -0.271 OA
ENDBRANCH   1   8
BRANCH   1  13
HETATM   13  C   UNK N   1      32.164  16.740   8.381  0.00  0.00     0.030 C 
HETATM   14  C   UNK N   1      31.177  17.883   8.557  0.00  0.00     0.007 C 
ENDBRANCH   1  13
TORSDOF 3
ENDMDL
MODEL 2
REMARK VINA RESULT:      -4.8     10.343     12.004
REMARK  3 active torsions:
REMARK  status: ('A' for Active; 'I' for Inactive)
REMARK    1  A    between atoms: C_2  and  N_1 
REMARK    2  A    between atoms: C_5  and  C_2 
REMARK    3  A    between atoms: C_2  and  C_6 
REMARK       I    between atoms: N_10  and  C_5 
ROOT
HETATM    1  C   UNK N   1      43.181  21.484   3.243  0.00  0.00     0.178 C 
ENDROOT
BRANCH   1   2
HETATM    2  N   UNK N   1      41.887  21.320   2.527  0.00  0.00    -0.339 N 
HETATM    3  C   UNK N   1      40.802  20.592   2.882  0.00  0.00     0.220 A 
HETATM    4  C   UNK N   1      39.683  20.661   1.923  0.00  0.00     0.104 A 
HETATM    5  O   UNK N   1      40.718  19.927   3.896  0.00  0.00    -0.273 OA
HETATM    6  C   UNK N   1      40.232  21.587   0.842  0.00  0.00     0.029 A 
HETATM    7  C   UNK N   1      41.645  21.981   1.275  0.00  0.00     0.127 A 
ENDBRANCH   1   2
BRANCH   1   8
HETATM    8  C   UNK N   1      43.573  22.652   4.154  0.00  0.00     0.238 C 
HETATM    9  N   UNK N   1      43.561  23.931   3.750  0.00  0.00    -0.368 N 
HETATM   10  H   UNK N   1      43.822  24.646   4.375  0.00  0.00     0.159 HD
HETATM   11  H   UNK N   1      43.292  24.155   2.831  0.00  0.00     0.159 HD
HETATM   12  O   UNK N   1      43.912  22.412   5.302  0.00  0.00    -0.271 OA
ENDBRANCH   1   8
BRANCH   1  13
HETATM   13  C   UNK N   1      44.314  20.422   3.120  0.00  0.00     0.030 C 
HETATM   14  C   UNK N   1      43.990  18.949   2.931  0.00  0.00     0.007 C 
ENDBRANCH   1  13
TORSDOF 3
ENDMDL
MODEL 3
REMARK VINA RESULT:      -4.7      7.090      8.376
REMARK  3 active torsions:
REMARK  status: ('A' for Active; 'I' for Inactive)
REMARK    1  A    between atoms: C_2  and  N_1 
REMARK    2  A    between atoms: C_5  and  C_2 
REMARK    3  A    between atoms: C_2  and  C_6 
REMARK       I    between atoms: N_10  and  C_5 
ROOT
HETATM    1  C   UNK N   1      35.867  13.384  16.118  0.00  0.00     0.178 C 
ENDROOT
BRANCH   1   2
HETATM    2  N   UNK N   1      35.327  12.077  15.655  0.00  0.00    -0.339 N 
HETATM    3  C   UNK N   1      35.806  10.830  15.875  0.00  0.00     0.220 A 
HETATM    4  C   UNK N   1      35.007   9.754  15.259  0.00  0.00     0.104 A 
HETATM    5  O   UNK N   1      36.805  10.578  16.520  0.00  0.00    -0.273 OA
HETATM    6  C   UNK N   1      33.885  10.528  14.574  0.00  0.00     0.029 A 
HETATM    7  C   UNK N   1      34.134  12.010  14.857  0.00  0.00     0.127 A 
ENDBRANCH   1   2
BRANCH   1   8
HETATM    8  C   UNK N   1      36.828  14.294  15.345  0.00  0.00     0.238 C 
HETATM    9  N   UNK N   1      36.836  14.380  14.007  0.00  0.00    -0.368 N 
HETATM   10  H   UNK N   1      37.474  14.980  13.557  0.00  0.00     0.159 HD
HETATM   11  H   UNK N   1      36.206  13.844  13.475  0.00  0.00     0.159 HD
HETATM   12  O   UNK N   1      37.624  14.974  15.973  0.00  0.00    -0.271 OA
ENDBRANCH   1   8
BRANCH   1  13
HETATM   13  C   UNK N   1      35.479  13.974  17.507  0.00  0.00     0.030 C 
HETATM   14  C   UNK N   1      35.189  13.065  18.691  0.00  0.00     0.007 C 
ENDBRANCH   1  13
TORSDOF 3
ENDMDL
MODEL 4
REMARK VINA RESULT:      -4.7     16.553     18.765
REMARK  3 active torsions:
REMARK  status: ('A' for Active; 'I' for Inactive)
REMARK    1  A    between atoms: C_2  and  N_1 
REMARK    2  A    between atoms: C_5  and  C_2 
REMARK    3  A    between atoms: C_2  and  C_6 
REMARK       I    between atoms: N_10  and  C_5 
ROOT
HETATM    1  C   UNK N   1      26.555  25.449  -4.415  0.00  0.00     0.178 C 
ENDROOT
BRANCH   1   2
HETATM    2  N   UNK N   1      26.671  26.923  -4.586  0.00  0.00    -0.339 N 
HETATM    3  C   UNK N   1      26.149  27.913  -3.825  0.00  0.00     0.220 A 
HETATM    4  C   UNK N   1      26.469  29.274  -4.296  0.00  0.00     0.104 A 
HETATM    5  O   UNK N   1      25.471  27.737  -2.832  0.00  0.00    -0.273 OA
HETATM    6  C   UNK N   1      27.316  29.004  -5.535  0.00  0.00     0.029 A 
HETATM    7  C   UNK N   1      27.416  27.484  -5.678  0.00  0.00     0.127 A 
ENDBRANCH   1   2
BRANCH   1   8
HETATM    8  C   UNK N   1      27.404  24.574  -3.486  0.00  0.00     0.238 C 
HETATM    9  N   UNK N   1      28.723  24.396  -3.652  0.00  0.00    -0.368 N 
HETATM   10  H   UNK N   1      29.224  23.824  -3.028  0.00  0.00     0.159 HD
HETATM   11  H   UNK N   1      29.190  24.838  -4.397  0.00  0.00     0.159 HD
HETATM   12  O   UNK N   1      26.859  24.010  -2.551  0.00  0.00    -0.271 OA
ENDBRANCH   1   8
BRANCH   1  13
HETATM   13  C   UNK N   1      25.501  24.622  -5.210  0.00  0.00     0.030 C 
HETATM   14  C   UNK N   1      25.918  23.433  -6.061  0.00  0.00     0.007 C 
ENDBRANCH   1  13
TORSDOF 3
ENDMDL
MODEL 5
REMARK VINA RESULT:      -4.7     14.113     16.447
REMARK  3 active torsions:
REMARK  status: ('A' for Active; 'I' for Inactive)
REMARK    1  A    between atoms: C_2  and  N_1 
REMARK    2  A    between atoms: C_5  and  C_2 
REMARK    3  A    between atoms: C_2  and  C_6 
REMARK       I    between atoms: N_10  and  C_5 
ROOT
HETATM    1  C   UNK N   1      29.791  24.027  -3.476  0.00  0.00     0.178 C 
ENDROOT
BRANCH   1   2
HETATM    2  N   UNK N   1      28.456  24.139  -4.124  0.00  0.00    -0.339 N 
HETATM    3  C   UNK N   1      27.228  24.152  -3.553  0.00  0.00     0.220 A 
HETATM    4  C   UNK N   1      26.114  24.277  -4.511  0.00  0.00     0.104 A 
HETATM    5  O   UNK N   1      27.022  24.069  -2.358  0.00  0.00    -0.273 OA
HETATM    6  C   UNK N   1      26.837  24.347  -5.852  0.00  0.00     0.029 A 
HETATM    7  C   UNK N   1      28.334  24.254  -5.551  0.00  0.00     0.127 A 
ENDBRANCH   1   2
BRANCH   1   8
HETATM    8  C   UNK N   1      30.291  22.855  -2.625  0.00  0.00     0.238 C 
HETATM    9  N   UNK N   1      30.591  21.653  -3.140  0.00  0.00    -0.368 N 
HETATM   10  H   UNK N   1      30.910  20.932  -2.551  0.00  0.00     0.159 HD
HETATM   11  H   UNK N   1      30.493  21.493  -4.106  0.00  0.00     0.159 HD
HETATM   12  O   UNK N   1      30.425  23.017  -1.423  0.00  0.00    -0.271 OA
ENDBRANCH   1   8
BRANCH   1  13
HETATM   13  C   UNK N   1      30.855  25.157  -3.614  0.00  0.00     0.030 C 
HETATM   14  C   UNK N   1      30.451  26.622  -3.575  0.00  0.00     0.007 C 
ENDBRANCH   1  13
TORSDOF 3
ENDMDL
MODEL 6
REMARK VINA RESULT:      -4.6     16.235     18.028
REMARK  3 active torsions:
REMARK  status: ('A' for Active; 'I' for Inactive)
REMARK    1  A    between atoms: C_2  and  N_1 
REMARK    2  A    between atoms: C_5  and  C_2 
REMARK    3  A    between atoms: C_2  and  C_6 
REMARK       I    between atoms: N_10  and  C_5 
ROOT
HETATM    1  C   UNK N   1      26.303  26.329  -4.304  0.00  0.00     0.178 C 
ENDROOT
BRANCH   1   2
HETATM    2  N   UNK N   1      27.462  25.398  -4.233  0.00  0.00    -0.339 N 
HETATM    3  C   UNK N   1      27.623  24.293  -3.467  0.00  0.00     0.220 A 
HETATM    4  C   UNK N   1      28.914  23.605  -3.658  0.00  0.00     0.104 A 
HETATM    5  O   UNK N   1      26.800  23.873  -2.679  0.00  0.00    -0.273 OA
HETATM    6  C   UNK N   1      29.596  24.470  -4.713  0.00  0.00     0.029 A 
HETATM    7  C   UNK N   1      28.626  25.604  -5.048  0.00  0.00     0.127 A 
ENDBRANCH   1   2
BRANCH   1   8
HETATM    8  C   UNK N   1      25.953  27.422  -3.289  0.00  0.00     0.238 C 
HETATM    9  N   UNK N   1      25.656  28.681  -3.643  0.00  0.00    -0.368 N 
HETATM   10  H   UNK N   1      25.439  29.348  -2.953  0.00  0.00     0.159 HD
HETATM   11  H   UNK N   1      25.656  28.939  -4.593  0.00  0.00     0.159 HD
HETATM   12  O   UNK N   1      25.944  27.139  -2.102  0.00  0.00    -0.271 OA
ENDBRANCH   1   8
BRANCH   1  13
HETATM   13  C   UNK N   1      25.286  26.268  -5.484  0.00  0.00     0.030 C 
HETATM   14  C   UNK N   1      25.715  26.596  -6.905  0.00  0.00     0.007 C 
ENDBRANCH   1  13
TORSDOF 3
ENDMDL
MODEL 7
REMARK VINA RESULT:      -4.6      2.698      4.668
REMARK  3 active torsions:
REMARK  status: ('A' for Active; 'I' for Inactive)
REMARK    1  A    between atoms: C_2  and  N_1 
REMARK    2  A    between atoms: C_5  and  C_2 
REMARK    3  A    between atoms: C_2  and  C_6 
REMARK       I    between atoms: N_10  and  C_5 
ROOT
HETATM    1  C   UNK N   1      32.845  17.326   7.495  0.00  0.00     0.178 C 
ENDROOT
BRANCH   1   2
HETATM    2  N   UNK N   1      32.798  17.058   6.032  0.00  0.00    -0.339 N 
HETATM    3  C   UNK N   1      33.728  16.473   5.242  0.00  0.00     0.220 A 
HETATM    4  C   UNK N   1      33.342  16.370   3.822  0.00  0.00     0.104 A 
HETATM    5  O   UNK N   1      34.801  16.056   5.631  0.00  0.00    -0.273 OA
HETATM    6  C   UNK N   1      31.956  17.006   3.810  0.00  0.00     0.029 A 
HETATM    7  C   UNK N   1      31.653  17.430   5.249  0.00  0.00     0.127 A 
ENDBRANCH   1   2
BRANCH   1   8
HETATM    8  C   UNK N   1      34.058  17.823   8.288  0.00  0.00     0.238 C 
HETATM    9  N   UNK N   1      34.342  17.403   9.530  0.00  0.00    -0.368 N 
HETATM   10  H   UNK N   1      35.134  17.753   9.998  0.00  0.00     0.159 HD
HETATM   11  H   UNK N   1      33.760  16.745   9.973  0.00  0.00     0.159 HD
HETATM   12  O   UNK N   1      34.803  18.640   7.771  0.00  0.00    -0.271 OA
ENDBRANCH   1   8
BRANCH   1  13
HETATM   13  C   UNK N   1      31.593  17.113   8.398  0.00  0.00     0.030 C 
HETATM   14  C   UNK N   1      30.732  18.287   8.834  0.00  0.00     0.007 C 
ENDBRANCH   1  13
TORSDOF 3
ENDMDL
MODEL 8
REMARK VINA RESULT:      -4.5      3.073      4.995
REMARK  3 active torsions:
REMARK  status: ('A' for Active; 'I' for Inactive)
REMARK    1  A    between atoms: C_2  and  N_1 
REMARK    2  A    between atoms: C_5  and  C_2 
REMARK    3  A    between atoms: C_2  and  C_6 
REMARK       I    between atoms: N_10  and  C_5 
ROOT
HETATM    1  C   UNK N   1      31.844  16.848   7.859  0.00  0.00     0.178 C 
ENDROOT
BRANCH   1   2
HETATM    2  N   UNK N   1      32.082  17.092   6.410  0.00  0.00    -0.339 N 
HETATM    3  C   UNK N   1      33.220  17.478   5.785  0.00  0.00     0.220 A 
HETATM    4  C   UNK N   1      33.091  17.623   4.323  0.00  0.00     0.104 A 
HETATM    5  O   UNK N   1      34.275  17.696   6.346  0.00  0.00    -0.273 OA
HETATM    6  C   UNK N   1      31.630  17.255   4.083  0.00  0.00     0.029 A 
HETATM    7  C   UNK N   1      31.028  16.923   5.449  0.00  0.00     0.127 A 
ENDBRANCH   1   2
BRANCH   1   8
HETATM    8  C   UNK N   1      32.076  15.532   8.608  0.00  0.00     0.238 C 
HETATM    9  N   UNK N   1      31.898  15.402   9.932  0.00  0.00    -0.368 N 
HETATM   10  H   UNK N   1      32.060  14.535  10.367  0.00  0.00     0.159 HD
HETATM   11  H   UNK N   1      31.605  16.174  10.467  0.00  0.00     0.159 HD
HETATM   12  O   UNK N   1      32.440  14.553   7.976  0.00  0.00    -0.271 OA
ENDBRANCH   1   8
BRANCH   1  13
HETATM   13  C   UNK N   1      31.308  17.976   8.791  0.00  0.00     0.030 C 
HETATM   14  C   UNK N   1      29.836  18.356   8.795  0.00  0.00     0.007 C 
ENDBRANCH   1  13
TORSDOF 3
ENDMDL
MODEL 9
REMARK VINA RESULT:      -4.4      2.301      4.496
REMARK  3 active torsions:
REMARK  status: ('A' for Active; 'I' for Inactive)
REMARK    1  A    between atoms: C_2  and  N_1 
REMARK    2  A    between atoms: C_5  and  C_2 
REMARK    3  A    between atoms: C_2  and  C_6 
REMARK       I    between atoms: N_10  and  C_5 
ROOT
HETATM    1  C   UNK N   1      32.897  17.070   8.021  0.00  0.00     0.178 C 
ENDROOT
BRANCH   1   2
HETATM    2  N   UNK N   1      31.476  17.204   7.598  0.00  0.00    -0.339 N 
HETATM    3  C   UNK N   1      30.461  17.858   8.211  0.00  0.00     0.220 A 
HETATM    4  C   UNK N   1      29.172  17.781   7.500  0.00  0.00     0.104 A 
HETATM    5  O   UNK N   1      30.565  18.466   9.258  0.00  0.00    -0.273 OA
HETATM    6  C   UNK N   1      29.519  16.940   6.276  0.00  0.00     0.029 A 
HETATM    7  C   UNK N   1      31.006  16.596   6.385  0.00  0.00     0.127 A 
ENDBRANCH   1   2
BRANCH   1   8
HETATM    8  C   UNK N   1      34.060  17.972   7.596  0.00  0.00     0.238 C 
HETATM    9  N   UNK N   1      34.762  18.719   8.463  0.00  0.00    -0.368 N 
HETATM   10  H   UNK N   1      35.501  19.282   8.139  0.00  0.00     0.159 HD
HETATM   11  H   UNK N   1      34.537  18.702   9.421  0.00  0.00     0.159 HD
HETATM   12  O   UNK N   1      34.366  18.018   6.416  0.00  0.00    -0.271 OA
ENDBRANCH   1   8
BRANCH   1  13
HETATM   13  C   UNK N   1      33.349  15.935   8.989  0.00  0.00     0.030 C 
HETATM   14  C   UNK N   1      32.373  14.867   9.454  0.00  0.00     0.007 C 
ENDBRANCH   1  13
TORSDOF 3
ENDMDL
