MODEL 1
REMARK VINA RESULT:      -7.8      0.000      0.000
REMARK  7 active torsions:
REMARK  status: ('A' for Active; 'I' for Inactive)
REMARK    1  A    between atoms: C_15  and  C_3 
REMARK    2  A    between atoms: C_13  and  N_4 
REMARK    3  A    between atoms: N_7  and  C_9 
REMARK    4  A    between atoms: C_27  and  C_14 
REMARK    5  A    between atoms: O_26  and  C_15 
REMARK    6  A    between atoms: N_21  and  O_29 
REMARK    7  A    between atoms: N_28  and  C_27 
ROOT
HETATM    1  C   UNK N   1      24.710  18.641   4.722  0.00  0.00     0.123 A 
HETATM    2  C   UNK N   1      24.983  19.735   3.876  0.00  0.00     0.062 A 
HETATM    3  C   UNK N   1      22.649  19.792   3.223  0.00  0.00     0.104 A 
HETATM    4  N   UNK N   1      23.435  18.135   4.799  0.00  0.00    -0.337 N 
HETATM    5  N   UNK N   1      25.727  18.093   5.458  0.00  0.00    -0.325 N 
ATOM      6  HN  UNK N   1      25.520  17.310   6.078  1.00  0.00     0.169 HD
HETATM    7  C   UNK N   1      23.950  20.316   3.128  0.00  0.00     0.204 A 
HETATM    8  C   UNK N   1      27.009  18.560   5.390  0.00  0.00     0.144 A 
HETATM    9  C   UNK N   1      22.427  18.692   4.061  0.00  0.00     0.115 A 
HETATM   10  C   UNK N   1      26.284  20.222   3.787  0.00  0.00     0.065 A 
HETATM   11  C   UNK N   1      27.302  19.640   4.528  0.00  0.00     0.161 A 
HETATM   12  O   UNK N   1      24.188  21.269   2.402  0.00  0.00    -0.286 OA
HETATM   13  F   UNK N   1      28.549  20.162   4.428  0.00  0.00    -0.202 F 
ENDROOT
BRANCH   8  14
HETATM   14  N   UNK N   1      28.021  17.977   6.214  0.00  0.00    -0.359 N 
HETATM   15  C   UNK N   1      28.776  16.825   5.812  0.00  0.00     0.179 C 
HETATM   16  C   UNK N   1      29.833  16.763   6.836  0.00  0.00     0.035 C 
HETATM   17  N   UNK N   1      30.767  15.879   6.821  0.00  0.00    -0.273 N 
HETATM   18  C   UNK N   1      29.764  17.871   7.831  0.00  0.00     0.070 C 
ATOM     19  HN  UNK N   1      31.495  15.898   7.537  1.00  0.00     0.193 HD
HETATM   20  C   UNK N   1      28.455  18.584   7.454  0.00  0.00     0.137 C 
BRANCH  17  21
HETATM   21  O   UNK N   1      30.791  14.948   5.888  0.00  0.00    -0.285 OA
HETATM   22  C   UNK N   1      31.845  14.078   5.803  0.00  0.00     0.237 C 
ENDBRANCH  17  21
BRANCH  18  23
HETATM   23  C   UNK N   1      29.723  17.371   9.264  0.00  0.00     0.123 C 
BRANCH  23  24
HETATM   24  N   UNK N   1      29.818  18.499  10.175  0.00  0.00    -0.429 N 
HETATM   25  H   UNK N   1      30.610  18.650  10.800  0.00  0.00     0.149 HD
HETATM   26  H   UNK N   1      29.054  19.175  10.190  0.00  0.00     0.149 HD
ENDBRANCH  23  24
ENDBRANCH  18  23
ENDBRANCH   8  14
BRANCH   4  27
HETATM   27  C   UNK N   1      23.128  16.955   5.619  0.00  0.00     0.091 A 
HETATM   28  C   UNK N   1      21.818  16.306   5.193  0.00  0.00     0.028 A 
HETATM   29  C   UNK N   1      23.127  15.691   4.770  0.00  0.00     0.028 A 
ENDBRANCH   4  27
BRANCH   3  30
HETATM   30  C   UNK N   1      21.507  20.362   2.458  0.00  0.00     0.181 C 
HETATM   31  O   UNK N   1      20.800  19.648   1.763  0.00  0.00    -0.646 OA
BRANCH  30  32
HETATM   32  O   UNK N   1      21.243  21.680   2.527  0.00  0.00    -0.772 OA
HETATM   33  H   UNK N   1      20.520  22.042   2.054  0.00  0.00     0.167 HD
ENDBRANCH  30  32
ENDBRANCH   3  30
TORSDOF 7
ENDMDL
MODEL 2
REMARK VINA RESULT:      -7.3      3.422      8.724
REMARK  7 active torsions:
REMARK  status: ('A' for Active; 'I' for Inactive)
REMARK    1  A    between atoms: C_15  and  C_3 
REMARK    2  A    between atoms: C_13  and  N_4 
REMARK    3  A    between atoms: N_7  and  C_9 
REMARK    4  A    between atoms: C_27  and  C_14 
REMARK    5  A    between atoms: O_26  and  C_15 
REMARK    6  A    between atoms: N_21  and  O_29 
REMARK    7  A    between atoms: N_28  and  C_27 
ROOT
HETATM    1  C   UNK N   1      30.842  17.200   6.634  0.00  0.00     0.123 A 
HETATM    2  C   UNK N   1      32.034  17.295   5.886  0.00  0.00     0.062 A 
HETATM    3  C   UNK N   1      33.252  17.788   7.923  0.00  0.00     0.104 A 
HETATM    4  N   UNK N   1      30.865  17.410   7.991  0.00  0.00    -0.337 N 
HETATM    5  N   UNK N   1      29.670  16.902   5.990  0.00  0.00    -0.325 N 
ATOM      6  HN  UNK N   1      28.813  16.823   6.538  1.00  0.00     0.169 HD
HETATM    7  C   UNK N   1      33.243  17.584   6.532  0.00  0.00     0.204 A 
HETATM    8  C   UNK N   1      29.609  16.707   4.640  0.00  0.00     0.144 A 
HETATM    9  C   UNK N   1      32.041  17.704   8.623  0.00  0.00     0.115 A 
HETATM   10  C   UNK N   1      31.993  17.106   4.508  0.00  0.00     0.065 A 
HETATM   11  C   UNK N   1      30.791  16.822   3.875  0.00  0.00     0.161 A 
HETATM   12  O   UNK N   1      34.276  17.656   5.884  0.00  0.00    -0.286 OA
HETATM   13  F   UNK N   1      30.803  16.623   2.535  0.00  0.00    -0.202 F 
ENDROOT
BRANCH   8  14
HETATM   14  N   UNK N   1      28.366  16.355   4.028  0.00  0.00    -0.359 N 
HETATM   15  C   UNK N   1      27.119  16.952   4.414  0.00  0.00     0.179 C 
HETATM   16  C   UNK N   1      26.201  16.480   3.363  0.00  0.00     0.035 C 
HETATM   17  N   UNK N   1      24.963  16.825   3.312  0.00  0.00    -0.273 N 
HETATM   18  C   UNK N   1      26.865  15.641   2.325  0.00  0.00     0.070 C 
ATOM     19  HN  UNK N   1      24.376  16.496   2.545  1.00  0.00     0.193 HD
HETATM   20  C   UNK N   1      28.288  15.474   2.883  0.00  0.00     0.137 C 
BRANCH  17  21
HETATM   21  O   UNK N   1      24.447  17.602   4.244  0.00  0.00    -0.285 OA
HETATM   22  C   UNK N   1      23.939  18.831   3.920  0.00  0.00     0.237 C 
ENDBRANCH  17  21
BRANCH  18  23
HETATM   23  C   UNK N   1      26.188  14.295   2.136  0.00  0.00     0.123 C 
BRANCH  23  24
HETATM   24  N   UNK N   1      26.339  13.502   3.345  0.00  0.00    -0.429 N 
HETATM   25  H   UNK N   1      26.987  13.742   4.096  0.00  0.00     0.149 HD
HETATM   26  H   UNK N   1      25.768  12.664   3.448  0.00  0.00     0.149 HD
ENDBRANCH  23  24
ENDBRANCH  18  23
ENDBRANCH   8  14
BRANCH   4  27
HETATM   27  C   UNK N   1      29.632  17.384   8.790  0.00  0.00     0.091 A 
HETATM   28  C   UNK N   1      29.659  18.441   9.888  0.00  0.00     0.028 A 
HETATM   29  C   UNK N   1      28.859  18.688   8.634  0.00  0.00     0.028 A 
ENDBRANCH   4  27
BRANCH   3  30
HETATM   30  C   UNK N   1      34.501  18.097   8.672  0.00  0.00     0.181 C 
HETATM   31  O   UNK N   1      34.867  17.390   9.598  0.00  0.00    -0.646 OA
BRANCH  30  32
HETATM   32  O   UNK N   1      35.241  19.169   8.331  0.00  0.00    -0.772 OA
HETATM   33  H   UNK N   1      35.717  19.639   8.985  0.00  0.00     0.167 HD
ENDBRANCH  30  32
ENDBRANCH   3  30
TORSDOF 7
ENDMDL
MODEL 3
REMARK VINA RESULT:      -7.2      1.336      2.322
REMARK  7 active torsions:
REMARK  status: ('A' for Active; 'I' for Inactive)
REMARK    1  A    between atoms: C_15  and  C_3 
REMARK    2  A    between atoms: C_13  and  N_4 
REMARK    3  A    between atoms: N_7  and  C_9 
REMARK    4  A    between atoms: C_27  and  C_14 
REMARK    5  A    between atoms: O_26  and  C_15 
REMARK    6  A    between atoms: N_21  and  O_29 
REMARK    7  A    between atoms: N_28  and  C_27 
ROOT
HETATM    1  C   UNK N   1      24.352  18.277   4.670  0.00  0.00     0.123 A 
HETATM    2  C   UNK N   1      24.415  19.449   3.888  0.00  0.00     0.062 A 
HETATM    3  C   UNK N   1      22.003  19.397   3.647  0.00  0.00     0.104 A 
HETATM    4  N   UNK N   1      23.140  17.681   4.916  0.00  0.00    -0.337 N 
HETATM    5  N   UNK N   1      25.510  17.745   5.173  0.00  0.00    -0.325 N 
ATOM      6  HN  UNK N   1      25.457  16.904   5.747  1.00  0.00     0.169 HD
HETATM    7  C   UNK N   1      23.238  20.014   3.379  0.00  0.00     0.204 A 
HETATM    8  C   UNK N   1      26.733  18.301   4.930  0.00  0.00     0.144 A 
HETATM    9  C   UNK N   1      21.990  18.223   4.411  0.00  0.00     0.115 A 
HETATM   10  C   UNK N   1      25.652  20.028   3.623  0.00  0.00     0.065 A 
HETATM   11  C   UNK N   1      26.814  19.462   4.129  0.00  0.00     0.161 A 
HETATM   12  O   UNK N   1      23.294  21.034   2.709  0.00  0.00    -0.286 OA
HETATM   13  F   UNK N   1      27.994  20.074   3.864  0.00  0.00    -0.202 F 
ENDROOT
BRANCH   8  14
HETATM   14  N   UNK N   1      27.904  17.727   5.517  0.00  0.00    -0.359 N 
HETATM   15  C   UNK N   1      28.582  18.325   6.632  0.00  0.00     0.179 C 
HETATM   16  C   UNK N   1      29.532  17.273   7.028  0.00  0.00     0.035 C 
HETATM   17  N   UNK N   1      30.324  17.392   8.036  0.00  0.00    -0.273 N 
HETATM   18  C   UNK N   1      29.426  16.033   6.207  0.00  0.00     0.070 C 
ATOM     19  HN  UNK N   1      30.942  16.620   8.288  1.00  0.00     0.193 HD
HETATM   20  C   UNK N   1      28.413  16.432   5.121  0.00  0.00     0.137 C 
BRANCH  17  21
HETATM   21  O   UNK N   1      30.340  18.503   8.744  0.00  0.00    -0.285 OA
HETATM   22  C   UNK N   1      29.715  18.560   9.961  0.00  0.00     0.237 C 
ENDBRANCH  17  21
BRANCH  18  23
HETATM   23  C   UNK N   1      30.752  15.619   5.595  0.00  0.00     0.123 C 
BRANCH  23  24
HETATM   24  N   UNK N   1      31.174  14.350   6.165  0.00  0.00    -0.429 N 
HETATM   25  H   UNK N   1      31.680  13.638   5.637  0.00  0.00     0.149 HD
HETATM   26  H   UNK N   1      30.954  14.162   7.143  0.00  0.00     0.149 HD
ENDBRANCH  23  24
ENDBRANCH  18  23
ENDBRANCH   8  14
BRANCH   4  27
HETATM   27  C   UNK N   1      23.044  16.424   5.671  0.00  0.00     0.091 A 
HETATM   28  C   UNK N   1      21.717  15.721   5.415  0.00  0.00     0.028 A 
HETATM   29  C   UNK N   1      22.965  15.231   4.727  0.00  0.00     0.028 A 
ENDBRANCH   4  27
BRANCH   3  30
HETATM   30  C   UNK N   1      20.716  19.945   3.139  0.00  0.00     0.181 C 
HETATM   31  O   UNK N   1      19.939  19.240   2.513  0.00  0.00    -0.646 OA
BRANCH  30  32
HETATM   32  O   UNK N   1      20.398  21.233   3.365  0.00  0.00    -0.772 OA
HETATM   33  H   UNK N   1      20.645  21.646   4.168  0.00  0.00     0.167 HD
ENDBRANCH  30  32
ENDBRANCH   3  30
TORSDOF 7
ENDMDL
MODEL 4
REMARK VINA RESULT:      -7.0      9.725     12.573
REMARK  7 active torsions:
REMARK  status: ('A' for Active; 'I' for Inactive)
REMARK    1  A    between atoms: C_15  and  C_3 
REMARK    2  A    between atoms: C_13  and  N_4 
REMARK    3  A    between atoms: N_7  and  C_9 
REMARK    4  A    between atoms: C_27  and  C_14 
REMARK    5  A    between atoms: O_26  and  C_15 
REMARK    6  A    between atoms: N_21  and  O_29 
REMARK    7  A    between atoms: N_28  and  C_27 
ROOT
HETATM    1  C   UNK N   1      34.506  14.559  10.425  0.00  0.00     0.123 A 
HETATM    2  C   UNK N   1      35.234  15.699  10.823  0.00  0.00     0.062 A 
HETATM    3  C   UNK N   1      34.520  16.838   8.805  0.00  0.00     0.104 A 
HETATM    4  N   UNK N   1      33.817  14.565   9.237  0.00  0.00    -0.337 N 
HETATM    5  N   UNK N   1      34.501  13.453  11.233  0.00  0.00    -0.325 N 
ATOM      6  HN  UNK N   1      33.963  12.635  10.945  1.00  0.00     0.169 HD
HETATM    7  C   UNK N   1      35.238  16.844  10.015  0.00  0.00     0.204 A 
HETATM    8  C   UNK N   1      35.191  13.406  12.410  0.00  0.00     0.144 A 
HETATM    9  C   UNK N   1      33.828  15.676   8.440  0.00  0.00     0.115 A 
HETATM   10  C   UNK N   1      35.950  15.671  12.016  0.00  0.00     0.065 A 
HETATM   11  C   UNK N   1      35.944  14.533  12.810  0.00  0.00     0.161 A 
HETATM   12  O   UNK N   1      35.861  17.834  10.366  0.00  0.00    -0.286 OA
HETATM   13  F   UNK N   1      36.637  14.560  13.974  0.00  0.00    -0.202 F 
ENDROOT
BRANCH   8  14
HETATM   14  N   UNK N   1      35.113  12.241  13.234  0.00  0.00    -0.359 N 
HETATM   15  C   UNK N   1      35.159  12.303  14.667  0.00  0.00     0.179 C 
HETATM   16  C   UNK N   1      34.793  10.931  15.058  0.00  0.00     0.035 C 
HETATM   17  N   UNK N   1      34.677  10.563  16.285  0.00  0.00    -0.273 N 
HETATM   18  C   UNK N   1      34.489  10.043  13.900  0.00  0.00     0.070 C 
ATOM     19  HN  UNK N   1      34.390   9.608  16.503  1.00  0.00     0.193 HD
HETATM   20  C   UNK N   1      34.845  10.926  12.693  0.00  0.00     0.137 C 
BRANCH  17  21
HETATM   21  O   UNK N   1      34.925  11.411  17.263  0.00  0.00    -0.285 OA
HETATM   22  C   UNK N   1      35.300  10.956  18.498  0.00  0.00     0.237 C 
ENDBRANCH  17  21
BRANCH  18  23
HETATM   23  C   UNK N   1      35.310   8.766  13.907  0.00  0.00     0.123 C 
BRANCH  23  24
HETATM   24  N   UNK N   1      36.281   8.808  12.826  0.00  0.00    -0.429 N 
HETATM   25  H   UNK N   1      37.173   8.313  12.853  0.00  0.00     0.149 HD
HETATM   26  H   UNK N   1      36.059   9.359  11.998  0.00  0.00     0.149 HD
ENDBRANCH  23  24
ENDBRANCH  18  23
ENDBRANCH   8  14
BRANCH   4  27
HETATM   27  C   UNK N   1      33.103  13.373   8.760  0.00  0.00     0.091 A 
HETATM   28  C   UNK N   1      32.935  13.393   7.246  0.00  0.00     0.028 A 
HETATM   29  C   UNK N   1      34.001  12.525   7.867  0.00  0.00     0.028 A 
ENDBRANCH   4  27
BRANCH   3  30
HETATM   30  C   UNK N   1      34.480  18.019   7.901  0.00  0.00     0.181 C 
HETATM   31  O   UNK N   1      34.151  17.902   6.731  0.00  0.00    -0.646 OA
BRANCH  30  32
HETATM   32  O   UNK N   1      34.812  19.237   8.371  0.00  0.00    -0.772 OA
HETATM   33  H   UNK N   1      35.708  19.450   8.538  0.00  0.00     0.167 HD
ENDBRANCH  30  32
ENDBRANCH   3  30
TORSDOF 7
ENDMDL
MODEL 5
REMARK VINA RESULT:      -7.0      4.180      8.570
REMARK  7 active torsions:
REMARK  status: ('A' for Active; 'I' for Inactive)
REMARK    1  A    between atoms: C_15  and  C_3 
REMARK    2  A    between atoms: C_13  and  N_4 
REMARK    3  A    between atoms: N_7  and  C_9 
REMARK    4  A    between atoms: C_27  and  C_14 
REMARK    5  A    between atoms: O_26  and  C_15 
REMARK    6  A    between atoms: N_21  and  O_29 
REMARK    7  A    between atoms: N_28  and  C_27 
ROOT
HETATM    1  C   UNK N   1      30.969  17.148   6.745  0.00  0.00     0.123 A 
HETATM    2  C   UNK N   1      32.146  17.244   5.973  0.00  0.00     0.062 A 
HETATM    3  C   UNK N   1      33.391  17.811   7.974  0.00  0.00     0.104 A 
HETATM    4  N   UNK N   1      31.013  17.392   8.095  0.00  0.00    -0.337 N 
HETATM    5  N   UNK N   1      29.792  16.812   6.130  0.00  0.00    -0.325 N 
ATOM      6  HN  UNK N   1      28.946  16.732   6.696  1.00  0.00     0.169 HD
HETATM    7  C   UNK N   1      33.361  17.571   6.589  0.00  0.00     0.204 A 
HETATM    8  C   UNK N   1      29.710  16.582   4.787  0.00  0.00     0.144 A 
HETATM    9  C   UNK N   1      32.195  17.723   8.698  0.00  0.00     0.115 A 
HETATM   10  C   UNK N   1      32.083  17.020   4.601  0.00  0.00     0.065 A 
HETATM   11  C   UNK N   1      30.876  16.699   3.998  0.00  0.00     0.161 A 
HETATM   12  O   UNK N   1      34.381  17.646   5.920  0.00  0.00    -0.286 OA
HETATM   13  F   UNK N   1      30.867  16.466   2.663  0.00  0.00    -0.202 F 
ENDROOT
BRANCH   8  14
HETATM   14  N   UNK N   1      28.463  16.193   4.207  0.00  0.00    -0.359 N 
HETATM   15  C   UNK N   1      28.336  15.061   3.334  0.00  0.00     0.179 C 
HETATM   16  C   UNK N   1      26.875  14.914   3.212  0.00  0.00     0.035 C 
HETATM   17  N   UNK N   1      26.324  13.972   2.532  0.00  0.00    -0.273 N 
HETATM   18  C   UNK N   1      26.108  15.905   4.019  0.00  0.00     0.070 C 
ATOM     19  HN  UNK N   1      25.306  13.895   2.504  1.00  0.00     0.193 HD
HETATM   20  C   UNK N   1      27.211  16.826   4.565  0.00  0.00     0.137 C 
BRANCH  17  21
HETATM   21  O   UNK N   1      27.064  13.104   1.871  0.00  0.00    -0.285 OA
HETATM   22  C   UNK N   1      26.606  11.834   1.641  0.00  0.00     0.237 C 
ENDBRANCH  17  21
BRANCH  18  23
HETATM   23  C   UNK N   1      25.103  16.685   3.190  0.00  0.00     0.123 C 
BRANCH  23  24
HETATM   24  N   UNK N   1      25.217  18.102   3.495  0.00  0.00    -0.429 N 
HETATM   25  H   UNK N   1      24.471  18.643   3.933  0.00  0.00     0.149 HD
HETATM   26  H   UNK N   1      26.087  18.579   3.259  0.00  0.00     0.149 HD
ENDBRANCH  23  24
ENDBRANCH  18  23
ENDBRANCH   8  14
BRANCH   4  27
HETATM   27  C   UNK N   1      29.796  17.365   8.918  0.00  0.00     0.091 A 
HETATM   28  C   UNK N   1      29.772  18.516   9.915  0.00  0.00     0.028 A 
HETATM   29  C   UNK N   1      28.941  18.600   8.660  0.00  0.00     0.028 A 
ENDBRANCH   4  27
BRANCH   3  30
HETATM   30  C   UNK N   1      34.648  18.161   8.691  0.00  0.00     0.181 C 
HETATM   31  O   UNK N   1      35.089  17.438   9.572  0.00  0.00    -0.646 OA
BRANCH  30  32
HETATM   32  O   UNK N   1      35.312  19.287   8.373  0.00  0.00    -0.772 OA
HETATM   33  H   UNK N   1      34.984  20.121   8.645  0.00  0.00     0.167 HD
ENDBRANCH  30  32
ENDBRANCH   3  30
TORSDOF 7
ENDMDL
MODEL 6
REMARK VINA RESULT:      -6.5      9.763     12.774
REMARK  7 active torsions:
REMARK  status: ('A' for Active; 'I' for Inactive)
REMARK    1  A    between atoms: C_15  and  C_3 
REMARK    2  A    between atoms: C_13  and  N_4 
REMARK    3  A    between atoms: N_7  and  C_9 
REMARK    4  A    between atoms: C_27  and  C_14 
REMARK    5  A    between atoms: O_26  and  C_15 
REMARK    6  A    between atoms: N_21  and  O_29 
REMARK    7  A    between atoms: N_28  and  C_27 
ROOT
HETATM    1  C   UNK N   1      34.732  14.245  10.551  0.00  0.00     0.123 A 
HETATM    2  C   UNK N   1      35.217  15.544  10.808  0.00  0.00     0.062 A 
HETATM    3  C   UNK N   1      34.342  16.275   8.669  0.00  0.00     0.104 A 
HETATM    4  N   UNK N   1      34.081  13.977   9.372  0.00  0.00    -0.337 N 
HETATM    5  N   UNK N   1      34.922  13.263  11.487  0.00  0.00    -0.325 N 
ATOM      6  HN  UNK N   1      34.558  12.328  11.301  1.00  0.00     0.169 HD
HETATM    7  C   UNK N   1      35.017  16.563   9.868  0.00  0.00     0.204 A 
HETATM    8  C   UNK N   1      35.581  13.491  12.661  0.00  0.00     0.144 A 
HETATM    9  C   UNK N   1      33.894  14.966   8.446  0.00  0.00     0.115 A 
HETATM   10  C   UNK N   1      35.898  15.797  11.995  0.00  0.00     0.065 A 
HETATM   11  C   UNK N   1      36.093  14.782  12.921  0.00  0.00     0.161 A 
HETATM   12  O   UNK N   1      35.430  17.690  10.096  0.00  0.00    -0.286 OA
HETATM   13  F   UNK N   1      36.742  15.081  14.073  0.00  0.00    -0.202 F 
ENDROOT
BRANCH   8  14
HETATM   14  N   UNK N   1      35.711  12.439  13.619  0.00  0.00    -0.359 N 
HETATM   15  C   UNK N   1      36.875  11.603  13.695  0.00  0.00     0.179 C 
HETATM   16  C   UNK N   1      36.661  10.872  14.956  0.00  0.00     0.035 C 
HETATM   17  N   UNK N   1      37.511  10.028  15.426  0.00  0.00    -0.273 N 
HETATM   18  C   UNK N   1      35.414  11.269  15.670  0.00  0.00     0.070 C 
ATOM     19  HN  UNK N   1      37.330   9.571  16.320  1.00  0.00     0.193 HD
HETATM   20  C   UNK N   1      34.742  12.226  14.672  0.00  0.00     0.137 C 
BRANCH  17  21
HETATM   21  O   UNK N   1      38.614   9.751  14.760  0.00  0.00    -0.285 OA
HETATM   22  C   UNK N   1      39.336   8.624  15.051  0.00  0.00     0.237 C 
ENDBRANCH  17  21
BRANCH  18  23
HETATM   23  C   UNK N   1      34.516  10.086  15.985  0.00  0.00     0.123 C 
BRANCH  23  24
HETATM   24  N   UNK N   1      34.613   9.766  17.400  0.00  0.00    -0.429 N 
HETATM   25  H   UNK N   1      34.306   8.878  17.796  0.00  0.00     0.149 HD
HETATM   26  H   UNK N   1      35.009  10.465  18.027  0.00  0.00     0.149 HD
ENDBRANCH  23  24
ENDBRANCH  18  23
ENDBRANCH   8  14
BRANCH   4  27
HETATM   27  C   UNK N   1      33.621  12.620   9.043  0.00  0.00     0.091 A 
HETATM   28  C   UNK N   1      33.474  12.432   7.539  0.00  0.00     0.028 A 
HETATM   29  C   UNK N   1      34.680  11.868   8.247  0.00  0.00     0.028 A 
ENDBRANCH   4  27
BRANCH   3  30
HETATM   30  C   UNK N   1      34.095  17.311   7.629  0.00  0.00     0.181 C 
HETATM   31  O   UNK N   1      34.518  17.170   6.491  0.00  0.00    -0.646 OA
BRANCH  30  32
HETATM   32  O   UNK N   1      33.399  18.421   7.937  0.00  0.00    -0.772 OA
HETATM   33  H   UNK N   1      32.791  18.783   7.324  0.00  0.00     0.167 HD
ENDBRANCH  30  32
ENDBRANCH   3  30
TORSDOF 7
ENDMDL
MODEL 7
REMARK VINA RESULT:      -6.4      2.516      8.351
REMARK  7 active torsions:
REMARK  status: ('A' for Active; 'I' for Inactive)
REMARK    1  A    between atoms: C_15  and  C_3 
REMARK    2  A    between atoms: C_13  and  N_4 
REMARK    3  A    between atoms: N_7  and  C_9 
REMARK    4  A    between atoms: C_27  and  C_14 
REMARK    5  A    between atoms: O_26  and  C_15 
REMARK    6  A    between atoms: N_21  and  O_29 
REMARK    7  A    between atoms: N_28  and  C_27 
ROOT
HETATM    1  C   UNK N   1      29.799  16.992   6.195  0.00  0.00     0.123 A 
HETATM    2  C   UNK N   1      30.627  16.853   5.062  0.00  0.00     0.062 A 
HETATM    3  C   UNK N   1      32.573  17.228   6.458  0.00  0.00     0.104 A 
HETATM    4  N   UNK N   1      30.356  17.255   7.423  0.00  0.00    -0.337 N 
HETATM    5  N   UNK N   1      28.442  16.864   6.053  0.00  0.00    -0.325 N 
ATOM      6  HN  UNK N   1      27.850  16.953   6.879  1.00  0.00     0.169 HD
HETATM    7  C   UNK N   1      32.017  16.966   5.193  0.00  0.00     0.204 A 
HETATM    8  C   UNK N   1      27.856  16.621   4.844  0.00  0.00     0.144 A 
HETATM    9  C   UNK N   1      31.712  17.378   7.553  0.00  0.00     0.115 A 
HETATM   10  C   UNK N   1      30.049  16.613   3.819  0.00  0.00     0.065 A 
HETATM   11  C   UNK N   1      28.671  16.504   3.696  0.00  0.00     0.161 A 
HETATM   12  O   UNK N   1      32.733  16.837   4.212  0.00  0.00    -0.286 OA
HETATM   13  F   UNK N   1      28.154  16.246   2.470  0.00  0.00    -0.202 F 
ENDROOT
BRANCH   8  14
HETATM   14  N   UNK N   1      26.439  16.454   4.763  0.00  0.00    -0.359 N 
HETATM   15  C   UNK N   1      25.545  17.547   4.505  0.00  0.00     0.179 C 
HETATM   16  C   UNK N   1      24.264  16.861   4.262  0.00  0.00     0.035 C 
HETATM   17  N   UNK N   1      23.186  17.489   3.949  0.00  0.00    -0.273 N 
HETATM   18  C   UNK N   1      24.362  15.375   4.330  0.00  0.00     0.070 C 
ATOM     19  HN  UNK N   1      22.331  16.964   3.761  1.00  0.00     0.193 HD
HETATM   20  C   UNK N   1      25.809  15.151   4.799  0.00  0.00     0.137 C 
BRANCH  17  21
HETATM   21  O   UNK N   1      23.178  18.804   3.870  0.00  0.00    -0.285 OA
HETATM   22  C   UNK N   1      22.072  19.465   3.406  0.00  0.00     0.237 C 
ENDBRANCH  17  21
BRANCH  18  23
HETATM   23  C   UNK N   1      23.370  14.765   5.303  0.00  0.00     0.123 C 
BRANCH  23  24
HETATM   24  N   UNK N   1      23.693  15.188   6.656  0.00  0.00    -0.429 N 
HETATM   25  H   UNK N   1      23.084  15.782   7.218  0.00  0.00     0.149 HD
HETATM   26  H   UNK N   1      24.574  14.875   7.062  0.00  0.00     0.149 HD
ENDBRANCH  23  24
ENDBRANCH  18  23
ENDBRANCH   8  14
BRANCH   4  27
HETATM   27  C   UNK N   1      29.520  17.471   8.612  0.00  0.00     0.091 A 
HETATM   28  C   UNK N   1      30.061  18.603   9.475  0.00  0.00     0.028 A 
HETATM   29  C   UNK N   1      28.876  18.851   8.577  0.00  0.00     0.028 A 
ENDBRANCH   4  27
BRANCH   3  30
HETATM   30  C   UNK N   1      34.040  17.358   6.668  0.00  0.00     0.181 C 
HETATM   31  O   UNK N   1      34.506  18.322   7.257  0.00  0.00    -0.646 OA
BRANCH  30  32
HETATM   32  O   UNK N   1      34.873  16.407   6.205  0.00  0.00    -0.772 OA
HETATM   33  H   UNK N   1      35.775  16.605   6.050  0.00  0.00     0.167 HD
ENDBRANCH  30  32
ENDBRANCH   3  30
TORSDOF 7
ENDMDL
MODEL 8
REMARK VINA RESULT:      -6.3     11.177     13.841
REMARK  7 active torsions:
REMARK  status: ('A' for Active; 'I' for Inactive)
REMARK    1  A    between atoms: C_15  and  C_3 
REMARK    2  A    between atoms: C_13  and  N_4 
REMARK    3  A    between atoms: N_7  and  C_9 
REMARK    4  A    between atoms: C_27  and  C_14 
REMARK    5  A    between atoms: O_26  and  C_15 
REMARK    6  A    between atoms: N_21  and  O_29 
REMARK    7  A    between atoms: N_28  and  C_27 
ROOT
HETATM    1  C   UNK N   1      31.026  21.698  -4.933  0.00  0.00     0.123 A 
HETATM    2  C   UNK N   1      31.596  21.741  -3.644  0.00  0.00     0.062 A 
HETATM    3  C   UNK N   1      33.346  20.236  -4.387  0.00  0.00     0.104 A 
HETATM    4  N   UNK N   1      31.603  20.929  -5.913  0.00  0.00    -0.337 N 
HETATM    5  N   UNK N   1      29.894  22.427  -5.189  0.00  0.00    -0.325 N 
ATOM      6  HN  UNK N   1      29.493  22.401  -6.126  1.00  0.00     0.169 HD
HETATM    7  C   UNK N   1      32.762  21.013  -3.371  0.00  0.00     0.204 A 
HETATM    8  C   UNK N   1      29.285  23.187  -4.232  0.00  0.00     0.144 A 
HETATM    9  C   UNK N   1      32.734  20.207  -5.647  0.00  0.00     0.115 A 
HETATM   10  C   UNK N   1      30.987  22.504  -2.652  0.00  0.00     0.065 A 
HETATM   11  C   UNK N   1      29.832  23.220  -2.929  0.00  0.00     0.161 A 
HETATM   12  O   UNK N   1      33.260  21.059  -2.256  0.00  0.00    -0.286 OA
HETATM   13  F   UNK N   1      29.287  23.967  -1.939  0.00  0.00    -0.202 F 
ENDROOT
BRANCH   8  14
HETATM   14  N   UNK N   1      28.131  23.961  -4.567  0.00  0.00    -0.359 N 
HETATM   15  C   UNK N   1      27.394  23.763  -5.783  0.00  0.00     0.179 C 
HETATM   16  C   UNK N   1      26.190  24.582  -5.563  0.00  0.00     0.035 C 
HETATM   17  N   UNK N   1      25.229  24.652  -6.416  0.00  0.00    -0.273 N 
HETATM   18  C   UNK N   1      26.156  25.245  -4.228  0.00  0.00     0.070 C 
ATOM     19  HN  UNK N   1      24.401  25.209  -6.202  1.00  0.00     0.193 HD
HETATM   20  C   UNK N   1      27.539  24.908  -3.647  0.00  0.00     0.137 C 
BRANCH  17  21
HETATM   21  O   UNK N   1      25.307  24.008  -7.564  0.00  0.00    -0.285 OA
HETATM   22  C   UNK N   1      25.514  24.694  -8.731  0.00  0.00     0.237 C 
ENDBRANCH  17  21
BRANCH  18  23
HETATM   23  C   UNK N   1      25.952  26.746  -4.324  0.00  0.00     0.123 C 
BRANCH  23  24
HETATM   24  N   UNK N   1      25.958  27.323  -2.989  0.00  0.00    -0.429 N 
HETATM   25  H   UNK N   1      25.109  27.562  -2.478  0.00  0.00     0.149 HD
HETATM   26  H   UNK N   1      26.858  27.496  -2.542  0.00  0.00     0.149 HD
ENDBRANCH  23  24
ENDBRANCH  18  23
ENDBRANCH   8  14
BRANCH   4  27
HETATM   27  C   UNK N   1      30.998  20.809  -7.247  0.00  0.00     0.091 A 
HETATM   28  C   UNK N   1      31.458  19.540  -7.955  0.00  0.00     0.028 A 
HETATM   29  C   UNK N   1      30.091  19.587  -7.322  0.00  0.00     0.028 A 
ENDBRANCH   4  27
BRANCH   3  30
HETATM   30  C   UNK N   1      34.584  19.441  -4.165  0.00  0.00     0.181 C 
HETATM   31  O   UNK N   1      34.531  18.231  -4.006  0.00  0.00    -0.646 OA
BRANCH  30  32
HETATM   32  O   UNK N   1      35.782  20.055  -4.137  0.00  0.00    -0.772 OA
HETATM   33  H   UNK N   1      35.916  20.800  -3.586  0.00  0.00     0.167 HD
ENDBRANCH  30  32
ENDBRANCH   3  30
TORSDOF 7
ENDMDL
MODEL 9
REMARK VINA RESULT:      -6.3      5.074     11.318
REMARK  7 active torsions:
REMARK  status: ('A' for Active; 'I' for Inactive)
REMARK    1  A    between atoms: C_15  and  C_3 
REMARK    2  A    between atoms: C_13  and  N_4 
REMARK    3  A    between atoms: N_7  and  C_9 
REMARK    4  A    between atoms: C_27  and  C_14 
REMARK    5  A    between atoms: O_26  and  C_15 
REMARK    6  A    between atoms: N_21  and  O_29 
REMARK    7  A    between atoms: N_28  and  C_27 
ROOT
HETATM    1  C   UNK N   1      33.896  14.848   9.070  0.00  0.00     0.123 A 
HETATM    2  C   UNK N   1      34.496  15.857   9.850  0.00  0.00     0.062 A 
HETATM    3  C   UNK N   1      35.219  14.176  11.440  0.00  0.00     0.104 A 
HETATM    4  N   UNK N   1      33.952  13.539   9.483  0.00  0.00    -0.337 N 
HETATM    5  N   UNK N   1      33.260  15.190   7.906  0.00  0.00    -0.325 N 
ATOM      6  HN  UNK N   1      32.838  14.453   7.340  1.00  0.00     0.169 HD
HETATM    7  C   UNK N   1      35.164  15.522  11.035  0.00  0.00     0.204 A 
HETATM    8  C   UNK N   1      33.171  16.483   7.478  0.00  0.00     0.144 A 
HETATM    9  C   UNK N   1      34.592  13.208  10.645  0.00  0.00     0.115 A 
HETATM   10  C   UNK N   1      34.411  17.183   9.435  0.00  0.00     0.065 A 
HETATM   11  C   UNK N   1      33.747  17.508   8.261  0.00  0.00     0.161 A 
HETATM   12  O   UNK N   1      35.691  16.397  11.705  0.00  0.00    -0.286 OA
HETATM   13  F   UNK N   1      33.709  18.809   7.884  0.00  0.00    -0.202 F 
ENDROOT
BRANCH   8  14
HETATM   14  N   UNK N   1      32.532  16.776   6.233  0.00  0.00    -0.359 N 
HETATM   15  C   UNK N   1      31.122  17.019   6.126  0.00  0.00     0.179 C 
HETATM   16  C   UNK N   1      30.987  17.516   4.746  0.00  0.00     0.035 C 
HETATM   17  N   UNK N   1      29.863  17.894   4.247  0.00  0.00    -0.273 N 
HETATM   18  C   UNK N   1      32.286  17.617   4.020  0.00  0.00     0.070 C 
ATOM     19  HN  UNK N   1      29.829  18.260   3.295  1.00  0.00     0.193 HD
HETATM   20  C   UNK N   1      33.278  16.985   5.010  0.00  0.00     0.137 C 
BRANCH  17  21
HETATM   21  O   UNK N   1      28.757  17.813   4.958  0.00  0.00    -0.285 OA
HETATM   22  C   UNK N   1      27.863  18.851   4.972  0.00  0.00     0.237 C 
ENDBRANCH  17  21
BRANCH  18  23
HETATM   23  C   UNK N   1      32.279  16.869   2.698  0.00  0.00     0.123 C 
BRANCH  23  24
HETATM   24  N   UNK N   1      33.425  15.976   2.640  0.00  0.00    -0.429 N 
HETATM   25  H   UNK N   1      34.197  16.010   3.306  0.00  0.00     0.149 HD
HETATM   26  H   UNK N   1      33.457  15.280   1.896  0.00  0.00     0.149 HD
ENDBRANCH  23  24
ENDBRANCH  18  23
ENDBRANCH   8  14
BRANCH   4  27
HETATM   27  C   UNK N   1      33.281  12.470   8.729  0.00  0.00     0.091 A 
HETATM   28  C   UNK N   1      34.213  11.847   7.698  0.00  0.00     0.028 A 
HETATM   29  C   UNK N   1      33.945  11.124   8.993  0.00  0.00     0.028 A 
ENDBRANCH   4  27
BRANCH   3  30
HETATM   30  C   UNK N   1      35.913  13.751  12.686  0.00  0.00     0.181 C 
HETATM   31  O   UNK N   1      35.300  13.637  13.737  0.00  0.00    -0.646 OA
BRANCH  30  32
HETATM   32  O   UNK N   1      37.233  13.488  12.665  0.00  0.00    -0.772 OA
HETATM   33  H   UNK N   1      37.841  14.149  12.399  0.00  0.00     0.167 HD
ENDBRANCH  30  32
ENDBRANCH   3  30
TORSDOF 7
ENDMDL
