REMARK  3 active torsions:
REMARK  status: ('A' for Active; 'I' for Inactive)
REMARK    1  A    between atoms: C_2  and  O_3 
REMARK    2  A    between atoms: C_2  and  C_4 
REMARK    3  A    between atoms: C_4  and  O_5 
ROOT
HETATM    1  C   UNK N   1       3.014  -0.966   0.000  0.00  0.00     0.041 C 
HETATM    2  C   UNK N   1       1.511  -0.772  -0.000  0.00  0.00     0.137 C 
ENDROOT
BRANCH   2   3
HETATM    3  O   UNK N   1       0.699  -1.905   0.000  0.00  0.00    -0.394 OA
HETATM    4  H   UNK N   1      -0.266  -1.810   0.000  0.00  0.00     0.210 HD
ENDBRANCH   2   3
BRANCH   2   5
HETATM    5  C   UNK N   1       0.870   0.606   0.000  0.00  0.00     0.195 C 
BRANCH   5   6
HETATM    6  O   UNK N   1      -0.522   0.491  -0.000  0.00  0.00    -0.398 OA
HETATM    7  H   UNK N   1      -1.074   1.288  -0.000  0.00  0.00     0.209 HD
ENDBRANCH   5   6
ENDBRANCH   2   5
TORSDOF 3
