REMARK  7 active torsions:
REMARK  status: ('A' for Active; 'I' for Inactive)
REMARK    1  A    between atoms: C_25  and  C_2 
REMARK    2  A    between atoms: C_18  and  O_29 
REMARK    3  A    between atoms: C_22  and  C_31 
REMARK    4  A    between atoms: C_31  and  C_33 
REMARK    5  A    between atoms: C_33  and  O_34 
REMARK    6  A    between atoms: O_34  and  C_35 
REMARK    7  A    between atoms: C_35  and  C_37 
ROOT
HETATM    1  C   UNK N   1      -5.217  -2.829  -1.186  0.00  0.00     0.052 C 
HETATM    2  C   UNK N   1      -5.385  -4.193  -0.632  0.00  0.00     0.171 C 
HETATM    3  C   UNK N   1      -4.202  -4.830  -0.009  0.00  0.00     0.058 C 
HETATM    4  C   UNK N   1      -4.160  -2.096  -0.787  0.00  0.00    -0.009 C 
HETATM    5  C   UNK N   1      -3.370  -2.530   0.440  0.00  0.00     0.004 C 
HETATM    6  C   UNK N   1      -3.197  -4.042   0.414  0.00  0.00    -0.064 C 
HETATM    7  C   UNK N   1      -1.862  -4.630   0.736  0.00  0.00     0.036 C 
HETATM    8  C   UNK N   1      -0.797  -3.991  -0.172  0.00  0.00     0.010 C 
HETATM    9  C   UNK N   1      -1.990  -1.827   0.589  0.00  0.00     0.035 C 
HETATM   10  C   UNK N   1      -0.913  -2.452  -0.331  0.00  0.00    -0.001 C 
HETATM   11  C   UNK N   1      -0.876   0.328  -0.325  0.00  0.00     0.045 C 
HETATM   12  C   UNK N   1      -2.126  -0.316   0.289  0.00  0.00     0.124 C 
HETATM   13  C   UNK N   1       0.442  -0.252   0.202  0.00  0.00     0.004 C 
HETATM   14  C   UNK N   1       0.472  -1.791  -0.040  0.00  0.00     0.004 C 
HETATM   15  C   UNK N   1       1.436  -1.993  -1.190  0.00  0.00     0.041 C 
HETATM   16  C   UNK N   1       1.733   0.330  -0.514  0.00  0.00     0.160 C 
HETATM   17  C   UNK N   1       2.486  -0.914  -0.999  0.00  0.00     0.168 C 
HETATM   18  O   UNK N   1       3.365  -1.193   0.041  0.00  0.00    -0.352 OA
HETATM   19  C   UNK N   1       3.753   0.116   0.364  0.00  0.00     0.266 C 
HETATM   20  O   UNK N   1       2.606   0.926   0.414  0.00  0.00    -0.339 OA
HETATM   21  O   UNK N   1      -6.399  -4.834  -0.850  0.00  0.00    -0.289 OA
HETATM   22  C   UNK N   1      -4.237  -2.173   1.648  0.00  0.00     0.025 C 
HETATM   23  C   UNK N   1       0.468   0.031   1.713  0.00  0.00     0.019 C 
ENDROOT
BRANCH  16  24
HETATM   24  C   UNK N   1       1.512   1.326  -1.666  0.00  0.00     0.188 C 
HETATM   25  O   UNK N   1       2.252   1.304  -2.638  0.00  0.00    -0.292 OA
BRANCH  24  26
HETATM   26  C   UNK N   1       0.504   2.433  -1.595  0.00  0.00     0.260 C 
BRANCH  26  27
HETATM   27  O   UNK N   1       0.573   3.118  -0.408  0.00  0.00    -0.314 OA
BRANCH  27  28
HETATM   28  C   UNK N   1      -0.466   3.784   0.176  0.00  0.00     0.262 C 
HETATM   29  O   UNK N   1      -0.246   4.382   1.216  0.00  0.00    -0.265 OA
BRANCH  28  30
HETATM   30  C   UNK N   1      -1.888   3.849  -0.382  0.00  0.00     0.077 C 
HETATM   31  C   UNK N   1      -2.887   3.340   0.639  0.00  0.00     0.020 C 
HETATM   32  C   UNK N   1      -2.172   3.174  -1.713  0.00  0.00     0.020 C 
ENDBRANCH  28  30
ENDBRANCH  27  28
ENDBRANCH  26  27
ENDBRANCH  24  26
ENDBRANCH  16  24
BRANCH  19  33
HETATM   33  C   UNK N   1       4.569   0.177   1.655  0.00  0.00     0.041 C 
HETATM   34  C   UNK N   1       4.814   1.629   2.089  0.00  0.00     0.009 C 
HETATM   35  C   UNK N   1       5.667   2.382   1.066  0.00  0.00     0.001 C 
HETATM   36  C   UNK N   1       7.005   1.674   0.876  0.00  0.00     0.000 C 
HETATM   37  C   UNK N   1       6.788   0.228   0.435  0.00  0.00     0.001 C 
HETATM   38  C   UNK N   1       5.921  -0.521   1.454  0.00  0.00     0.009 C 
ENDBRANCH  19  33
BRANCH  12  39
HETATM   39  O   UNK N   1      -2.573   0.384   1.410  0.00  0.00    -0.395 OA
HETATM   40  H   UNK N   1      -2.306   0.896   2.190  0.00  0.00     0.210 HD
ENDBRANCH  12  39
TORSDOF 7
