MODEL 1
REMARK VINA RESULT:      -3.3      0.000      0.000
REMARK  3 active torsions:
REMARK  status: ('A' for Active; 'I' for Inactive)
REMARK    1  A    between atoms: C_2  and  O_3 
REMARK    2  A    between atoms: C_2  and  C_4 
REMARK    3  A    between atoms: C_4  and  O_5 
ROOT
HETATM    1  C   UNK N   1      23.477  11.820   9.952  0.00  0.00     0.041 C 
HETATM    2  C   UNK N   1      23.977  12.075  11.360  0.00  0.00     0.137 C 
ENDROOT
BRANCH   2   3
HETATM    3  O   UNK N   1      25.281  12.537  11.524  0.00  0.00    -0.394 OA
HETATM    4  H   UNK N   1      25.977  12.255  10.910  0.00  0.00     0.210 HD
ENDBRANCH   2   3
BRANCH   2   5
HETATM    5  C   UNK N   1      23.106  11.845  12.585  0.00  0.00     0.195 C 
BRANCH   5   6
HETATM    6  O   UNK N   1      23.723  12.372  13.722  0.00  0.00    -0.398 OA
HETATM    7  H   UNK N   1      23.194  12.832  14.391  0.00  0.00     0.209 HD
ENDBRANCH   5   6
ENDBRANCH   2   5
TORSDOF 3
ENDMDL
MODEL 2
REMARK VINA RESULT:      -3.2     18.873     19.019
REMARK  3 active torsions:
REMARK  status: ('A' for Active; 'I' for Inactive)
REMARK    1  A    between atoms: C_2  and  O_3 
REMARK    2  A    between atoms: C_2  and  C_4 
REMARK    3  A    between atoms: C_4  and  O_5 
ROOT
HETATM    1  C   UNK N   1      31.219  20.694  -4.080  0.00  0.00     0.041 C 
HETATM    2  C   UNK N   1      31.584  21.627  -2.942  0.00  0.00     0.137 C 
ENDROOT
BRANCH   2   3
HETATM    3  O   UNK N   1      32.614  21.249  -2.083  0.00  0.00    -0.394 OA
HETATM    4  H   UNK N   1      32.954  20.342  -2.104  0.00  0.00     0.210 HD
ENDBRANCH   2   3
BRANCH   2   5
HETATM    5  C   UNK N   1      30.868  22.949  -2.714  0.00  0.00     0.195 C 
BRANCH   5   6
HETATM    6  O   UNK N   1      30.423  23.035  -1.393  0.00  0.00    -0.398 OA
HETATM    7  H   UNK N   1      29.704  23.643  -1.163  0.00  0.00     0.209 HD
ENDBRANCH   5   6
ENDBRANCH   2   5
TORSDOF 3
ENDMDL
MODEL 3
REMARK VINA RESULT:      -3.2     12.625     13.542
REMARK  3 active torsions:
REMARK  status: ('A' for Active; 'I' for Inactive)
REMARK    1  A    between atoms: C_2  and  O_3 
REMARK    2  A    between atoms: C_2  and  C_4 
REMARK    3  A    between atoms: C_4  and  O_5 
ROOT
HETATM    1  C   UNK N   1      21.855  19.483   3.392  0.00  0.00     0.041 C 
HETATM    2  C   UNK N   1      21.429  20.506   2.359  0.00  0.00     0.137 C 
ENDROOT
BRANCH   2   3
HETATM    3  O   UNK N   1      21.722  21.848   2.598  0.00  0.00    -0.394 OA
HETATM    4  H   UNK N   1      21.490  22.520   1.938  0.00  0.00     0.210 HD
ENDBRANCH   2   3
BRANCH   2   5
HETATM    5  C   UNK N   1      20.699  20.117   1.084  0.00  0.00     0.195 C 
BRANCH   5   6
HETATM    6  O   UNK N   1      21.050  20.981   0.044  0.00  0.00    -0.398 OA
HETATM    7  H   UNK N   1      20.402  21.617  -0.297  0.00  0.00     0.209 HD
ENDBRANCH   5   6
ENDBRANCH   2   5
TORSDOF 3
ENDMDL
MODEL 4
REMARK VINA RESULT:      -3.1     18.941     19.352
REMARK  3 active torsions:
REMARK  status: ('A' for Active; 'I' for Inactive)
REMARK    1  A    between atoms: C_2  and  O_3 
REMARK    2  A    between atoms: C_2  and  C_4 
REMARK    3  A    between atoms: C_4  and  O_5 
ROOT
HETATM    1  C   UNK N   1      30.863  24.083  -3.581  0.00  0.00     0.041 C 
HETATM    2  C   UNK N   1      30.992  22.898  -2.645  0.00  0.00     0.137 C 
ENDROOT
BRANCH   2   3
HETATM    3  O   UNK N   1      30.404  22.984  -1.385  0.00  0.00    -0.394 OA
HETATM    4  H   UNK N   1      30.463  23.808  -0.878  0.00  0.00     0.210 HD
ENDBRANCH   2   3
BRANCH   2   5
HETATM    5  C   UNK N   1      31.737  21.632  -3.037  0.00  0.00     0.195 C 
BRANCH   5   6
HETATM    6  O   UNK N   1      32.612  21.251  -2.017  0.00  0.00    -0.398 OA
HETATM    7  H   UNK N   1      32.788  20.312  -1.855  0.00  0.00     0.209 HD
ENDBRANCH   5   6
ENDBRANCH   2   5
TORSDOF 3
ENDMDL
MODEL 5
REMARK VINA RESULT:      -3.1      1.407      2.291
REMARK  3 active torsions:
REMARK  status: ('A' for Active; 'I' for Inactive)
REMARK    1  A    between atoms: C_2  and  O_3 
REMARK    2  A    between atoms: C_2  and  C_4 
REMARK    3  A    between atoms: C_4  and  O_5 
ROOT
HETATM    1  C   UNK N   1      21.466  12.462  10.716  0.00  0.00     0.041 C 
HETATM    2  C   UNK N   1      22.745  12.045  11.415  0.00  0.00     0.137 C 
ENDROOT
BRANCH   2   3
HETATM    3  O   UNK N   1      22.654  11.540  12.711  0.00  0.00    -0.394 OA
HETATM    4  H   UNK N   1      21.922  11.810  13.287  0.00  0.00     0.210 HD
ENDBRANCH   2   3
BRANCH   2   5
HETATM    5  C   UNK N   1      24.108  12.160  10.752  0.00  0.00     0.195 C 
BRANCH   5   6
HETATM    6  O   UNK N   1      25.092  12.405  11.712  0.00  0.00    -0.398 OA
HETATM    7  H   UNK N   1      25.946  12.780  11.445  0.00  0.00     0.209 HD
ENDBRANCH   5   6
ENDBRANCH   2   5
TORSDOF 3
ENDMDL
MODEL 6
REMARK VINA RESULT:      -3.1     23.728     24.203
REMARK  3 active torsions:
REMARK  status: ('A' for Active; 'I' for Inactive)
REMARK    1  A    between atoms: C_2  and  O_3 
REMARK    2  A    between atoms: C_2  and  C_4 
REMARK    3  A    between atoms: C_4  and  O_5 
ROOT
HETATM    1  C   UNK N   1      42.560  22.707   2.526  0.00  0.00     0.041 C 
HETATM    2  C   UNK N   1      43.574  22.888   3.637  0.00  0.00     0.137 C 
ENDROOT
BRANCH   2   3
HETATM    3  O   UNK N   1      43.604  24.108   4.311  0.00  0.00    -0.394 OA
HETATM    4  H   UNK N   1      43.655  24.937   3.811  0.00  0.00     0.210 HD
ENDBRANCH   2   3
BRANCH   2   5
HETATM    5  C   UNK N   1      44.549  21.792   4.033  0.00  0.00     0.195 C 
BRANCH   5   6
HETATM    6  O   UNK N   1      45.818  22.332   4.255  0.00  0.00    -0.398 OA
HETATM    7  H   UNK N   1      46.062  22.651   5.137  0.00  0.00     0.209 HD
ENDBRANCH   5   6
ENDBRANCH   2   5
TORSDOF 3
ENDMDL
MODEL 7
REMARK VINA RESULT:      -3.0     12.707     13.444
REMARK  3 active torsions:
REMARK  status: ('A' for Active; 'I' for Inactive)
REMARK    1  A    between atoms: C_2  and  O_3 
REMARK    2  A    between atoms: C_2  and  C_4 
REMARK    3  A    between atoms: C_4  and  O_5 
ROOT
HETATM    1  C   UNK N   1      20.449  18.537   1.618  0.00  0.00     0.041 C 
HETATM    2  C   UNK N   1      20.709  20.009   1.369  0.00  0.00     0.137 C 
ENDROOT
BRANCH   2   3
HETATM    3  O   UNK N   1      20.689  20.470   0.054  0.00  0.00    -0.394 OA
HETATM    4  H   UNK N   1      20.384  21.369  -0.140  0.00  0.00     0.210 HD
ENDBRANCH   2   3
BRANCH   2   5
HETATM    5  C   UNK N   1      20.988  20.986   2.499  0.00  0.00     0.195 C 
BRANCH   5   6
HETATM    6  O   UNK N   1      22.365  21.153   2.664  0.00  0.00    -0.398 OA
HETATM    7  H   UNK N   1      22.713  21.984   3.022  0.00  0.00     0.209 HD
ENDBRANCH   5   6
ENDBRANCH   2   5
TORSDOF 3
ENDMDL
MODEL 8
REMARK VINA RESULT:      -3.0     12.039     12.684
REMARK  3 active torsions:
REMARK  status: ('A' for Active; 'I' for Inactive)
REMARK    1  A    between atoms: C_2  and  O_3 
REMARK    2  A    between atoms: C_2  and  C_4 
REMARK    3  A    between atoms: C_4  and  O_5 
ROOT
HETATM    1  C   UNK N   1      34.857  15.638   8.581  0.00  0.00     0.041 C 
HETATM    2  C   UNK N   1      34.726  17.043   9.135  0.00  0.00     0.137 C 
ENDROOT
BRANCH   2   3
HETATM    3  O   UNK N   1      34.833  17.222  10.513  0.00  0.00    -0.394 OA
HETATM    4  H   UNK N   1      34.661  16.480  11.114  0.00  0.00     0.210 HD
ENDBRANCH   2   3
BRANCH   2   5
HETATM    5  C   UNK N   1      34.485  18.249   8.242  0.00  0.00     0.195 C 
BRANCH   5   6
HETATM    6  O   UNK N   1      35.366  19.280   8.574  0.00  0.00    -0.398 OA
HETATM    7  H   UNK N   1      36.272  19.073   8.849  0.00  0.00     0.209 HD
ENDBRANCH   5   6
ENDBRANCH   2   5
TORSDOF 3
ENDMDL
MODEL 9
REMARK VINA RESULT:      -3.0     12.493     13.148
REMARK  3 active torsions:
REMARK  status: ('A' for Active; 'I' for Inactive)
REMARK    1  A    between atoms: C_2  and  O_3 
REMARK    2  A    between atoms: C_2  and  C_4 
REMARK    3  A    between atoms: C_4  and  O_5 
ROOT
HETATM    1  C   UNK N   1      21.401  20.696   2.479  0.00  0.00     0.041 C 
HETATM    2  C   UNK N   1      20.682  19.695   1.598  0.00  0.00     0.137 C 
ENDROOT
BRANCH   2   3
HETATM    3  O   UNK N   1      20.622  19.944   0.228  0.00  0.00    -0.394 OA
HETATM    4  H   UNK N   1      20.274  20.790  -0.097  0.00  0.00     0.210 HD
ENDBRANCH   2   3
BRANCH   2   5
HETATM    5  C   UNK N   1      20.031  18.440   2.157  0.00  0.00     0.195 C 
BRANCH   5   6
HETATM    6  O   UNK N   1      18.655  18.634   2.303  0.00  0.00    -0.398 OA
HETATM    7  H   UNK N   1      18.118  18.886   1.536  0.00  0.00     0.209 HD
ENDBRANCH   5   6
ENDBRANCH   2   5
TORSDOF 3
ENDMDL
