MODEL 1
REMARK VINA RESULT:      -6.5      0.000      0.000
REMARK  8 active torsions:
REMARK  status: ('A' for Active; 'I' for Inactive)
REMARK    1  A    between atoms: C_5  and  C_7 
REMARK    2  A    between atoms: C_6  and  O_18 
REMARK    3  A    between atoms: C_7  and  C_8 
REMARK    4  A    between atoms: C_7  and  C_19 
REMARK    5  A    between atoms: C_8  and  C_9 
REMARK    6  A    between atoms: C_9  and  N_10 
REMARK    7  A    between atoms: N_10  and  C_11 
REMARK    8  A    between atoms: N_10  and  C_14 
ROOT
HETATM    1  C   UNK N   1      26.165  25.936  -4.726  0.00  0.00     0.056 C 
ENDROOT
BRANCH   1   2
HETATM    2  C   UNK N   1      26.640  27.390  -4.849  0.00  0.00    -0.016 A 
HETATM    3  C   UNK N   1      27.501  27.795  -5.883  0.00  0.00     0.017 A 
HETATM    4  C   UNK N   1      27.889  29.129  -6.022  0.00  0.00    -0.061 A 
HETATM    5  C   UNK N   1      27.426  30.087  -5.121  0.00  0.00     0.009 A 
HETATM    6  C   UNK N   1      28.780  29.531  -7.142  0.00  0.00     0.048 C 
HETATM    7  C   UNK N   1      26.569  29.710  -4.089  0.00  0.00     0.037 A 
HETATM    8  C   UNK N   1      26.166  28.378  -3.951  0.00  0.00     0.072 A 
BRANCH   8   9
HETATM    9  O   UNK N   1      25.320  28.058  -2.958  0.00  0.00    -0.360 OA
HETATM   10  H   UNK N   1      24.963  28.713  -2.391  0.00  0.00     0.217 HD
ENDBRANCH   8   9
ENDBRANCH   1   2
BRANCH   1  11
HETATM   11  C   UNK N   1      26.970  25.136  -3.698  0.00  0.00     0.044 C 
BRANCH  11  12
HETATM   12  C   UNK N   1      28.412  25.083  -4.191  0.00  0.00     0.274 C 
BRANCH  12  13
HETATM   13  N   UNK N   1      28.972  23.729  -4.114  0.00  0.00     0.096 N 
BRANCH  13  14
HETATM   14  C   UNK N   1      29.923  23.740  -2.973  0.00  0.00     0.215 C 
HETATM   15  C   UNK N   1      31.265  23.115  -3.319  0.00  0.00     0.042 C 
HETATM   16  C   UNK N   1      29.398  22.935  -1.787  0.00  0.00     0.042 C 
ENDBRANCH  13  14
BRANCH  13  17
HETATM   17  C   UNK N   1      29.677  23.500  -5.401  0.00  0.00     0.215 C 
HETATM   18  C   UNK N   1      29.532  24.694  -6.337  0.00  0.00     0.042 C 
HETATM   19  C   UNK N   1      29.138  22.309  -6.178  0.00  0.00     0.042 C 
ENDBRANCH  13  17
ENDBRANCH  12  13
ENDBRANCH  11  12
ENDBRANCH   1  11
BRANCH   1  20
HETATM   20  C   UNK N   1      25.935  25.090  -5.978  0.00  0.00    -0.050 A 
HETATM   21  C   UNK N   1      25.890  25.637  -7.272  0.00  0.00     0.008 A 
HETATM   22  C   UNK N   1      25.682  24.822  -8.388  0.00  0.00     0.001 A 
HETATM   23  C   UNK N   1      25.523  23.445  -8.227  0.00  0.00     0.000 A 
HETATM   24  C   UNK N   1      25.569  22.885  -6.949  0.00  0.00     0.001 A 
HETATM   25  C   UNK N   1      25.769  23.703  -5.833  0.00  0.00     0.008 A 
ENDBRANCH   1  20
TORSDOF 8
ENDMDL
MODEL 2
REMARK VINA RESULT:      -6.5     21.709     26.240
REMARK  8 active torsions:
REMARK  status: ('A' for Active; 'I' for Inactive)
REMARK    1  A    between atoms: C_5  and  C_7 
REMARK    2  A    between atoms: C_6  and  O_18 
REMARK    3  A    between atoms: C_7  and  C_8 
REMARK    4  A    between atoms: C_7  and  C_19 
REMARK    5  A    between atoms: C_8  and  C_9 
REMARK    6  A    between atoms: C_9  and  N_10 
REMARK    7  A    between atoms: N_10  and  C_11 
REMARK    8  A    between atoms: N_10  and  C_14 
ROOT
HETATM    1  C   UNK N   1      35.721  12.432  14.960  0.00  0.00     0.056 C 
ENDROOT
BRANCH   1   2
HETATM    2  C   UNK N   1      36.046  12.560  13.465  0.00  0.00    -0.016 A 
HETATM    3  C   UNK N   1      35.146  13.163  12.569  0.00  0.00     0.017 A 
HETATM    4  C   UNK N   1      35.467  13.326  11.220  0.00  0.00    -0.061 A 
HETATM    5  C   UNK N   1      36.697  12.880  10.738  0.00  0.00     0.009 A 
HETATM    6  C   UNK N   1      34.506  13.992  10.303  0.00  0.00     0.048 C 
HETATM    7  C   UNK N   1      37.606  12.280  11.607  0.00  0.00     0.037 A 
HETATM    8  C   UNK N   1      37.296  12.125  12.962  0.00  0.00     0.072 A 
BRANCH   8   9
HETATM    9  O   UNK N   1      38.208  11.566  13.774  0.00  0.00    -0.360 OA
HETATM   10  H   UNK N   1      37.967  11.209  14.606  0.00  0.00     0.217 HD
ENDBRANCH   8   9
ENDBRANCH   1   2
BRANCH   1  11
HETATM   11  C   UNK N   1      34.305  11.910  15.214  0.00  0.00     0.044 C 
BRANCH  11  12
HETATM   12  C   UNK N   1      34.411  10.411  15.471  0.00  0.00     0.274 C 
BRANCH  12  13
HETATM   13  N   UNK N   1      35.564  10.077  16.317  0.00  0.00     0.096 N 
BRANCH  13  14
HETATM   14  C   UNK N   1      36.116   8.807  15.779  0.00  0.00     0.215 C 
HETATM   15  C   UNK N   1      37.636   8.769  15.808  0.00  0.00     0.042 C 
HETATM   16  C   UNK N   1      35.736   8.596  14.316  0.00  0.00     0.042 C 
ENDBRANCH  13  14
BRANCH  13  17
HETATM   17  C   UNK N   1      35.028   9.893  17.690  0.00  0.00     0.215 C 
HETATM   18  C   UNK N   1      35.974  10.465  18.740  0.00  0.00     0.042 C 
HETATM   19  C   UNK N   1      34.837   8.433  18.070  0.00  0.00     0.042 C 
ENDBRANCH  13  17
ENDBRANCH  12  13
ENDBRANCH  11  12
ENDBRANCH   1  11
BRANCH   1  20
HETATM   20  C   UNK N   1      36.031  13.581  15.919  0.00  0.00    -0.050 A 
HETATM   21  C   UNK N   1      36.992  14.568  15.643  0.00  0.00     0.008 A 
HETATM   22  C   UNK N   1      37.238  15.603  16.549  0.00  0.00     0.001 A 
HETATM   23  C   UNK N   1      36.521  15.670  17.743  0.00  0.00     0.000 A 
HETATM   24  C   UNK N   1      35.559  14.699  18.032  0.00  0.00     0.001 A 
HETATM   25  C   UNK N   1      35.320  13.660  17.127  0.00  0.00     0.008 A 
ENDBRANCH   1  20
TORSDOF 8
ENDMDL
MODEL 3
REMARK VINA RESULT:      -6.3     11.626     14.473
REMARK  8 active torsions:
REMARK  status: ('A' for Active; 'I' for Inactive)
REMARK    1  A    between atoms: C_5  and  C_7 
REMARK    2  A    between atoms: C_6  and  O_18 
REMARK    3  A    between atoms: C_7  and  C_8 
REMARK    4  A    between atoms: C_7  and  C_19 
REMARK    5  A    between atoms: C_8  and  C_9 
REMARK    6  A    between atoms: C_9  and  N_10 
REMARK    7  A    between atoms: N_10  and  C_11 
REMARK    8  A    between atoms: N_10  and  C_14 
ROOT
HETATM    1  C   UNK N   1      28.876  17.374   5.229  0.00  0.00     0.056 C 
ENDROOT
BRANCH   1   2
HETATM    2  C   UNK N   1      28.418  16.261   4.276  0.00  0.00    -0.016 A 
HETATM    3  C   UNK N   1      27.343  15.416   4.599  0.00  0.00     0.017 A 
HETATM    4  C   UNK N   1      26.896  14.439   3.708  0.00  0.00    -0.061 A 
HETATM    5  C   UNK N   1      27.524  14.284   2.473  0.00  0.00     0.009 A 
HETATM    6  C   UNK N   1      25.739  13.579   4.068  0.00  0.00     0.048 C 
HETATM    7  C   UNK N   1      28.591  15.111   2.129  0.00  0.00     0.037 A 
HETATM    8  C   UNK N   1      29.036  16.100   3.012  0.00  0.00     0.072 A 
BRANCH   8   9
HETATM    9  O   UNK N   1      30.051  16.894   2.635  0.00  0.00    -0.360 OA
HETATM   10  H   UNK N   1      30.921  16.561   2.535  0.00  0.00     0.217 HD
ENDBRANCH   8   9
ENDBRANCH   1   2
BRANCH   1  11
HETATM   11  C   UNK N   1      29.175  16.859   6.639  0.00  0.00     0.044 C 
BRANCH  11  12
HETATM   12  C   UNK N   1      30.576  16.256   6.616  0.00  0.00     0.274 C 
BRANCH  12  13
HETATM   13  N   UNK N   1      31.618  17.286   6.529  0.00  0.00     0.096 N 
BRANCH  13  14
HETATM   14  C   UNK N   1      32.666  16.737   5.631  0.00  0.00     0.215 C 
HETATM   15  C   UNK N   1      32.907  17.607   4.407  0.00  0.00     0.042 C 
HETATM   16  C   UNK N   1      32.283  15.366   5.081  0.00  0.00     0.042 C 
ENDBRANCH  13  14
BRANCH  13  17
HETATM   17  C   UNK N   1      32.133  17.470   7.910  0.00  0.00     0.215 C 
HETATM   18  C   UNK N   1      33.497  18.151   7.911  0.00  0.00     0.042 C 
HETATM   19  C   UNK N   1      32.333  16.161   8.656  0.00  0.00     0.042 C 
ENDBRANCH  13  17
ENDBRANCH  12  13
ENDBRANCH  11  12
ENDBRANCH   1  11
BRANCH   1  20
HETATM   20  C   UNK N   1      28.101  18.689   5.310  0.00  0.00    -0.050 A 
HETATM   21  C   UNK N   1      27.547  19.320   4.183  0.00  0.00     0.008 A 
HETATM   22  C   UNK N   1      26.842  20.520   4.307  0.00  0.00     0.001 A 
HETATM   23  C   UNK N   1      26.673  21.104   5.562  0.00  0.00     0.000 A 
HETATM   24  C   UNK N   1      27.213  20.488   6.693  0.00  0.00     0.001 A 
HETATM   25  C   UNK N   1      27.925  19.292   6.566  0.00  0.00     0.008 A 
ENDBRANCH   1  20
TORSDOF 8
ENDMDL
MODEL 4
REMARK VINA RESULT:      -6.3     12.089     15.060
REMARK  8 active torsions:
REMARK  status: ('A' for Active; 'I' for Inactive)
REMARK    1  A    between atoms: C_5  and  C_7 
REMARK    2  A    between atoms: C_6  and  O_18 
REMARK    3  A    between atoms: C_7  and  C_8 
REMARK    4  A    between atoms: C_7  and  C_19 
REMARK    5  A    between atoms: C_8  and  C_9 
REMARK    6  A    between atoms: C_9  and  N_10 
REMARK    7  A    between atoms: N_10  and  C_11 
REMARK    8  A    between atoms: N_10  and  C_14 
ROOT
HETATM    1  C   UNK N   1      28.902  17.485   6.901  0.00  0.00     0.056 C 
ENDROOT
BRANCH   1   2
HETATM    2  C   UNK N   1      30.429  17.427   7.041  0.00  0.00    -0.016 A 
HETATM    3  C   UNK N   1      31.258  17.173   5.935  0.00  0.00     0.017 A 
HETATM    4  C   UNK N   1      32.649  17.173   6.056  0.00  0.00    -0.061 A 
HETATM    5  C   UNK N   1      33.240  17.422   7.293  0.00  0.00     0.009 A 
HETATM    6  C   UNK N   1      33.498  16.927   4.862  0.00  0.00     0.048 C 
HETATM    7  C   UNK N   1      32.439  17.678   8.405  0.00  0.00     0.037 A 
HETATM    8  C   UNK N   1      31.045  17.692   8.288  0.00  0.00     0.072 A 
BRANCH   8   9
HETATM    9  O   UNK N   1      30.308  17.968   9.376  0.00  0.00    -0.360 OA
HETATM   10  H   UNK N   1      29.725  18.702   9.397  0.00  0.00     0.217 HD
ENDBRANCH   8   9
ENDBRANCH   1   2
BRANCH   1  11
HETATM   11  C   UNK N   1      28.328  16.266   6.174  0.00  0.00     0.044 C 
BRANCH  11  12
HETATM   12  C   UNK N   1      26.969  15.964   6.794  0.00  0.00     0.274 C 
BRANCH  12  13
HETATM   13  N   UNK N   1      25.886  16.019   5.805  0.00  0.00     0.096 N 
BRANCH  13  14
HETATM   14  C   UNK N   1      24.915  14.965   6.196  0.00  0.00     0.215 C 
HETATM   15  C   UNK N   1      23.513  15.509   6.415  0.00  0.00     0.042 C 
HETATM   16  C   UNK N   1      25.300  14.299   7.515  0.00  0.00     0.042 C 
ENDBRANCH  13  14
BRANCH  13  17
HETATM   17  C   UNK N   1      26.511  15.716   4.492  0.00  0.00     0.215 C 
HETATM   18  C   UNK N   1      25.990  16.641   3.398  0.00  0.00     0.042 C 
HETATM   19  C   UNK N   1      26.224  14.306   4.000  0.00  0.00     0.042 C 
ENDBRANCH  13  17
ENDBRANCH  12  13
ENDBRANCH  11  12
ENDBRANCH   1  11
BRANCH   1  20
HETATM   20  C   UNK N   1      28.220  18.758   6.398  0.00  0.00    -0.050 A 
HETATM   21  C   UNK N   1      27.618  19.693   7.258  0.00  0.00     0.008 A 
HETATM   22  C   UNK N   1      27.011  20.845   6.752  0.00  0.00     0.001 A 
HETATM   23  C   UNK N   1      27.003  21.083   5.377  0.00  0.00     0.000 A 
HETATM   24  C   UNK N   1      27.600  20.167   4.509  0.00  0.00     0.001 A 
HETATM   25  C   UNK N   1      28.200  19.011   5.017  0.00  0.00     0.008 A 
ENDBRANCH   1  20
TORSDOF 8
ENDMDL
MODEL 5
REMARK VINA RESULT:      -6.3     20.951     25.636
REMARK  8 active torsions:
REMARK  status: ('A' for Active; 'I' for Inactive)
REMARK    1  A    between atoms: C_5  and  C_7 
REMARK    2  A    between atoms: C_6  and  O_18 
REMARK    3  A    between atoms: C_7  and  C_8 
REMARK    4  A    between atoms: C_7  and  C_19 
REMARK    5  A    between atoms: C_8  and  C_9 
REMARK    6  A    between atoms: C_9  and  N_10 
REMARK    7  A    between atoms: N_10  and  C_11 
REMARK    8  A    between atoms: N_10  and  C_14 
ROOT
HETATM    1  C   UNK N   1      35.193  12.289  14.914  0.00  0.00     0.056 C 
ENDROOT
BRANCH   1   2
HETATM    2  C   UNK N   1      35.577  10.980  14.211  0.00  0.00    -0.016 A 
HETATM    3  C   UNK N   1      36.900  10.505  14.218  0.00  0.00     0.017 A 
HETATM    4  C   UNK N   1      37.236   9.287  13.623  0.00  0.00    -0.061 A 
HETATM    5  C   UNK N   1      36.251   8.521  13.001  0.00  0.00     0.009 A 
HETATM    6  C   UNK N   1      38.639   8.799  13.670  0.00  0.00     0.048 C 
HETATM    7  C   UNK N   1      34.932   8.970  12.983  0.00  0.00     0.037 A 
HETATM    8  C   UNK N   1      34.586  10.183  13.588  0.00  0.00     0.072 A 
BRANCH   8   9
HETATM    9  O   UNK N   1      33.301  10.570  13.572  0.00  0.00    -0.360 OA
HETATM   10  H   UNK N   1      32.955  11.142  14.229  0.00  0.00     0.217 HD
ENDBRANCH   8   9
ENDBRANCH   1   2
BRANCH   1  11
HETATM   11  C   UNK N   1      35.877  13.513  14.298  0.00  0.00     0.044 C 
BRANCH  11  12
HETATM   12  C   UNK N   1      35.407  13.616  12.851  0.00  0.00     0.274 C 
BRANCH  12  13
HETATM   13  N   UNK N   1      36.435  14.195  11.977  0.00  0.00     0.096 N 
BRANCH  13  14
HETATM   14  C   UNK N   1      35.705  14.874  10.876  0.00  0.00     0.215 C 
HETATM   15  C   UNK N   1      35.939  16.377  10.856  0.00  0.00     0.042 C 
HETATM   16  C   UNK N   1      34.194  14.703  11.005  0.00  0.00     0.042 C 
ENDBRANCH  13  14
BRANCH  13  17
HETATM   17  C   UNK N   1      37.236  13.052  11.469  0.00  0.00     0.215 C 
HETATM   18  C   UNK N   1      38.211  13.492  10.383  0.00  0.00     0.042 C 
HETATM   19  C   UNK N   1      36.389  11.960  10.835  0.00  0.00     0.042 C 
ENDBRANCH  13  17
ENDBRANCH  12  13
ENDBRANCH  11  12
ENDBRANCH   1  11
BRANCH   1  20
HETATM   20  C   UNK N   1      35.229  12.387  16.439  0.00  0.00    -0.050 A 
HETATM   21  C   UNK N   1      35.330  11.262  17.275  0.00  0.00     0.008 A 
HETATM   22  C   UNK N   1      35.363  11.401  18.665  0.00  0.00     0.001 A 
HETATM   23  C   UNK N   1      35.305  12.670  19.240  0.00  0.00     0.000 A 
HETATM   24  C   UNK N   1      35.209  13.800  18.425  0.00  0.00     0.001 A 
HETATM   25  C   UNK N   1      35.167  13.657  17.034  0.00  0.00     0.008 A 
ENDBRANCH   1  20
TORSDOF 8
ENDMDL
MODEL 6
REMARK VINA RESULT:      -6.3      2.292      5.331
REMARK  8 active torsions:
REMARK  status: ('A' for Active; 'I' for Inactive)
REMARK    1  A    between atoms: C_5  and  C_7 
REMARK    2  A    between atoms: C_6  and  O_18 
REMARK    3  A    between atoms: C_7  and  C_8 
REMARK    4  A    between atoms: C_7  and  C_19 
REMARK    5  A    between atoms: C_8  and  C_9 
REMARK    6  A    between atoms: C_9  and  N_10 
REMARK    7  A    between atoms: N_10  and  C_11 
REMARK    8  A    between atoms: N_10  and  C_14 
ROOT
HETATM    1  C   UNK N   1      27.303  24.264  -5.037  0.00  0.00     0.056 C 
ENDROOT
BRANCH   1   2
HETATM    2  C   UNK N   1      28.516  23.835  -4.200  0.00  0.00    -0.016 A 
HETATM    3  C   UNK N   1      29.818  23.864  -4.727  0.00  0.00     0.017 A 
HETATM    4  C   UNK N   1      30.924  23.524  -3.946  0.00  0.00    -0.061 A 
HETATM    5  C   UNK N   1      30.746  23.139  -2.618  0.00  0.00     0.009 A 
HETATM    6  C   UNK N   1      32.291  23.591  -4.525  0.00  0.00     0.048 C 
HETATM    7  C   UNK N   1      29.465  23.104  -2.072  0.00  0.00     0.037 A 
HETATM    8  C   UNK N   1      28.353  23.456  -2.845  0.00  0.00     0.072 A 
BRANCH   8   9
HETATM    9  O   UNK N   1      27.137  23.434  -2.276  0.00  0.00    -0.360 OA
HETATM   10  H   UNK N   1      26.497  22.794  -2.518  0.00  0.00     0.217 HD
ENDBRANCH   8   9
ENDBRANCH   1   2
BRANCH   1  11
HETATM   11  C   UNK N   1      27.496  24.005  -6.533  0.00  0.00     0.044 C 
BRANCH  11  12
HETATM   12  C   UNK N   1      26.990  22.595  -6.820  0.00  0.00     0.274 C 
BRANCH  12  13
HETATM   13  N   UNK N   1      27.693  21.975  -7.949  0.00  0.00     0.096 N 
BRANCH  13  14
HETATM   14  C   UNK N   1      26.695  21.117  -8.636  0.00  0.00     0.215 C 
HETATM   15  C   UNK N   1      26.438  21.548 -10.072  0.00  0.00     0.042 C 
HETATM   16  C   UNK N   1      25.332  21.169  -7.951  0.00  0.00     0.042 C 
ENDBRANCH  13  14
BRANCH  13  17
HETATM   17  C   UNK N   1      28.787  21.162  -7.357  0.00  0.00     0.215 C 
HETATM   18  C   UNK N   1      30.158  21.723  -7.718  0.00  0.00     0.042 C 
HETATM   19  C   UNK N   1      28.797  19.722  -7.845  0.00  0.00     0.042 C 
ENDBRANCH  13  17
ENDBRANCH  12  13
ENDBRANCH  11  12
ENDBRANCH   1  11
BRANCH   1  20
HETATM   20  C   UNK N   1      26.665  25.638  -4.826  0.00  0.00    -0.050 A 
HETATM   21  C   UNK N   1      25.502  26.052  -5.497  0.00  0.00     0.008 A 
HETATM   22  C   UNK N   1      24.954  27.316  -5.268  0.00  0.00     0.001 A 
HETATM   23  C   UNK N   1      25.557  28.184  -4.358  0.00  0.00     0.000 A 
HETATM   24  C   UNK N   1      26.711  27.787  -3.679  0.00  0.00     0.001 A 
HETATM   25  C   UNK N   1      27.263  26.525  -3.916  0.00  0.00     0.008 A 
ENDBRANCH   1  20
TORSDOF 8
ENDMDL
MODEL 7
REMARK VINA RESULT:      -6.2      1.995      6.265
REMARK  8 active torsions:
REMARK  status: ('A' for Active; 'I' for Inactive)
REMARK    1  A    between atoms: C_5  and  C_7 
REMARK    2  A    between atoms: C_6  and  O_18 
REMARK    3  A    between atoms: C_7  and  C_8 
REMARK    4  A    between atoms: C_7  and  C_19 
REMARK    5  A    between atoms: C_8  and  C_9 
REMARK    6  A    between atoms: C_9  and  N_10 
REMARK    7  A    between atoms: N_10  and  C_11 
REMARK    8  A    between atoms: N_10  and  C_14 
ROOT
HETATM    1  C   UNK N   1      27.915  24.130  -5.469  0.00  0.00     0.056 C 
ENDROOT
BRANCH   1   2
HETATM    2  C   UNK N   1      27.371  23.073  -6.440  0.00  0.00    -0.016 A 
HETATM    3  C   UNK N   1      28.229  22.190  -7.118  0.00  0.00     0.017 A 
HETATM    4  C   UNK N   1      27.728  21.195  -7.960  0.00  0.00    -0.061 A 
HETATM    5  C   UNK N   1      26.352  21.069  -8.146  0.00  0.00     0.009 A 
HETATM    6  C   UNK N   1      28.660  20.259  -8.641  0.00  0.00     0.048 C 
HETATM    7  C   UNK N   1      25.481  21.932  -7.483  0.00  0.00     0.037 A 
HETATM    8  C   UNK N   1      25.976  22.922  -6.628  0.00  0.00     0.072 A 
BRANCH   8   9
HETATM    9  O   UNK N   1      25.104  23.718  -5.988  0.00  0.00    -0.360 OA
HETATM   10  H   UNK N   1      25.395  24.384  -5.396  0.00  0.00     0.217 HD
ENDBRANCH   8   9
ENDBRANCH   1   2
BRANCH   1  11
HETATM   11  C   UNK N   1      28.580  25.306  -6.188  0.00  0.00     0.044 C 
BRANCH  11  12
HETATM   12  C   UNK N   1      27.497  26.344  -6.461  0.00  0.00     0.274 C 
BRANCH  12  13
HETATM   13  N   UNK N   1      27.323  27.270  -5.336  0.00  0.00     0.096 N 
BRANCH  13  14
HETATM   14  C   UNK N   1      26.001  26.950  -4.739  0.00  0.00     0.215 C 
HETATM   15  C   UNK N   1      24.848  27.195  -5.700  0.00  0.00     0.042 C 
HETATM   16  C   UNK N   1      25.702  27.819  -3.520  0.00  0.00     0.042 C 
ENDBRANCH  13  14
BRANCH  13  17
HETATM   17  C   UNK N   1      27.336  28.635  -5.919  0.00  0.00     0.215 C 
HETATM   18  C   UNK N   1      28.035  28.658  -7.274  0.00  0.00     0.042 C 
HETATM   19  C   UNK N   1      28.079  29.648  -5.062  0.00  0.00     0.042 C 
ENDBRANCH  13  17
ENDBRANCH  12  13
ENDBRANCH  11  12
ENDBRANCH   1  11
BRANCH   1  20
HETATM   20  C   UNK N   1      28.760  23.711  -4.265  0.00  0.00    -0.050 A 
HETATM   21  C   UNK N   1      28.208  23.440  -3.001  0.00  0.00     0.008 A 
HETATM   22  C   UNK N   1      29.021  23.056  -1.932  0.00  0.00     0.001 A 
HETATM   23  C   UNK N   1      30.398  22.931  -2.112  0.00  0.00     0.000 A 
HETATM   24  C   UNK N   1      30.962  23.192  -3.362  0.00  0.00     0.001 A 
HETATM   25  C   UNK N   1      30.149  23.584  -4.429  0.00  0.00     0.008 A 
ENDBRANCH   1  20
TORSDOF 8
ENDMDL
MODEL 8
REMARK VINA RESULT:      -6.2     21.155     25.705
REMARK  8 active torsions:
REMARK  status: ('A' for Active; 'I' for Inactive)
REMARK    1  A    between atoms: C_5  and  C_7 
REMARK    2  A    between atoms: C_6  and  O_18 
REMARK    3  A    between atoms: C_7  and  C_8 
REMARK    4  A    between atoms: C_7  and  C_19 
REMARK    5  A    between atoms: C_8  and  C_9 
REMARK    6  A    between atoms: C_9  and  N_10 
REMARK    7  A    between atoms: N_10  and  C_11 
REMARK    8  A    between atoms: N_10  and  C_14 
ROOT
HETATM    1  C   UNK N   1      36.084  12.363  14.801  0.00  0.00     0.056 C 
ENDROOT
BRANCH   1   2
HETATM    2  C   UNK N   1      36.058  13.364  15.965  0.00  0.00    -0.016 A 
HETATM    3  C   UNK N   1      35.421  13.059  17.179  0.00  0.00     0.017 A 
HETATM    4  C   UNK N   1      35.444  13.950  18.254  0.00  0.00    -0.061 A 
HETATM    5  C   UNK N   1      36.104  15.172  18.130  0.00  0.00     0.009 A 
HETATM    6  C   UNK N   1      34.784  13.588  19.535  0.00  0.00     0.048 C 
HETATM    7  C   UNK N   1      36.745  15.497  16.936  0.00  0.00     0.037 A 
HETATM    8  C   UNK N   1      36.736  14.603  15.860  0.00  0.00     0.072 A 
BRANCH   8   9
HETATM    9  O   UNK N   1      37.386  14.940  14.735  0.00  0.00    -0.360 OA
HETATM   10  H   UNK N   1      37.453  15.833  14.458  0.00  0.00     0.217 HD
ENDBRANCH   8   9
ENDBRANCH   1   2
BRANCH   1  11
HETATM   11  C   UNK N   1      34.695  12.109  14.209  0.00  0.00     0.044 C 
BRANCH  11  12
HETATM   12  C   UNK N   1      34.858  11.999  12.697  0.00  0.00     0.274 C 
BRANCH  12  13
HETATM   13  N   UNK N   1      35.769  13.019  12.164  0.00  0.00     0.096 N 
BRANCH  13  14
HETATM   14  C   UNK N   1      34.907  14.113  11.649  0.00  0.00     0.215 C 
HETATM   15  C   UNK N   1      34.503  13.909  10.197  0.00  0.00     0.042 C 
HETATM   16  C   UNK N   1      35.619  15.463  11.683  0.00  0.00     0.042 C 
ENDBRANCH  13  14
BRANCH  13  17
HETATM   17  C   UNK N   1      36.525  12.364  11.066  0.00  0.00     0.215 C 
HETATM   18  C   UNK N   1      36.420  10.845  11.143  0.00  0.00     0.042 C 
HETATM   19  C   UNK N   1      38.014  12.670  11.096  0.00  0.00     0.042 C 
ENDBRANCH  13  17
ENDBRANCH  12  13
ENDBRANCH  11  12
ENDBRANCH   1  11
BRANCH   1  20
HETATM   20  C   UNK N   1      36.842  11.042  14.935  0.00  0.00    -0.050 A 
HETATM   21  C   UNK N   1      36.277   9.892  15.512  0.00  0.00     0.008 A 
HETATM   22  C   UNK N   1      37.008   8.705  15.608  0.00  0.00     0.001 A 
HETATM   23  C   UNK N   1      38.314   8.649  15.122  0.00  0.00     0.000 A 
HETATM   24  C   UNK N   1      38.889   9.781  14.542  0.00  0.00     0.001 A 
HETATM   25  C   UNK N   1      38.159  10.970  14.454  0.00  0.00     0.008 A 
ENDBRANCH   1  20
TORSDOF 8
ENDMDL
MODEL 9
REMARK VINA RESULT:      -6.2      1.919      5.384
REMARK  8 active torsions:
REMARK  status: ('A' for Active; 'I' for Inactive)
REMARK    1  A    between atoms: C_5  and  C_7 
REMARK    2  A    between atoms: C_6  and  O_18 
REMARK    3  A    between atoms: C_7  and  C_8 
REMARK    4  A    between atoms: C_7  and  C_19 
REMARK    5  A    between atoms: C_8  and  C_9 
REMARK    6  A    between atoms: C_9  and  N_10 
REMARK    7  A    between atoms: N_10  and  C_11 
REMARK    8  A    between atoms: N_10  and  C_14 
ROOT
HETATM    1  C   UNK N   1      27.239  24.926  -3.651  0.00  0.00     0.056 C 
ENDROOT
BRANCH   1   2
HETATM    2  C   UNK N   1      28.619  24.274  -3.481  0.00  0.00    -0.016 A 
HETATM    3  C   UNK N   1      29.697  24.613  -4.316  0.00  0.00     0.017 A 
HETATM    4  C   UNK N   1      30.964  24.057  -4.126  0.00  0.00    -0.061 A 
HETATM    5  C   UNK N   1      31.175  23.143  -3.095  0.00  0.00     0.009 A 
HETATM    6  C   UNK N   1      32.090  24.456  -5.009  0.00  0.00     0.048 C 
HETATM    7  C   UNK N   1      30.122  22.793  -2.252  0.00  0.00     0.037 A 
HETATM    8  C   UNK N   1      28.853  23.355  -2.430  0.00  0.00     0.072 A 
BRANCH   8   9
HETATM    9  O   UNK N   1      27.870  23.012  -1.582  0.00  0.00    -0.360 OA
HETATM   10  H   UNK N   1      27.058  22.662  -1.893  0.00  0.00     0.217 HD
ENDBRANCH   8   9
ENDBRANCH   1   2
BRANCH   1  11
HETATM   11  C   UNK N   1      26.299  24.098  -4.531  0.00  0.00     0.044 C 
BRANCH  11  12
HETATM   12  C   UNK N   1      26.916  24.038  -5.925  0.00  0.00     0.274 C 
BRANCH  12  13
HETATM   13  N   UNK N   1      25.895  24.035  -6.980  0.00  0.00     0.096 N 
BRANCH  13  14
HETATM   14  C   UNK N   1      26.039  22.738  -7.689  0.00  0.00     0.215 C 
HETATM   15  C   UNK N   1      25.008  21.710  -7.249  0.00  0.00     0.042 C 
HETATM   16  C   UNK N   1      27.394  22.089  -7.419  0.00  0.00     0.042 C 
ENDBRANCH  13  14
BRANCH  13  17
HETATM   17  C   UNK N   1      26.221  25.176  -7.873  0.00  0.00     0.215 C 
HETATM   18  C   UNK N   1      25.658  26.486  -7.333  0.00  0.00     0.042 C 
HETATM   19  C   UNK N   1      25.640  25.031  -9.270  0.00  0.00     0.042 C 
ENDBRANCH  13  17
ENDBRANCH  12  13
ENDBRANCH  11  12
ENDBRANCH   1  11
BRANCH   1  20
HETATM   20  C   UNK N   1      27.123  26.406  -4.016  0.00  0.00    -0.050 A 
HETATM   21  C   UNK N   1      28.140  27.110  -4.682  0.00  0.00     0.008 A 
HETATM   22  C   UNK N   1      27.987  28.463  -4.998  0.00  0.00     0.001 A 
HETATM   23  C   UNK N   1      26.810  29.129  -4.659  0.00  0.00     0.000 A 
HETATM   24  C   UNK N   1      25.787  28.443  -4.000  0.00  0.00     0.001 A 
HETATM   25  C   UNK N   1      25.946  27.092  -3.678  0.00  0.00     0.008 A 
ENDBRANCH   1  20
TORSDOF 8
ENDMDL
