MODEL 1
REMARK VINA RESULT:      -8.0      0.000      0.000
REMARK  4 active torsions:
REMARK  status: ('A' for Active; 'I' for Inactive)
REMARK    1  A    between atoms: C_21  and  C_13 
REMARK    2  A    between atoms: C_22  and  C_18 
REMARK    3  A    between atoms: C_23  and  O_30 
REMARK    4  A    between atoms: C_25  and  O_32 
ROOT
HETATM    1  C   UNK N   1      28.677  13.126   3.529  0.00  0.00     0.043 C 
HETATM    2  C   UNK N   1      34.714  12.770   3.173  0.00  0.00     0.012 C 
HETATM    3  C   UNK N   1      36.240  14.491   6.289  0.00  0.00     0.020 C 
HETATM    4  C   UNK N   1      33.174  15.118   9.582  0.00  0.00     0.026 C 
HETATM    5  C   UNK N   1      35.529  14.756   9.150  0.00  0.00     0.026 C 
HETATM    6  C   UNK N   1      31.875  13.290   2.996  0.00  0.00     0.005 C 
HETATM    7  C   UNK N   1      30.861  14.421   3.040  0.00  0.00     0.033 C 
HETATM    8  C   UNK N   1      32.522  13.027   4.367  0.00  0.00     0.007 C 
HETATM    9  C   UNK N   1      29.641  14.689   5.165  0.00  0.00    -0.022 C 
HETATM   10  C   UNK N   1      30.681  15.703   5.564  0.00  0.00     0.064 C 
HETATM   11  C   UNK N   1      33.563  17.959   7.989  0.00  0.00     0.144 C 
HETATM   12  C   UNK N   1      29.724  14.097   3.966  0.00  0.00    -0.087 C 
HETATM   13  C   UNK N   1      34.032  13.335   4.415  0.00  0.00     0.011 C 
HETATM   14  C   UNK N   1      34.928  15.224   6.036  0.00  0.00     0.081 C 
HETATM   15  C   UNK N   1      30.328  16.607   6.744  0.00  0.00     0.164 C 
HETATM   16  C   UNK N   1      34.580  17.026   8.680  0.00  0.00     0.142 C 
HETATM   17  C   UNK N   1      32.119  17.574   8.080  0.00  0.00     0.262 C 
HETATM   18  C   UNK N   1      34.398  14.842   4.620  0.00  0.00     0.132 C 
HETATM   19  C   UNK N   1      33.970  15.005   7.200  0.00  0.00     0.143 C 
HETATM   20  C   UNK N   1      34.303  15.489   8.620  0.00  0.00     0.040 C 
HETATM   21  O   UNK N   1      31.577  17.429   9.163  0.00  0.00    -0.265 OA
HETATM   22  O   UNK N   1      32.900  14.451   6.996  0.00  0.00    -0.297 OA
HETATM   23  O   UNK N   1      31.424  17.428   6.924  0.00  0.00    -0.311 OA
ENDROOT
BRANCH  15  24
HETATM   24  C   UNK N   1      29.077  17.458   6.551  0.00  0.00    -0.052 C 
HETATM   25  C   UNK N   1      28.160  17.568   7.730  0.00  0.00     0.046 C 
HETATM   26  C   UNK N   1      28.786  18.064   5.367  0.00  0.00     0.035 C 
BRANCH  26  27
HETATM   27  C   UNK N   1      27.559  18.822   5.043  0.00  0.00     0.039 A 
HETATM   28  C   UNK N   1      27.440  20.227   5.073  0.00  0.00     0.081 A 
HETATM   29  S   UNK N   1      25.849  20.526   4.712  0.00  0.00    -0.087 SA
HETATM   30  C   UNK N   1      25.353  18.969   4.534  0.00  0.00     0.047 A 
HETATM   31  C   UNK N   1      23.974  18.514   4.218  0.00  0.00     0.076 C 
HETATM   32  N   UNK N   1      26.397  18.139   4.747  0.00  0.00    -0.354 N 
ATOM     33  HN  UNK N   1      26.333  17.122   4.693  1.00  0.00     0.166 HD
ENDBRANCH  26  27
ENDBRANCH  15  24
BRANCH  16  34
HETATM   34  O   UNK N   1      34.741  17.439  10.006  0.00  0.00    -0.394 OA
HETATM   35  H   UNK N   1      34.188  17.114  10.734  0.00  0.00     0.210 HD
ENDBRANCH  16  34
BRANCH  18  36
HETATM   36  O   UNK N   1      33.340  15.680   4.257  0.00  0.00    -0.394 OA
HETATM   37  H   UNK N   1      33.457  16.423   3.644  0.00  0.00     0.210 HD
ENDBRANCH  18  36
TORSDOF 4
ENDMDL
MODEL 2
REMARK VINA RESULT:      -7.6      4.830      8.193
REMARK  4 active torsions:
REMARK  status: ('A' for Active; 'I' for Inactive)
REMARK    1  A    between atoms: C_21  and  C_13 
REMARK    2  A    between atoms: C_22  and  C_18 
REMARK    3  A    between atoms: C_23  and  O_30 
REMARK    4  A    between atoms: C_25  and  O_32 
ROOT
HETATM    1  C   UNK N   1      39.779  13.001   7.928  0.00  0.00     0.043 C 
HETATM    2  C   UNK N   1      36.820  12.696   2.651  0.00  0.00     0.012 C 
HETATM    3  C   UNK N   1      33.637  14.890   2.890  0.00  0.00     0.020 C 
HETATM    4  C   UNK N   1      33.780  17.750   6.417  0.00  0.00     0.026 C 
HETATM    5  C   UNK N   1      32.892  17.445   4.184  0.00  0.00     0.026 C 
HETATM    6  C   UNK N   1      38.055  12.386   5.247  0.00  0.00     0.005 C 
HETATM    7  C   UNK N   1      37.737  12.014   6.685  0.00  0.00     0.033 C 
HETATM    8  C   UNK N   1      37.448  13.741   4.843  0.00  0.00     0.007 C 
HETATM    9  C   UNK N   1      37.514  13.897   8.260  0.00  0.00    -0.022 C 
HETATM   10  C   UNK N   1      36.030  13.859   8.000  0.00  0.00     0.064 C 
HETATM   11  C   UNK N   1      31.912  15.185   7.251  0.00  0.00     0.144 C 
HETATM   12  C   UNK N   1      38.313  13.014   7.646  0.00  0.00    -0.087 C 
HETATM   13  C   UNK N   1      36.359  13.641   3.757  0.00  0.00     0.011 C 
HETATM   14  C   UNK N   1      33.887  14.400   4.311  0.00  0.00     0.081 C 
HETATM   15  C   UNK N   1      35.148  14.612   8.995  0.00  0.00     0.164 C 
HETATM   16  C   UNK N   1      31.836  16.161   6.058  0.00  0.00     0.142 C 
HETATM   17  C   UNK N   1      32.978  15.444   8.271  0.00  0.00     0.262 C 
HETATM   18  C   UNK N   1      34.936  13.248   4.274  0.00  0.00     0.132 C 
HETATM   19  C   UNK N   1      34.204  15.577   5.225  0.00  0.00     0.143 C 
HETATM   20  C   UNK N   1      33.185  16.699   5.479  0.00  0.00     0.040 C 
HETATM   21  O   UNK N   1      33.035  16.509   8.861  0.00  0.00    -0.265 OA
HETATM   22  O   UNK N   1      35.288  15.620   5.787  0.00  0.00    -0.297 OA
HETATM   23  O   UNK N   1      33.853  14.444   8.545  0.00  0.00    -0.311 OA
ENDROOT
BRANCH  15  24
HETATM   24  C   UNK N   1      35.254  14.131  10.439  0.00  0.00    -0.052 C 
HETATM   25  C   UNK N   1      35.436  15.192  11.480  0.00  0.00     0.046 C 
HETATM   26  C   UNK N   1      35.219  12.811  10.770  0.00  0.00     0.035 C 
BRANCH  26  27
HETATM   27  C   UNK N   1      35.413  12.235  12.117  0.00  0.00     0.039 A 
HETATM   28  C   UNK N   1      36.662  12.005  12.730  0.00  0.00     0.081 A 
HETATM   29  S   UNK N   1      36.299  11.276  14.175  0.00  0.00    -0.087 SA
HETATM   30  C   UNK N   1      34.662  11.256  14.021  0.00  0.00     0.047 A 
HETATM   31  C   UNK N   1      33.692  10.695  14.996  0.00  0.00     0.076 C 
HETATM   32  N   UNK N   1      34.316  11.813  12.841  0.00  0.00    -0.354 N 
ATOM     33  HN  UNK N   1      33.353  11.912  12.520  1.00  0.00     0.166 HD
ENDBRANCH  26  27
ENDBRANCH  15  24
BRANCH  16  34
HETATM   34  O   UNK N   1      30.996  17.226   6.400  0.00  0.00    -0.394 OA
HETATM   35  H   UNK N   1      31.280  17.968   6.957  0.00  0.00     0.210 HD
ENDBRANCH  16  34
BRANCH  18  36
HETATM   36  O   UNK N   1      35.001  12.611   5.517  0.00  0.00    -0.394 OA
HETATM   37  H   UNK N   1      35.386  13.041   6.297  0.00  0.00     0.210 HD
ENDBRANCH  18  36
TORSDOF 4
ENDMDL
MODEL 3
REMARK VINA RESULT:      -7.5      8.399     12.310
REMARK  4 active torsions:
REMARK  status: ('A' for Active; 'I' for Inactive)
REMARK    1  A    between atoms: C_21  and  C_13 
REMARK    2  A    between atoms: C_22  and  C_18 
REMARK    3  A    between atoms: C_23  and  O_30 
REMARK    4  A    between atoms: C_25  and  O_32 
ROOT
HETATM    1  C   UNK N   1      36.611  15.158  17.078  0.00  0.00     0.043 C 
HETATM    2  C   UNK N   1      34.689  10.150  19.893  0.00  0.00     0.012 C 
HETATM    3  C   UNK N   1      35.701   7.073  17.769  0.00  0.00     0.020 C 
HETATM    4  C   UNK N   1      38.852   8.090  14.659  0.00  0.00     0.026 C 
HETATM    5  C   UNK N   1      37.996   6.312  16.064  0.00  0.00     0.026 C 
HETATM    6  C   UNK N   1      35.131  12.603  18.427  0.00  0.00     0.005 C 
HETATM    7  C   UNK N   1      34.852  13.262  17.086  0.00  0.00     0.033 C 
HETATM    8  C   UNK N   1      36.144  11.450  18.316  0.00  0.00     0.007 C 
HETATM    9  C   UNK N   1      36.730  13.285  15.489  0.00  0.00    -0.022 C 
HETATM   10  C   UNK N   1      36.165  12.018  14.901  0.00  0.00     0.064 C 
HETATM   11  C   UNK N   1      35.932   7.992  13.167  0.00  0.00     0.144 C 
HETATM   12  C   UNK N   1      36.098  13.875  16.513  0.00  0.00    -0.087 C 
HETATM   13  C   UNK N   1      35.552  10.064  18.637  0.00  0.00     0.011 C 
HETATM   14  C   UNK N   1      35.501   8.199  16.762  0.00  0.00     0.081 C 
HETATM   15  C   UNK N   1      36.694  11.615  13.525  0.00  0.00     0.164 C 
HETATM   16  C   UNK N   1      36.672   6.953  14.035  0.00  0.00     0.142 C 
HETATM   17  C   UNK N   1      36.655   9.270  12.875  0.00  0.00     0.262 C 
HETATM   18  C   UNK N   1      34.771   9.384  17.464  0.00  0.00     0.132 C 
HETATM   19  C   UNK N   1      36.818   8.527  16.072  0.00  0.00     0.143 C 
HETATM   20  C   UNK N   1      37.555   7.492  15.207  0.00  0.00     0.040 C 
HETATM   21  O   UNK N   1      37.742   9.262  12.322  0.00  0.00    -0.265 OA
HETATM   22  O   UNK N   1      37.291   9.648  16.190  0.00  0.00    -0.297 OA
HETATM   23  O   UNK N   1      36.048  10.436  13.209  0.00  0.00    -0.311 OA
ENDROOT
BRANCH  15  24
HETATM   24  C   UNK N   1      36.457  12.640  12.420  0.00  0.00    -0.052 C 
HETATM   25  C   UNK N   1      37.550  12.789  11.407  0.00  0.00     0.046 C 
HETATM   26  C   UNK N   1      35.332  13.404  12.367  0.00  0.00     0.035 C 
BRANCH  26  27
HETATM   27  C   UNK N   1      35.049  14.490  11.405  0.00  0.00     0.039 A 
HETATM   28  C   UNK N   1      35.744  15.716  11.335  0.00  0.00     0.081 A 
HETATM   29  S   UNK N   1      34.966  16.579  10.152  0.00  0.00    -0.087 SA
HETATM   30  C   UNK N   1      33.823  15.462   9.761  0.00  0.00     0.047 A 
HETATM   31  C   UNK N   1      32.749  15.618   8.747  0.00  0.00     0.076 C 
HETATM   32  N   UNK N   1      33.988  14.365  10.531  0.00  0.00    -0.354 N 
ATOM     33  HN  UNK N   1      33.396  13.536  10.472  1.00  0.00     0.166 HD
ENDBRANCH  26  27
ENDBRANCH  15  24
BRANCH  16  34
HETATM   34  O   UNK N   1      37.427   6.123  13.201  0.00  0.00    -0.394 OA
HETATM   35  H   UNK N   1      37.253   5.174  13.098  0.00  0.00     0.210 HD
ENDBRANCH  16  34
BRANCH  18  36
HETATM   36  O   UNK N   1      34.351  10.324  16.518  0.00  0.00    -0.394 OA
HETATM   37  H   UNK N   1      34.932  10.635  15.807  0.00  0.00     0.210 HD
ENDBRANCH  18  36
TORSDOF 4
ENDMDL
MODEL 4
REMARK VINA RESULT:      -7.5      7.383     10.440
REMARK  4 active torsions:
REMARK  status: ('A' for Active; 'I' for Inactive)
REMARK    1  A    between atoms: C_21  and  C_13 
REMARK    2  A    between atoms: C_22  and  C_18 
REMARK    3  A    between atoms: C_23  and  O_30 
REMARK    4  A    between atoms: C_25  and  O_32 
ROOT
HETATM    1  C   UNK N   1      34.130   6.529  11.323  0.00  0.00     0.043 C 
HETATM    2  C   UNK N   1      33.112  10.070   6.515  0.00  0.00     0.012 C 
HETATM    3  C   UNK N   1      34.906  13.457   7.072  0.00  0.00     0.020 C 
HETATM    4  C   UNK N   1      37.989  13.243  10.402  0.00  0.00     0.026 C 
HETATM    5  C   UNK N   1      37.429  14.361   8.327  0.00  0.00     0.026 C 
HETATM    6  C   UNK N   1      33.130   8.485   8.933  0.00  0.00     0.005 C 
HETATM    7  C   UNK N   1      32.817   8.565  10.418  0.00  0.00     0.033 C 
HETATM    8  C   UNK N   1      34.370   9.311   8.548  0.00  0.00     0.007 C 
HETATM    9  C   UNK N   1      34.759   8.832  11.913  0.00  0.00    -0.022 C 
HETATM   10  C   UNK N   1      34.521  10.318  11.857  0.00  0.00     0.064 C 
HETATM   11  C   UNK N   1      35.274  14.636  11.606  0.00  0.00     0.144 C 
HETATM   12  C   UNK N   1      33.943   8.008  11.241  0.00  0.00    -0.087 C 
HETATM   13  C   UNK N   1      34.063  10.506   7.625  0.00  0.00     0.011 C 
HETATM   14  C   UNK N   1      34.546  12.966   8.470  0.00  0.00     0.081 C 
HETATM   15  C   UNK N   1      35.222  11.157  12.924  0.00  0.00     0.164 C 
HETATM   16  C   UNK N   1      36.152  14.991  10.388  0.00  0.00     0.142 C 
HETATM   17  C   UNK N   1      35.729  13.492  12.459  0.00  0.00     0.262 C 
HETATM   18  C   UNK N   1      33.532  11.788   8.348  0.00  0.00     0.132 C 
HETATM   19  C   UNK N   1      35.811  12.692   9.272  0.00  0.00     0.143 C 
HETATM   20  C   UNK N   1      36.812  13.810   9.606  0.00  0.00     0.040 C 
HETATM   21  O   UNK N   1      36.830  13.501  12.982  0.00  0.00    -0.265 OA
HETATM   22  O   UNK N   1      36.025  11.561   9.681  0.00  0.00    -0.297 OA
HETATM   23  O   UNK N   1      34.866  12.465  12.661  0.00  0.00    -0.311 OA
ENDROOT
BRANCH  15  24
HETATM   24  C   UNK N   1      34.855  10.806  14.362  0.00  0.00    -0.052 C 
HETATM   25  C   UNK N   1      33.393  10.792  14.690  0.00  0.00     0.046 C 
HETATM   26  C   UNK N   1      35.797  10.549  15.311  0.00  0.00     0.035 C 
BRANCH  26  27
HETATM   27  C   UNK N   1      35.555  10.299  16.748  0.00  0.00     0.039 A 
HETATM   28  C   UNK N   1      35.223   9.050  17.311  0.00  0.00     0.081 A 
HETATM   29  S   UNK N   1      34.985   9.361  18.923  0.00  0.00    -0.087 SA
HETATM   30  C   UNK N   1      35.283  10.978  18.896  0.00  0.00     0.047 A 
HETATM   31  C   UNK N   1      35.215  11.906  20.053  0.00  0.00     0.076 C 
HETATM   32  N   UNK N   1      35.582  11.357  17.634  0.00  0.00    -0.354 N 
ATOM     33  HN  UNK N   1      35.803  12.316  17.367  1.00  0.00     0.166 HD
ENDBRANCH  26  27
ENDBRANCH  15  24
BRANCH  16  34
HETATM   34  O   UNK N   1      37.124  15.913  10.786  0.00  0.00    -0.394 OA
HETATM   35  H   UNK N   1      37.955  15.655  11.216  0.00  0.00     0.210 HD
ENDBRANCH  16  34
BRANCH  18  36
HETATM   36  O   UNK N   1      32.993  11.482   9.601  0.00  0.00    -0.394 OA
HETATM   37  H   UNK N   1      32.541  10.642   9.776  0.00  0.00     0.210 HD
ENDBRANCH  18  36
TORSDOF 4
ENDMDL
MODEL 5
REMARK VINA RESULT:      -7.4      6.245      8.685
REMARK  4 active torsions:
REMARK  status: ('A' for Active; 'I' for Inactive)
REMARK    1  A    between atoms: C_21  and  C_13 
REMARK    2  A    between atoms: C_22  and  C_18 
REMARK    3  A    between atoms: C_23  and  O_30 
REMARK    4  A    between atoms: C_25  and  O_32 
ROOT
HETATM    1  C   UNK N   1      32.700   9.667   7.575  0.00  0.00     0.043 C 
HETATM    2  C   UNK N   1      35.299   5.762  11.408  0.00  0.00     0.012 C 
HETATM    3  C   UNK N   1      36.041   7.603  14.734  0.00  0.00     0.020 C 
HETATM    4  C   UNK N   1      33.771  11.523  15.074  0.00  0.00     0.026 C 
HETATM    5  C   UNK N   1      34.732   9.705  16.354  0.00  0.00     0.026 C 
HETATM    6  C   UNK N   1      34.499   7.632   9.352  0.00  0.00     0.005 C 
HETATM    7  C   UNK N   1      34.913   8.939   8.698  0.00  0.00     0.033 C 
HETATM    8  C   UNK N   1      34.011   7.827  10.799  0.00  0.00     0.007 C 
HETATM    9  C   UNK N   1      33.683  10.945   9.431  0.00  0.00    -0.022 C 
HETATM   10  C   UNK N   1      34.785  11.181  10.431  0.00  0.00     0.064 C 
HETATM   11  C   UNK N   1      36.851  12.197  14.169  0.00  0.00     0.144 C 
HETATM   12  C   UNK N   1      33.755   9.892   8.606  0.00  0.00    -0.087 C 
HETATM   13  C   UNK N   1      34.916   7.169  11.858  0.00  0.00     0.011 C 
HETATM   14  C   UNK N   1      36.131   8.679  13.658  0.00  0.00     0.081 C 
HETATM   15  C   UNK N   1      34.843  12.572  11.059  0.00  0.00     0.164 C 
HETATM   16  C   UNK N   1      36.287  11.403  15.366  0.00  0.00     0.142 C 
HETATM   17  C   UNK N   1      35.856  12.845  13.256  0.00  0.00     0.262 C 
HETATM   18  C   UNK N   1      36.183   7.994  12.259  0.00  0.00     0.132 C 
HETATM   19  C   UNK N   1      35.039   9.720  13.864  0.00  0.00     0.143 C 
HETATM   20  C   UNK N   1      34.976  10.584  15.134  0.00  0.00     0.040 C 
HETATM   21  O   UNK N   1      35.044  13.648  13.684  0.00  0.00    -0.265 OA
HETATM   22  O   UNK N   1      34.203   9.889  12.988  0.00  0.00    -0.297 OA
HETATM   23  O   UNK N   1      35.911  12.540  11.935  0.00  0.00    -0.311 OA
ENDROOT
BRANCH  15  24
HETATM   24  C   UNK N   1      35.029  13.718  10.069  0.00  0.00    -0.052 C 
HETATM   25  C   UNK N   1      36.339  13.763   9.344  0.00  0.00     0.046 C 
HETATM   26  C   UNK N   1      34.076  14.669   9.872  0.00  0.00     0.035 C 
BRANCH  26  27
HETATM   27  C   UNK N   1      34.193  15.870   9.017  0.00  0.00     0.039 A 
HETATM   28  C   UNK N   1      34.617  17.142   9.457  0.00  0.00     0.081 A 
HETATM   29  S   UNK N   1      34.479  18.120   8.125  0.00  0.00    -0.087 SA
HETATM   30  C   UNK N   1      33.916  16.994   7.066  0.00  0.00     0.047 A 
HETATM   31  C   UNK N   1      33.549  17.226   5.645  0.00  0.00     0.076 C 
HETATM   32  N   UNK N   1      33.806  15.804   7.695  0.00  0.00    -0.354 N 
ATOM     33  HN  UNK N   1      33.475  14.952   7.242  1.00  0.00     0.166 HD
ENDBRANCH  26  27
ENDBRANCH  15  24
BRANCH  16  34
HETATM   34  O   UNK N   1      36.131  12.271  16.450  0.00  0.00    -0.394 OA
HETATM   35  H   UNK N   1      36.546  13.147  16.493  0.00  0.00     0.210 HD
ENDBRANCH  16  34
BRANCH  18  36
HETATM   36  O   UNK N   1      36.516   8.929  11.274  0.00  0.00    -0.394 OA
HETATM   37  H   UNK N   1      37.400   8.965  10.875  0.00  0.00     0.210 HD
ENDBRANCH  18  36
TORSDOF 4
ENDMDL
MODEL 6
REMARK VINA RESULT:      -7.3      3.609      8.147
REMARK  4 active torsions:
REMARK  status: ('A' for Active; 'I' for Inactive)
REMARK    1  A    between atoms: C_21  and  C_13 
REMARK    2  A    between atoms: C_22  and  C_18 
REMARK    3  A    between atoms: C_23  and  O_30 
REMARK    4  A    between atoms: C_25  and  O_32 
ROOT
HETATM    1  C   UNK N   1      28.350  18.691   8.814  0.00  0.00     0.043 C 
HETATM    2  C   UNK N   1      25.344  18.566   3.557  0.00  0.00     0.012 C 
HETATM    3  C   UNK N   1      26.161  15.241   1.745  0.00  0.00     0.020 C 
HETATM    4  C   UNK N   1      28.045  12.184   4.527  0.00  0.00     0.026 C 
HETATM    5  C   UNK N   1      26.676  12.439   2.544  0.00  0.00     0.026 C 
HETATM    6  C   UNK N   1      27.079  18.948   5.839  0.00  0.00     0.005 C 
HETATM    7  C   UNK N   1      28.542  18.924   6.246  0.00  0.00     0.033 C 
HETATM    8  C   UNK N   1      26.535  17.545   5.514  0.00  0.00     0.007 C 
HETATM    9  C   UNK N   1      29.297  16.896   7.426  0.00  0.00    -0.022 C 
HETATM   10  C   UNK N   1      29.735  16.355   6.090  0.00  0.00     0.064 C 
HETATM   11  C   UNK N   1      30.435  13.576   2.764  0.00  0.00     0.144 C 
HETATM   12  C   UNK N   1      28.746  18.116   7.495  0.00  0.00    -0.087 C 
HETATM   13  C   UNK N   1      26.137  17.354   4.038  0.00  0.00     0.011 C 
HETATM   14  C   UNK N   1      27.406  15.561   2.564  0.00  0.00     0.081 C 
HETATM   15  C   UNK N   1      30.685  15.159   6.122  0.00  0.00     0.164 C 
HETATM   16  C   UNK N   1      29.138  12.857   2.339  0.00  0.00     0.142 C 
HETATM   17  C   UNK N   1      30.733  13.627   4.231  0.00  0.00     0.262 C 
HETATM   18  C   UNK N   1      27.320  17.035   3.064  0.00  0.00     0.132 C 
HETATM   19  C   UNK N   1      27.621  14.494   3.630  0.00  0.00     0.143 C 
HETATM   20  C   UNK N   1      27.886  13.026   3.260  0.00  0.00     0.040 C 
HETATM   21  O   UNK N   1      30.831  12.603   4.885  0.00  0.00    -0.265 OA
HETATM   22  O   UNK N   1      27.605  14.817   4.809  0.00  0.00    -0.297 OA
HETATM   23  O   UNK N   1      30.929  14.843   4.800  0.00  0.00    -0.311 OA
ENDROOT
BRANCH  15  24
HETATM   24  C   UNK N   1      32.007  15.407   6.841  0.00  0.00    -0.052 C 
HETATM   25  C   UNK N   1      32.870  16.499   6.286  0.00  0.00     0.046 C 
HETATM   26  C   UNK N   1      32.405  14.662   7.909  0.00  0.00     0.035 C 
BRANCH  26  27
HETATM   27  C   UNK N   1      33.703  14.751   8.611  0.00  0.00     0.039 A 
HETATM   28  C   UNK N   1      34.830  13.947   8.340  0.00  0.00     0.081 A 
HETATM   29  S   UNK N   1      35.960  14.407   9.463  0.00  0.00    -0.087 SA
HETATM   30  C   UNK N   1      35.067  15.551  10.238  0.00  0.00     0.047 A 
HETATM   31  C   UNK N   1      35.496  16.362  11.406  0.00  0.00     0.076 C 
HETATM   32  N   UNK N   1      33.847  15.631   9.664  0.00  0.00    -0.354 N 
ATOM     33  HN  UNK N   1      33.115  16.271   9.974  1.00  0.00     0.166 HD
ENDBRANCH  26  27
ENDBRANCH  15  24
BRANCH  16  34
HETATM   34  O   UNK N   1      29.417  11.501   2.144  0.00  0.00    -0.394 OA
HETATM   35  H   UNK N   1      29.642  11.125   1.279  0.00  0.00     0.210 HD
ENDBRANCH  16  34
BRANCH  18  36
HETATM   36  O   UNK N   1      28.546  17.437   3.601  0.00  0.00    -0.394 OA
HETATM   37  H   UNK N   1      28.605  17.985   4.399  0.00  0.00     0.210 HD
ENDBRANCH  18  36
TORSDOF 4
ENDMDL
MODEL 7
REMARK VINA RESULT:      -7.2      3.860      7.508
REMARK  4 active torsions:
REMARK  status: ('A' for Active; 'I' for Inactive)
REMARK    1  A    between atoms: C_21  and  C_13 
REMARK    2  A    between atoms: C_22  and  C_18 
REMARK    3  A    between atoms: C_23  and  O_30 
REMARK    4  A    between atoms: C_25  and  O_32 
ROOT
HETATM    1  C   UNK N   1      36.293  11.201   6.568  0.00  0.00     0.043 C 
HETATM    2  C   UNK N   1      35.293  16.216   9.815  0.00  0.00     0.012 C 
HETATM    3  C   UNK N   1      32.227  18.059   8.331  0.00  0.00     0.020 C 
HETATM    4  C   UNK N   1      29.801  15.403   5.556  0.00  0.00     0.026 C 
HETATM    5  C   UNK N   1      29.660  17.278   7.083  0.00  0.00     0.026 C 
HETATM    6  C   UNK N   1      36.150  14.074   8.072  0.00  0.00     0.005 C 
HETATM    7  C   UNK N   1      36.499  13.778   6.623  0.00  0.00     0.033 C 
HETATM    8  C   UNK N   1      34.649  14.346   8.272  0.00  0.00     0.007 C 
HETATM    9  C   UNK N   1      34.750  12.642   5.308  0.00  0.00    -0.022 C 
HETATM   10  C   UNK N   1      34.300  14.003   4.845  0.00  0.00     0.064 C 
HETATM   11  C   UNK N   1      31.693  17.351   3.716  0.00  0.00     0.144 C 
HETATM   12  C   UNK N   1      35.798  12.542   6.137  0.00  0.00    -0.087 C 
HETATM   13  C   UNK N   1      34.328  15.787   8.715  0.00  0.00     0.011 C 
HETATM   14  C   UNK N   1      32.864  17.338   7.149  0.00  0.00     0.081 C 
HETATM   15  C   UNK N   1      33.376  14.034   3.629  0.00  0.00     0.164 C 
HETATM   16  C   UNK N   1      30.666  17.671   4.822  0.00  0.00     0.142 C 
HETATM   17  C   UNK N   1      31.854  15.911   3.337  0.00  0.00     0.262 C 
HETATM   18  C   UNK N   1      34.284  16.844   7.562  0.00  0.00     0.132 C 
HETATM   19  C   UNK N   1      31.912  16.283   6.601  0.00  0.00     0.143 C 
HETATM   20  C   UNK N   1      30.545  16.660   6.008  0.00  0.00     0.040 C 
HETATM   21  O   UNK N   1      30.903  15.258   2.942  0.00  0.00    -0.265 OA
HETATM   22  O   UNK N   1      32.251  15.109   6.613  0.00  0.00    -0.297 OA
HETATM   23  O   UNK N   1      33.095  15.368   3.408  0.00  0.00    -0.311 OA
ENDROOT
BRANCH  15  24
HETATM   24  C   UNK N   1      33.960  13.418   2.361  0.00  0.00    -0.052 C 
HETATM   25  C   UNK N   1      35.359  13.825   2.010  0.00  0.00     0.046 C 
HETATM   26  C   UNK N   1      33.248  12.570   1.570  0.00  0.00     0.035 C 
BRANCH  26  27
HETATM   27  C   UNK N   1      33.680  12.001   0.275  0.00  0.00     0.039 A 
HETATM   28  C   UNK N   1      34.396  10.796   0.116  0.00  0.00     0.081 A 
HETATM   29  S   UNK N   1      34.686  10.687  -1.513  0.00  0.00    -0.087 SA
HETATM   30  C   UNK N   1      33.950  12.083  -1.976  0.00  0.00     0.047 A 
HETATM   31  C   UNK N   1      33.864  12.618  -3.359  0.00  0.00     0.076 C 
HETATM   32  N   UNK N   1      33.443  12.703  -0.889  0.00  0.00    -0.354 N 
ATOM     33  HN  UNK N   1      32.941  13.591  -0.924  1.00  0.00     0.166 HD
ENDBRANCH  26  27
ENDBRANCH  15  24
BRANCH  16  34
HETATM   34  O   UNK N   1      29.416  17.876   4.231  0.00  0.00    -0.394 OA
HETATM   35  H   UNK N   1      28.581  17.825   4.722  0.00  0.00     0.210 HD
ENDBRANCH  16  34
BRANCH  18  36
HETATM   36  O   UNK N   1      34.990  16.404   6.438  0.00  0.00    -0.394 OA
HETATM   37  H   UNK N   1      35.449  17.019   5.844  0.00  0.00     0.210 HD
ENDBRANCH  18  36
TORSDOF 4
ENDMDL
MODEL 8
REMARK VINA RESULT:      -6.9      7.043     10.168
REMARK  4 active torsions:
REMARK  status: ('A' for Active; 'I' for Inactive)
REMARK    1  A    between atoms: C_21  and  C_13 
REMARK    2  A    between atoms: C_22  and  C_18 
REMARK    3  A    between atoms: C_23  and  O_30 
REMARK    4  A    between atoms: C_25  and  O_32 
ROOT
HETATM    1  C   UNK N   1      36.712   8.136   8.534  0.00  0.00     0.043 C 
HETATM    2  C   UNK N   1      38.978   6.245  13.824  0.00  0.00     0.012 C 
HETATM    3  C   UNK N   1      37.493   8.430  16.657  0.00  0.00     0.020 C 
HETATM    4  C   UNK N   1      33.846  10.770  15.292  0.00  0.00     0.026 C 
HETATM    5  C   UNK N   1      34.896   9.735  17.214  0.00  0.00     0.026 C 
HETATM    6  C   UNK N   1      38.342   7.351  11.229  0.00  0.00     0.005 C 
HETATM    7  C   UNK N   1      38.383   8.649  10.440  0.00  0.00     0.033 C 
HETATM    8  C   UNK N   1      37.292   7.380  12.354  0.00  0.00     0.007 C 
HETATM    9  C   UNK N   1      36.241   9.850  10.233  0.00  0.00    -0.022 C 
HETATM   10  C   UNK N   1      36.646  10.657  11.439  0.00  0.00     0.064 C 
HETATM   11  C   UNK N   1      36.429  12.791  15.269  0.00  0.00     0.144 C 
HETATM   12  C   UNK N   1      37.071   8.912   9.757  0.00  0.00    -0.087 C 
HETATM   13  C   UNK N   1      37.892   7.315  13.772  0.00  0.00     0.011 C 
HETATM   14  C   UNK N   1      37.534   9.341  15.435  0.00  0.00     0.081 C 
HETATM   15  C   UNK N   1      35.857  11.939  11.693  0.00  0.00     0.164 C 
HETATM   16  C   UNK N   1      35.834  11.904  16.383  0.00  0.00     0.142 C 
HETATM   17  C   UNK N   1      35.702  12.813  13.960  0.00  0.00     0.262 C 
HETATM   18  C   UNK N   1      38.417   8.676  14.336  0.00  0.00     0.132 C 
HETATM   19  C   UNK N   1      36.120   9.733  15.024  0.00  0.00     0.143 C 
HETATM   20  C   UNK N   1      35.203  10.539  15.957  0.00  0.00     0.040 C 
HETATM   21  O   UNK N   1      34.531  13.148  13.899  0.00  0.00    -0.265 OA
HETATM   22  O   UNK N   1      35.712   9.417  13.916  0.00  0.00    -0.297 OA
HETATM   23  O   UNK N   1      36.396  12.487  12.841  0.00  0.00    -0.311 OA
ENDROOT
BRANCH  15  24
HETATM   24  C   UNK N   1      35.912  12.963  10.563  0.00  0.00    -0.052 C 
HETATM   25  C   UNK N   1      37.250  13.581  10.292  0.00  0.00     0.046 C 
HETATM   26  C   UNK N   1      34.808  13.325   9.855  0.00  0.00     0.035 C 
BRANCH  26  27
HETATM   27  C   UNK N   1      34.731  14.374   8.816  0.00  0.00     0.039 A 
HETATM   28  C   UNK N   1      34.895  14.159   7.431  0.00  0.00     0.081 A 
HETATM   29  S   UNK N   1      34.798  15.669   6.753  0.00  0.00    -0.087 SA
HETATM   30  C   UNK N   1      34.565  16.531   8.134  0.00  0.00     0.047 A 
HETATM   31  C   UNK N   1      34.418  18.006   8.239  0.00  0.00     0.076 C 
HETATM   32  N   UNK N   1      34.552  15.689   9.190  0.00  0.00    -0.354 N 
ATOM     33  HN  UNK N   1      34.425  15.993  10.156  1.00  0.00     0.166 HD
ENDBRANCH  26  27
ENDBRANCH  15  24
BRANCH  16  34
HETATM   34  O   UNK N   1      34.912  12.658  17.115  0.00  0.00    -0.394 OA
HETATM   35  H   UNK N   1      34.410  12.300  17.865  0.00  0.00     0.210 HD
ENDBRANCH  16  34
BRANCH  18  36
HETATM   36  O   UNK N   1      38.681   9.588  13.310  0.00  0.00    -0.394 OA
HETATM   37  H   UNK N   1      38.413  10.519  13.366  0.00  0.00     0.210 HD
ENDBRANCH  18  36
TORSDOF 4
ENDMDL
MODEL 9
REMARK VINA RESULT:      -6.8     10.649     14.348
REMARK  4 active torsions:
REMARK  status: ('A' for Active; 'I' for Inactive)
REMARK    1  A    between atoms: C_21  and  C_13 
REMARK    2  A    between atoms: C_22  and  C_18 
REMARK    3  A    between atoms: C_23  and  O_30 
REMARK    4  A    between atoms: C_25  and  O_32 
ROOT
HETATM    1  C   UNK N   1      39.314   7.066  18.731  0.00  0.00     0.043 C 
HETATM    2  C   UNK N   1      39.577   6.898  12.681  0.00  0.00     0.012 C 
HETATM    3  C   UNK N   1      37.613   9.926  11.274  0.00  0.00     0.020 C 
HETATM    4  C   UNK N   1      36.817  13.083  14.443  0.00  0.00     0.026 C 
HETATM    5  C   UNK N   1      37.162  12.740  12.070  0.00  0.00     0.026 C 
HETATM    6  C   UNK N   1      39.125   6.608  15.523  0.00  0.00     0.005 C 
HETATM    7  C   UNK N   1      38.014   6.545  16.556  0.00  0.00     0.033 C 
HETATM    8  C   UNK N   1      39.279   8.011  14.909  0.00  0.00     0.007 C 
HETATM    9  C   UNK N   1      37.622   8.612  17.841  0.00  0.00    -0.022 C 
HETATM   10  C   UNK N   1      36.562   8.967  16.831  0.00  0.00     0.064 C 
HETATM   11  C   UNK N   1      34.087  11.304  14.058  0.00  0.00     0.144 C 
HETATM   12  C   UNK N   1      38.295   7.460  17.713  0.00  0.00    -0.087 C 
HETATM   13  C   UNK N   1      38.939   8.079  13.408  0.00  0.00     0.011 C 
HETATM   14  C   UNK N   1      36.925   9.586  12.591  0.00  0.00     0.081 C 
HETATM   15  C   UNK N   1      35.586  10.071  17.233  0.00  0.00     0.164 C 
HETATM   16  C   UNK N   1      34.949  12.086  13.046  0.00  0.00     0.142 C 
HETATM   17  C   UNK N   1      34.493  11.383  15.498  0.00  0.00     0.262 C 
HETATM   18  C   UNK N   1      37.415   8.187  13.074  0.00  0.00     0.132 C 
HETATM   19  C   UNK N   1      37.080  10.737  13.578  0.00  0.00     0.143 C 
HETATM   20  C   UNK N   1      36.492  12.128  13.293  0.00  0.00     0.040 C 
HETATM   21  O   UNK N   1      34.572  12.458  16.067  0.00  0.00    -0.265 OA
HETATM   22  O   UNK N   1      37.668  10.543  14.631  0.00  0.00    -0.297 OA
HETATM   23  O   UNK N   1      34.732  10.222  16.157  0.00  0.00    -0.311 OA
ENDROOT
BRANCH  15  24
HETATM   24  C   UNK N   1      34.774   9.784  18.492  0.00  0.00    -0.052 C 
HETATM   25  C   UNK N   1      34.919  10.767  19.613  0.00  0.00     0.046 C 
HETATM   26  C   UNK N   1      33.984   8.682  18.613  0.00  0.00     0.035 C 
BRANCH  26  27
HETATM   27  C   UNK N   1      33.241   8.259  19.818  0.00  0.00     0.039 A 
HETATM   28  C   UNK N   1      31.869   8.492  20.051  0.00  0.00     0.081 A 
HETATM   29  S   UNK N   1      31.587   7.890  21.570  0.00  0.00    -0.087 SA
HETATM   30  C   UNK N   1      33.112   7.372  21.902  0.00  0.00     0.047 A 
HETATM   31  C   UNK N   1      33.571   6.731  23.162  0.00  0.00     0.076 C 
HETATM   32  N   UNK N   1      33.916   7.641  20.851  0.00  0.00    -0.354 N 
ATOM     33  HN  UNK N   1      34.910   7.413  20.824  1.00  0.00     0.166 HD
ENDBRANCH  26  27
ENDBRANCH  15  24
BRANCH  16  34
HETATM   34  O   UNK N   1      34.442  13.384  12.929  0.00  0.00    -0.394 OA
HETATM   35  H   UNK N   1      34.584  13.941  12.147  0.00  0.00     0.210 HD
ENDBRANCH  16  34
BRANCH  18  36
HETATM   36  O   UNK N   1      36.625   7.737  14.136  0.00  0.00    -0.394 OA
HETATM   37  H   UNK N   1      36.125   8.346  14.701  0.00  0.00     0.210 HD
ENDBRANCH  18  36
TORSDOF 4
ENDMDL
