REMARK  3 active torsions:
REMARK  status: ('A' for Active; 'I' for Inactive)
REMARK    1  A    between atoms: C_2  and  N_1 
REMARK    2  A    between atoms: C_5  and  C_2 
REMARK    3  A    between atoms: C_2  and  C_6 
REMARK       I    between atoms: N_10  and  C_5 
ROOT
HETATM    1  C   UNK N   1      -0.257  -0.665   0.000  0.00  0.00     0.178 C 
ENDROOT
BRANCH   1   2
HETATM    2  N   UNK N   1      -0.278   0.823  -0.000  0.00  0.00    -0.339 N 
HETATM    3  C   UNK N   1       0.761   1.691   0.000  0.00  0.00     0.220 A 
HETATM    4  C   UNK N   1       0.366   3.112   0.000  0.00  0.00     0.104 A 
HETATM    5  O   UNK N   1       1.932   1.366   0.000  0.00  0.00    -0.273 OA
HETATM    6  C   UNK N   1      -1.157   3.031   0.000  0.00  0.00     0.029 A 
HETATM    7  C   UNK N   1      -1.520   1.545  -0.000  0.00  0.00     0.127 A 
ENDBRANCH   1   2
BRANCH   1   8
HETATM    8  C   UNK N   1       0.990  -1.555   0.000  0.00  0.00     0.238 C 
HETATM    9  N   UNK N   1       2.239  -1.065  -0.000  0.00  0.00    -0.368 N 
HETATM   10  H   UNK N   1       3.008  -1.679  -0.000  0.00  0.00     0.159 HD
HETATM   11  H   UNK N   1       2.386  -0.092  -0.000  0.00  0.00     0.159 HD
HETATM   12  O   UNK N   1       0.846  -2.767   0.000  0.00  0.00    -0.271 OA
ENDBRANCH   1   8
BRANCH   1  13
HETATM   13  C   UNK N   1      -1.577  -1.493  -0.000  0.00  0.00     0.030 C 
HETATM   14  C   UNK N   1      -2.933  -0.806   0.000  0.00  0.00     0.007 C 
ENDBRANCH   1  13
TORSDOF 3
