MODEL 1
REMARK VINA RESULT:      -5.0      0.000      0.000
REMARK  7 active torsions:
REMARK  status: ('A' for Active; 'I' for Inactive)
REMARK    1  A    between atoms: C_2  and  N_1 
REMARK    2  A    between atoms: C_2  and  C_3 
REMARK    3  A    between atoms: C_2  and  C_11 
REMARK    4  A    between atoms: C_3  and  C_4 
REMARK    5  A    between atoms: C_4  and  N_5 
REMARK       I    between atoms: N_5  and  C_6 
REMARK       I    between atoms: C_6  and  N_9 
REMARK    6  A    between atoms: N_9  and  O_10 
REMARK    7  A    between atoms: C_11  and  O_12 
ROOT
HETATM    1  C   UNK N   1      20.114  18.225   3.237  0.00  0.00     0.140 C 
ENDROOT
BRANCH   1   2
HETATM    2  C   UNK N   1      20.748  16.920   2.761  0.00  0.00     0.056 C 
BRANCH   2   3
HETATM    3  C   UNK N   1      19.906  16.180   1.705  0.00  0.00     0.174 C 
BRANCH   3   4
HETATM    4  N   UNK N   1      19.389  14.878   2.091  0.00  0.00    -0.418 N 
HETATM    5  H   UNK N   1      20.002  14.062   2.080  0.00  0.00     0.150 HD
HETATM    6  H   UNK N   1      18.414  14.780   2.374  0.00  0.00     0.150 HD
ENDBRANCH   3   4
BRANCH   3   7
HETATM    7  C   UNK N   1      19.557  16.655   0.314  0.00  0.00     0.163 C 
HETATM    8  O   UNK N   1      20.373  17.257  -0.363  0.00  0.00    -0.648 OA
BRANCH   7   9
HETATM    9  O   UNK N   1      18.331  16.414  -0.190  0.00  0.00    -0.775 OA
HETATM   10  H   UNK N   1      18.234  15.865  -0.944  0.00  0.00     0.167 HD
ENDBRANCH   7   9
ENDBRANCH   3   7
ENDBRANCH   2   3
ENDBRANCH   1   2
BRANCH   1  11
HETATM   11  N   UNK N   1      19.810  19.218   2.216  0.00  0.00    -0.225 N 
HETATM   12  C   UNK N   1      20.461  20.457   1.943  0.00  0.00     0.691 C 
HETATM   13  N   UNK N   1      21.470  20.847   2.637  0.00  0.00    -0.233 N 
HETATM   14  N   UNK N   1      19.980  21.268   0.884  0.00  0.00    -0.099 N 
HETATM   15  H   UNK N   1      21.807  20.288   3.373  0.00  0.00     0.174 HD
ATOM     16  HN  UNK N   1      21.921  21.737   2.425  1.00  0.00     0.174 HD
HETATM   17  H   UNK N   1      19.206  20.963   0.356  0.00  0.00     0.213 HD
HETATM   18  H   UNK N   1      19.047  19.005   1.631  0.00  0.00     0.177 HD
BRANCH  14  19
HETATM   19  O   UNK N   1      20.557  22.439   0.589  0.00  0.00    -0.276 OA
HETATM   20  H   UNK N   1      21.137  22.513  -0.186  0.00  0.00     0.245 HD
ENDBRANCH  14  19
ENDBRANCH   1  11
TORSDOF 7
ENDMDL
MODEL 2
REMARK VINA RESULT:      -5.0     17.496     18.589
REMARK  7 active torsions:
REMARK  status: ('A' for Active; 'I' for Inactive)
REMARK    1  A    between atoms: C_2  and  N_1 
REMARK    2  A    between atoms: C_2  and  C_3 
REMARK    3  A    between atoms: C_2  and  C_11 
REMARK    4  A    between atoms: C_3  and  C_4 
REMARK    5  A    between atoms: C_4  and  N_5 
REMARK       I    between atoms: N_5  and  C_6 
REMARK       I    between atoms: C_6  and  N_9 
REMARK    6  A    between atoms: N_9  and  O_10 
REMARK    7  A    between atoms: C_11  and  O_12 
ROOT
HETATM    1  C   UNK N   1      34.786  15.158  10.686  0.00  0.00     0.140 C 
ENDROOT
BRANCH   1   2
HETATM    2  C   UNK N   1      35.280  16.526  10.222  0.00  0.00     0.056 C 
BRANCH   2   3
HETATM    3  C   UNK N   1      34.344  17.201   9.203  0.00  0.00     0.174 C 
BRANCH   3   4
HETATM    4  N   UNK N   1      32.959  16.761   9.212  0.00  0.00    -0.418 N 
HETATM    5  H   UNK N   1      32.641  16.092   9.913  0.00  0.00     0.150 HD
HETATM    6  H   UNK N   1      32.305  17.122   8.517  0.00  0.00     0.150 HD
ENDBRANCH   3   4
BRANCH   3   7
HETATM    7  C   UNK N   1      34.702  18.268   8.196  0.00  0.00     0.163 C 
HETATM    8  O   UNK N   1      35.309  19.270   8.537  0.00  0.00    -0.648 OA
BRANCH   7   9
HETATM    9  O   UNK N   1      34.351  18.119   6.904  0.00  0.00    -0.775 OA
HETATM   10  H   UNK N   1      34.013  17.298   6.602  0.00  0.00     0.167 HD
ENDBRANCH   7   9
ENDBRANCH   3   7
ENDBRANCH   2   3
ENDBRANCH   1   2
BRANCH   1  11
HETATM   11  N   UNK N   1      35.060  14.794  12.070  0.00  0.00    -0.225 N 
HETATM   12  C   UNK N   1      36.218  14.176  12.625  0.00  0.00     0.691 C 
HETATM   13  N   UNK N   1      37.220  13.853  11.888  0.00  0.00    -0.233 N 
HETATM   14  N   UNK N   1      36.257  13.917  14.019  0.00  0.00    -0.099 N 
HETATM   15  H   UNK N   1      37.197  14.031  10.921  0.00  0.00     0.174 HD
ATOM     16  HN  UNK N   1      38.039  13.412  12.306  1.00  0.00     0.174 HD
HETATM   17  H   UNK N   1      35.485  14.167  14.578  0.00  0.00     0.213 HD
HETATM   18  H   UNK N   1      34.344  15.005  12.712  0.00  0.00     0.177 HD
BRANCH  14  19
HETATM   19  O   UNK N   1      37.322  13.338  14.588  0.00  0.00    -0.276 OA
HETATM   20  H   UNK N   1      37.213  12.809  15.394  0.00  0.00     0.245 HD
ENDBRANCH  14  19
ENDBRANCH   1  11
TORSDOF 7
ENDMDL
MODEL 3
REMARK VINA RESULT:      -4.9     13.184     14.173
REMARK  7 active torsions:
REMARK  status: ('A' for Active; 'I' for Inactive)
REMARK    1  A    between atoms: C_2  and  N_1 
REMARK    2  A    between atoms: C_2  and  C_3 
REMARK    3  A    between atoms: C_2  and  C_11 
REMARK    4  A    between atoms: C_3  and  C_4 
REMARK    5  A    between atoms: C_4  and  N_5 
REMARK       I    between atoms: N_5  and  C_6 
REMARK       I    between atoms: C_6  and  N_9 
REMARK    6  A    between atoms: N_9  and  O_10 
REMARK    7  A    between atoms: C_11  and  O_12 
ROOT
HETATM    1  C   UNK N   1      31.850  17.534   7.644  0.00  0.00     0.140 C 
ENDROOT
BRANCH   1   2
HETATM    2  C   UNK N   1      30.489  16.851   7.535  0.00  0.00     0.056 C 
BRANCH   2   3
HETATM    3  C   UNK N   1      29.306  17.799   7.806  0.00  0.00     0.174 C 
BRANCH   3   4
HETATM    4  N   UNK N   1      28.608  18.307   6.637  0.00  0.00    -0.418 N 
HETATM    5  H   UNK N   1      27.716  18.790   6.745  0.00  0.00     0.150 HD
HETATM    6  H   UNK N   1      29.011  18.182   5.709  0.00  0.00     0.150 HD
ENDBRANCH   3   4
BRANCH   3   7
HETATM    7  C   UNK N   1      28.788  18.258   9.149  0.00  0.00     0.163 C 
HETATM    8  O   UNK N   1      29.553  18.685   9.999  0.00  0.00    -0.648 OA
BRANCH   7   9
HETATM    9  O   UNK N   1      27.470  18.199   9.417  0.00  0.00    -0.775 OA
HETATM   10  H   UNK N   1      27.150  18.464  10.258  0.00  0.00     0.167 HD
ENDBRANCH   7   9
ENDBRANCH   3   7
ENDBRANCH   2   3
ENDBRANCH   1   2
BRANCH   1  11
HETATM   11  N   UNK N   1      32.714  17.107   8.737  0.00  0.00    -0.225 N 
HETATM   12  C   UNK N   1      34.033  17.540   9.063  0.00  0.00     0.691 C 
HETATM   13  N   UNK N   1      34.637  18.428   8.357  0.00  0.00    -0.233 N 
HETATM   14  N   UNK N   1      34.683  16.973  10.188  0.00  0.00    -0.099 N 
HETATM   15  H   UNK N   1      34.189  18.824   7.575  0.00  0.00     0.174 HD
ATOM     16  HN  UNK N   1      35.580  18.723   8.608  1.00  0.00     0.174 HD
HETATM   17  H   UNK N   1      34.215  16.293  10.725  0.00  0.00     0.213 HD
HETATM   18  H   UNK N   1      32.334  16.424   9.335  0.00  0.00     0.177 HD
BRANCH  14  19
HETATM   19  O   UNK N   1      35.922  17.346  10.535  0.00  0.00    -0.276 OA
HETATM   20  H   UNK N   1      36.053  17.983  11.256  0.00  0.00     0.245 HD
ENDBRANCH  14  19
ENDBRANCH   1  11
TORSDOF 7
ENDMDL
MODEL 4
REMARK VINA RESULT:      -4.8      3.423      4.200
REMARK  7 active torsions:
REMARK  status: ('A' for Active; 'I' for Inactive)
REMARK    1  A    between atoms: C_2  and  N_1 
REMARK    2  A    between atoms: C_2  and  C_3 
REMARK    3  A    between atoms: C_2  and  C_11 
REMARK    4  A    between atoms: C_3  and  C_4 
REMARK    5  A    between atoms: C_4  and  N_5 
REMARK       I    between atoms: N_5  and  C_6 
REMARK       I    between atoms: C_6  and  N_9 
REMARK    6  A    between atoms: N_9  and  O_10 
REMARK    7  A    between atoms: C_11  and  O_12 
ROOT
HETATM    1  C   UNK N   1      20.419  18.179   3.151  0.00  0.00     0.140 C 
ENDROOT
BRANCH   1   2
HETATM    2  C   UNK N   1      21.823  17.734   3.549  0.00  0.00     0.056 C 
BRANCH   2   3
HETATM    3  C   UNK N   1      22.125  17.928   5.047  0.00  0.00     0.174 C 
BRANCH   3   4
HETATM    4  N   UNK N   1      23.482  18.325   5.383  0.00  0.00    -0.418 N 
HETATM    5  H   UNK N   1      23.651  18.951   6.171  0.00  0.00     0.150 HD
HETATM    6  H   UNK N   1      24.267  17.977   4.832  0.00  0.00     0.150 HD
ENDBRANCH   3   4
BRANCH   3   7
HETATM    7  C   UNK N   1      21.171  17.754   6.205  0.00  0.00     0.163 C 
HETATM    8  O   UNK N   1      20.564  16.707   6.361  0.00  0.00    -0.648 OA
BRANCH   7   9
HETATM    9  O   UNK N   1      20.982  18.761   7.078  0.00  0.00    -0.775 OA
HETATM   10  H   UNK N   1      21.719  19.232   7.417  0.00  0.00     0.167 HD
ENDBRANCH   7   9
ENDBRANCH   3   7
ENDBRANCH   2   3
ENDBRANCH   1   2
BRANCH   1  11
HETATM   11  N   UNK N   1      20.309  19.050   1.988  0.00  0.00    -0.225 N 
HETATM   12  C   UNK N   1      20.508  20.458   1.897  0.00  0.00     0.691 C 
HETATM   13  N   UNK N   1      20.831  21.154   2.928  0.00  0.00    -0.233 N 
HETATM   14  N   UNK N   1      20.343  21.096   0.641  0.00  0.00    -0.099 N 
HETATM   15  H   UNK N   1      20.947  20.716   3.802  0.00  0.00     0.174 HD
ATOM     16  HN  UNK N   1      20.968  22.161   2.841  1.00  0.00     0.174 HD
HETATM   17  H   UNK N   1      20.095  20.557  -0.145  0.00  0.00     0.213 HD
HETATM   18  H   UNK N   1      20.064  18.602   1.146  0.00  0.00     0.177 HD
BRANCH  14  19
HETATM   19  O   UNK N   1      20.518  22.416   0.505  0.00  0.00    -0.276 OA
HETATM   20  H   UNK N   1      21.254  22.858   0.959  0.00  0.00     0.245 HD
ENDBRANCH  14  19
ENDBRANCH   1  11
TORSDOF 7
ENDMDL
MODEL 5
REMARK VINA RESULT:      -4.8      3.424      5.159
REMARK  7 active torsions:
REMARK  status: ('A' for Active; 'I' for Inactive)
REMARK    1  A    between atoms: C_2  and  N_1 
REMARK    2  A    between atoms: C_2  and  C_3 
REMARK    3  A    between atoms: C_2  and  C_11 
REMARK    4  A    between atoms: C_3  and  C_4 
REMARK    5  A    between atoms: C_4  and  N_5 
REMARK       I    between atoms: N_5  and  C_6 
REMARK       I    between atoms: C_6  and  N_9 
REMARK    6  A    between atoms: N_9  and  O_10 
REMARK    7  A    between atoms: C_11  and  O_12 
ROOT
HETATM    1  C   UNK N   1      22.530  18.162   4.852  0.00  0.00     0.140 C 
ENDROOT
BRANCH   1   2
HETATM    2  C   UNK N   1      23.819  18.137   4.035  0.00  0.00     0.056 C 
BRANCH   2   3
HETATM    3  C   UNK N   1      24.483  19.520   3.896  0.00  0.00     0.174 C 
BRANCH   3   4
HETATM    4  N   UNK N   1      25.518  19.836   4.866  0.00  0.00    -0.418 N 
HETATM    5  H   UNK N   1      25.435  19.504   5.827  0.00  0.00     0.150 HD
HETATM    6  H   UNK N   1      26.327  20.389   4.586  0.00  0.00     0.150 HD
ENDBRANCH   3   4
BRANCH   3   7
HETATM    7  C   UNK N   1      24.180  20.583   2.867  0.00  0.00     0.163 C 
HETATM    8  O   UNK N   1      24.979  20.839   1.981  0.00  0.00    -0.648 OA
BRANCH   7   9
HETATM    9  O   UNK N   1      23.017  21.260   2.922  0.00  0.00    -0.775 OA
HETATM   10  H   UNK N   1      22.204  20.794   2.942  0.00  0.00     0.167 HD
ENDBRANCH   7   9
ENDBRANCH   3   7
ENDBRANCH   2   3
ENDBRANCH   1   2
BRANCH   1  11
HETATM   11  N   UNK N   1      21.305  17.784   4.160  0.00  0.00    -0.225 N 
HETATM   12  C   UNK N   1      20.338  18.615   3.522  0.00  0.00     0.691 C 
HETATM   13  N   UNK N   1      20.471  19.893   3.496  0.00  0.00    -0.233 N 
HETATM   14  N   UNK N   1      19.213  18.011   2.906  0.00  0.00    -0.099 N 
HETATM   15  H   UNK N   1      21.250  20.316   3.922  0.00  0.00     0.174 HD
ATOM     16  HN  UNK N   1      19.767  20.469   3.034  1.00  0.00     0.174 HD
HETATM   17  H   UNK N   1      19.117  17.031   2.929  0.00  0.00     0.213 HD
HETATM   18  H   UNK N   1      21.118  16.817   4.128  0.00  0.00     0.177 HD
BRANCH  14  19
HETATM   19  O   UNK N   1      18.277  18.749   2.294  0.00  0.00    -0.276 OA
HETATM   20  H   UNK N   1      18.515  19.600   1.895  0.00  0.00     0.245 HD
ENDBRANCH  14  19
ENDBRANCH   1  11
TORSDOF 7
ENDMDL
MODEL 6
REMARK VINA RESULT:      -4.7     13.737     14.741
REMARK  7 active torsions:
REMARK  status: ('A' for Active; 'I' for Inactive)
REMARK    1  A    between atoms: C_2  and  N_1 
REMARK    2  A    between atoms: C_2  and  C_3 
REMARK    3  A    between atoms: C_2  and  C_11 
REMARK    4  A    between atoms: C_3  and  C_4 
REMARK    5  A    between atoms: C_4  and  N_5 
REMARK       I    between atoms: N_5  and  C_6 
REMARK       I    between atoms: C_6  and  N_9 
REMARK    6  A    between atoms: N_9  and  O_10 
REMARK    7  A    between atoms: C_11  and  O_12 
ROOT
HETATM    1  C   UNK N   1      32.362  17.485   7.978  0.00  0.00     0.140 C 
ENDROOT
BRANCH   1   2
HETATM    2  C   UNK N   1      33.773  17.723   8.511  0.00  0.00     0.056 C 
BRANCH   2   3
HETATM    3  C   UNK N   1      34.181  16.740   9.624  0.00  0.00     0.174 C 
BRANCH   3   4
HETATM    4  N   UNK N   1      35.155  17.228  10.586  0.00  0.00    -0.418 N 
HETATM    5  H   UNK N   1      36.047  17.603  10.264  0.00  0.00     0.150 HD
HETATM    6  H   UNK N   1      34.946  17.194  11.584  0.00  0.00     0.150 HD
ENDBRANCH   3   4
BRANCH   3   7
HETATM    7  C   UNK N   1      33.685  15.328   9.827  0.00  0.00     0.163 C 
HETATM    8  O   UNK N   1      33.911  14.462   8.999  0.00  0.00    -0.648 OA
BRANCH   7   9
HETATM    9  O   UNK N   1      32.985  15.016  10.934  0.00  0.00    -0.775 OA
HETATM   10  H   UNK N   1      32.251  14.434  10.876  0.00  0.00     0.167 HD
ENDBRANCH   7   9
ENDBRANCH   3   7
ENDBRANCH   2   3
ENDBRANCH   1   2
BRANCH   1  11
HETATM   11  N   UNK N   1      31.258  17.863   8.850  0.00  0.00    -0.225 N 
HETATM   12  C   UNK N   1      29.855  17.808   8.601  0.00  0.00     0.691 C 
HETATM   13  N   UNK N   1      29.393  17.380   7.480  0.00  0.00    -0.233 N 
HETATM   14  N   UNK N   1      28.960  18.236   9.613  0.00  0.00    -0.099 N 
HETATM   15  H   UNK N   1      30.011  17.082   6.775  0.00  0.00     0.174 HD
ATOM     16  HN  UNK N   1      28.386  17.349   7.323  1.00  0.00     0.174 HD
HETATM   17  H   UNK N   1      29.321  18.563  10.470  0.00  0.00     0.213 HD
HETATM   18  H   UNK N   1      31.516  18.206   9.737  0.00  0.00     0.177 HD
BRANCH  14  19
HETATM   19  O   UNK N   1      27.634  18.204   9.427  0.00  0.00    -0.276 OA
HETATM   20  H   UNK N   1      27.227  18.757   8.742  0.00  0.00     0.245 HD
ENDBRANCH  14  19
ENDBRANCH   1  11
TORSDOF 7
ENDMDL
MODEL 7
REMARK VINA RESULT:      -4.7     15.270     16.340
REMARK  7 active torsions:
REMARK  status: ('A' for Active; 'I' for Inactive)
REMARK    1  A    between atoms: C_2  and  N_1 
REMARK    2  A    between atoms: C_2  and  C_3 
REMARK    3  A    between atoms: C_2  and  C_11 
REMARK    4  A    between atoms: C_3  and  C_4 
REMARK    5  A    between atoms: C_4  and  N_5 
REMARK       I    between atoms: N_5  and  C_6 
REMARK       I    between atoms: C_6  and  N_9 
REMARK    6  A    between atoms: N_9  and  O_10 
REMARK    7  A    between atoms: C_11  and  O_12 
ROOT
HETATM    1  C   UNK N   1      32.586  15.113   9.053  0.00  0.00     0.140 C 
ENDROOT
BRANCH   1   2
HETATM    2  C   UNK N   1      32.275  15.790   7.721  0.00  0.00     0.056 C 
BRANCH   2   3
HETATM    3  C   UNK N   1      32.672  17.278   7.683  0.00  0.00     0.174 C 
BRANCH   3   4
HETATM    4  N   UNK N   1      31.777  18.199   8.365  0.00  0.00    -0.418 N 
HETATM    5  H   UNK N   1      30.827  17.909   8.597  0.00  0.00     0.150 HD
HETATM    6  H   UNK N   1      32.100  19.135   8.610  0.00  0.00     0.150 HD
ENDBRANCH   3   4
BRANCH   3   7
HETATM    7  C   UNK N   1      33.883  17.887   7.019  0.00  0.00     0.163 C 
HETATM    8  O   UNK N   1      34.039  17.808   5.812  0.00  0.00    -0.648 OA
BRANCH   7   9
HETATM    9  O   UNK N   1      34.807  18.527   7.762  0.00  0.00    -0.775 OA
HETATM   10  H   UNK N   1      35.059  18.181   8.596  0.00  0.00     0.167 HD
ENDBRANCH   7   9
ENDBRANCH   3   7
ENDBRANCH   2   3
ENDBRANCH   1   2
BRANCH   1  11
HETATM   11  N   UNK N   1      33.991  14.877   9.359  0.00  0.00    -0.225 N 
HETATM   12  C   UNK N   1      34.921  15.724  10.029  0.00  0.00     0.691 C 
HETATM   13  N   UNK N   1      34.574  16.882  10.466  0.00  0.00    -0.233 N 
HETATM   14  N   UNK N   1      36.252  15.273  10.213  0.00  0.00    -0.099 N 
HETATM   15  H   UNK N   1      33.651  17.199  10.340  0.00  0.00     0.174 HD
ATOM     16  HN  UNK N   1      35.255  17.472  10.943  1.00  0.00     0.174 HD
HETATM   17  H   UNK N   1      36.512  14.384   9.876  0.00  0.00     0.213 HD
HETATM   18  H   UNK N   1      34.349  14.009   9.061  0.00  0.00     0.177 HD
BRANCH  14  19
HETATM   19  O   UNK N   1      37.163  16.032  10.836  0.00  0.00    -0.276 OA
HETATM   20  H   UNK N   1      38.073  16.069  10.503  0.00  0.00     0.245 HD
ENDBRANCH  14  19
ENDBRANCH   1  11
TORSDOF 7
ENDMDL
MODEL 8
REMARK VINA RESULT:      -4.7     14.677     15.634
REMARK  7 active torsions:
REMARK  status: ('A' for Active; 'I' for Inactive)
REMARK    1  A    between atoms: C_2  and  N_1 
REMARK    2  A    between atoms: C_2  and  C_3 
REMARK    3  A    between atoms: C_2  and  C_11 
REMARK    4  A    between atoms: C_3  and  C_4 
REMARK    5  A    between atoms: C_4  and  N_5 
REMARK       I    between atoms: N_5  and  C_6 
REMARK       I    between atoms: C_6  and  N_9 
REMARK    6  A    between atoms: N_9  and  O_10 
REMARK    7  A    between atoms: C_11  and  O_12 
ROOT
HETATM    1  C   UNK N   1      33.043  16.806   8.025  0.00  0.00     0.140 C 
ENDROOT
BRANCH   1   2
HETATM    2  C   UNK N   1      33.724  15.555   8.572  0.00  0.00     0.056 C 
BRANCH   2   3
HETATM    3  C   UNK N   1      34.356  15.759   9.962  0.00  0.00     0.174 C 
BRANCH   3   4
HETATM    4  N   UNK N   1      33.724  15.055  11.065  0.00  0.00    -0.418 N 
HETATM    5  H   UNK N   1      33.875  14.053  11.184  0.00  0.00     0.150 HD
HETATM    6  H   UNK N   1      33.130  15.562  11.721  0.00  0.00     0.150 HD
ENDBRANCH   3   4
BRANCH   3   7
HETATM    7  C   UNK N   1      35.556  16.609  10.308  0.00  0.00     0.163 C 
HETATM    8  O   UNK N   1      35.546  17.813  10.110  0.00  0.00    -0.648 OA
BRANCH   7   9
HETATM    9  O   UNK N   1      36.653  16.037  10.841  0.00  0.00    -0.775 OA
HETATM   10  H   UNK N   1      36.817  16.107  11.761  0.00  0.00     0.167 HD
ENDBRANCH   7   9
ENDBRANCH   3   7
ENDBRANCH   2   3
ENDBRANCH   1   2
BRANCH   1  11
HETATM   11  N   UNK N   1      32.104  17.483   8.910  0.00  0.00    -0.225 N 
HETATM   12  C   UNK N   1      30.704  17.692   8.745  0.00  0.00     0.691 C 
HETATM   13  N   UNK N   1      30.083  17.261   7.705  0.00  0.00    -0.233 N 
HETATM   14  N   UNK N   1      29.990  18.388   9.753  0.00  0.00    -0.099 N 
HETATM   15  H   UNK N   1      30.574  16.777   7.004  0.00  0.00     0.174 HD
ATOM     16  HN  UNK N   1      29.080  17.421   7.608  1.00  0.00     0.174 HD
HETATM   17  H   UNK N   1      30.471  18.715  10.548  0.00  0.00     0.213 HD
HETATM   18  H   UNK N   1      32.491  17.849   9.738  0.00  0.00     0.177 HD
BRANCH  14  19
HETATM   19  O   UNK N   1      28.673  18.608   9.645  0.00  0.00    -0.276 OA
HETATM   20  H   UNK N   1      28.101  18.520  10.424  0.00  0.00     0.245 HD
ENDBRANCH  14  19
ENDBRANCH   1  11
TORSDOF 7
ENDMDL
MODEL 9
REMARK VINA RESULT:      -4.7     11.850     12.857
REMARK  7 active torsions:
REMARK  status: ('A' for Active; 'I' for Inactive)
REMARK    1  A    between atoms: C_2  and  N_1 
REMARK    2  A    between atoms: C_2  and  C_3 
REMARK    3  A    between atoms: C_2  and  C_11 
REMARK    4  A    between atoms: C_3  and  C_4 
REMARK    5  A    between atoms: C_4  and  N_5 
REMARK       I    between atoms: N_5  and  C_6 
REMARK       I    between atoms: C_6  and  N_9 
REMARK    6  A    between atoms: N_9  and  O_10 
REMARK    7  A    between atoms: C_11  and  O_12 
ROOT
HETATM    1  C   UNK N   1      30.010  17.196   7.449  0.00  0.00     0.140 C 
ENDROOT
BRANCH   1   2
HETATM    2  C   UNK N   1      31.344  17.157   6.709  0.00  0.00     0.056 C 
BRANCH   2   3
HETATM    3  C   UNK N   1      32.564  17.298   7.638  0.00  0.00     0.174 C 
BRANCH   3   4
HETATM    4  N   UNK N   1      32.324  17.067   9.053  0.00  0.00    -0.418 N 
HETATM    5  H   UNK N   1      31.944  17.814   9.635  0.00  0.00     0.150 HD
HETATM    6  H   UNK N   1      32.535  16.158   9.464  0.00  0.00     0.150 HD
ENDBRANCH   3   4
BRANCH   3   7
HETATM    7  C   UNK N   1      33.980  17.650   7.247  0.00  0.00     0.163 C 
HETATM    8  O   UNK N   1      34.540  17.060   6.337  0.00  0.00    -0.648 OA
BRANCH   7   9
HETATM    9  O   UNK N   1      34.637  18.623   7.905  0.00  0.00    -0.775 OA
HETATM   10  H   UNK N   1      34.538  18.711   8.833  0.00  0.00     0.167 HD
ENDBRANCH   7   9
ENDBRANCH   3   7
ENDBRANCH   2   3
ENDBRANCH   1   2
BRANCH   1  11
HETATM   11  N   UNK N   1      29.088  18.264   7.086  0.00  0.00    -0.225 N 
HETATM   12  C   UNK N   1      28.079  18.889   7.876  0.00  0.00     0.691 C 
HETATM   13  N   UNK N   1      27.871  18.535   9.095  0.00  0.00    -0.233 N 
HETATM   14  N   UNK N   1      27.295  19.920   7.300  0.00  0.00    -0.099 N 
HETATM   15  H   UNK N   1      28.413  17.820   9.499  0.00  0.00     0.174 HD
ATOM     16  HN  UNK N   1      27.145  18.996   9.642  1.00  0.00     0.174 HD
HETATM   17  H   UNK N   1      27.459  20.186   6.366  0.00  0.00     0.213 HD
HETATM   18  H   UNK N   1      29.173  18.602   6.165  0.00  0.00     0.177 HD
BRANCH  14  19
HETATM   19  O   UNK N   1      26.336  20.538   8.001  0.00  0.00    -0.276 OA
HETATM   20  H   UNK N   1      25.504  20.077   8.194  0.00  0.00     0.245 HD
ENDBRANCH  14  19
ENDBRANCH   1  11
TORSDOF 7
ENDMDL
