MODEL 1
REMARK VINA RESULT:      -3.7      0.000      0.000
REMARK  5 active torsions:
REMARK  status: ('A' for Active; 'I' for Inactive)
REMARK    1  A    between atoms: N_1  and  C_2 
REMARK    2  A    between atoms: C_2  and  C_3 
REMARK    3  A    between atoms: C_3  and  C_4 
REMARK    4  A    between atoms: C_4  and  C_5 
REMARK    5  A    between atoms: C_5  and  O_6 
ROOT
HETATM    1  C   UNK N   1      19.804  19.443   2.695  0.00  0.00     0.029 C 
ENDROOT
BRANCH   1   2
HETATM    2  C   UNK N   1      20.147  18.009   2.360  0.00  0.00     0.111 C 
BRANCH   2   3
HETATM    3  N   UNK N   1      19.386  17.609   1.190  0.00  0.00    -0.430 N 
HETATM    4  H   UNK N   1      18.948  18.316   0.601  0.00  0.00     0.149 HD
HETATM    5  H   UNK N   1      19.290  16.621   0.958  0.00  0.00     0.149 HD
ENDBRANCH   2   3
ENDBRANCH   1   2
BRANCH   1   6
HETATM    6  C   UNK N   1      20.950  20.375   2.336  0.00  0.00     0.111 C 
BRANCH   6   7
HETATM    7  C   UNK N   1      20.767  20.972   0.969  0.00  0.00     0.139 C 
HETATM    8  O   UNK N   1      20.871  20.283  -0.036  0.00  0.00    -0.650 OA
BRANCH   7   9
HETATM    9  O   UNK N   1      20.485  22.281   0.848  0.00  0.00    -0.776 OA
HETATM   10  H   UNK N   1      19.635  22.552   0.558  0.00  0.00     0.167 HD
ENDBRANCH   7   9
ENDBRANCH   6   7
ENDBRANCH   1   6
TORSDOF 5
ENDMDL
MODEL 2
REMARK VINA RESULT:      -3.4     12.067     12.828
REMARK  5 active torsions:
REMARK  status: ('A' for Active; 'I' for Inactive)
REMARK    1  A    between atoms: N_1  and  C_2 
REMARK    2  A    between atoms: C_2  and  C_3 
REMARK    3  A    between atoms: C_3  and  C_4 
REMARK    4  A    between atoms: C_4  and  C_5 
REMARK    5  A    between atoms: C_5  and  O_6 
ROOT
HETATM    1  C   UNK N   1      22.733  13.073  10.132  0.00  0.00     0.029 C 
ENDROOT
BRANCH   1   2
HETATM    2  C   UNK N   1      21.397  13.731   9.873  0.00  0.00     0.111 C 
BRANCH   2   3
HETATM    3  N   UNK N   1      20.370  13.006  10.601  0.00  0.00    -0.430 N 
HETATM    4  H   UNK N   1      19.672  12.464  10.092  0.00  0.00     0.149 HD
HETATM    5  H   UNK N   1      20.349  13.038  11.620  0.00  0.00     0.149 HD
ENDBRANCH   2   3
ENDBRANCH   1   2
BRANCH   1   6
HETATM    6  C   UNK N   1      22.620  12.019  11.222  0.00  0.00     0.111 C 
BRANCH   6   7
HETATM    7  C   UNK N   1      23.770  12.098  12.185  0.00  0.00     0.139 C 
HETATM    8  O   UNK N   1      23.584  12.031  13.392  0.00  0.00    -0.650 OA
BRANCH   7   9
HETATM    9  O   UNK N   1      25.022  12.244  11.715  0.00  0.00    -0.776 OA
HETATM   10  H   UNK N   1      25.624  11.526  11.756  0.00  0.00     0.167 HD
ENDBRANCH   7   9
ENDBRANCH   6   7
ENDBRANCH   1   6
TORSDOF 5
ENDMDL
MODEL 3
REMARK VINA RESULT:      -3.4     11.813     12.556
REMARK  5 active torsions:
REMARK  status: ('A' for Active; 'I' for Inactive)
REMARK    1  A    between atoms: N_1  and  C_2 
REMARK    2  A    between atoms: C_2  and  C_3 
REMARK    3  A    between atoms: C_3  and  C_4 
REMARK    4  A    between atoms: C_4  and  C_5 
REMARK    5  A    between atoms: C_5  and  O_6 
ROOT
HETATM    1  C   UNK N   1      23.035  11.762  10.271  0.00  0.00     0.029 C 
ENDROOT
BRANCH   1   2
HETATM    2  C   UNK N   1      24.183  11.985  11.228  0.00  0.00     0.111 C 
BRANCH   2   3
HETATM    3  N   UNK N   1      23.646  12.173  12.564  0.00  0.00    -0.430 N 
HETATM    4  H   UNK N   1      24.278  12.336  13.348  0.00  0.00     0.149 HD
HETATM    5  H   UNK N   1      22.639  12.142  12.718  0.00  0.00     0.149 HD
ENDBRANCH   2   3
ENDBRANCH   1   2
BRANCH   1   6
HETATM    6  C   UNK N   1      22.135  12.985  10.205  0.00  0.00     0.111 C 
BRANCH   6   7
HETATM    7  C   UNK N   1      20.769  12.695  10.760  0.00  0.00     0.139 C 
HETATM    8  O   UNK N   1      19.771  13.205  10.270  0.00  0.00    -0.650 OA
BRANCH   7   9
HETATM    9  O   UNK N   1      20.641  11.863  11.809  0.00  0.00    -0.776 OA
HETATM   10  H   UNK N   1      20.782  10.943  11.697  0.00  0.00     0.167 HD
ENDBRANCH   7   9
ENDBRANCH   6   7
ENDBRANCH   1   6
TORSDOF 5
ENDMDL
MODEL 4
REMARK VINA RESULT:      -3.4     14.962     15.240
REMARK  5 active torsions:
REMARK  status: ('A' for Active; 'I' for Inactive)
REMARK    1  A    between atoms: N_1  and  C_2 
REMARK    2  A    between atoms: C_2  and  C_3 
REMARK    3  A    between atoms: C_3  and  C_4 
REMARK    4  A    between atoms: C_4  and  C_5 
REMARK    5  A    between atoms: C_5  and  O_6 
ROOT
HETATM    1  C   UNK N   1      32.572  16.497   8.231  0.00  0.00     0.029 C 
ENDROOT
BRANCH   1   2
HETATM    2  C   UNK N   1      33.274  15.613   9.236  0.00  0.00     0.111 C 
BRANCH   2   3
HETATM    3  N   UNK N   1      32.288  15.087  10.164  0.00  0.00    -0.430 N 
HETATM    4  H   UNK N   1      31.863  14.177   9.993  0.00  0.00     0.149 HD
HETATM    5  H   UNK N   1      32.022  15.629  10.986  0.00  0.00     0.149 HD
ENDBRANCH   2   3
ENDBRANCH   1   2
BRANCH   1   6
HETATM    6  C   UNK N   1      32.913  17.961   8.461  0.00  0.00     0.111 C 
BRANCH   6   7
HETATM    7  C   UNK N   1      34.225  18.327   7.828  0.00  0.00     0.139 C 
HETATM    8  O   UNK N   1      35.017  19.059   8.404  0.00  0.00    -0.650 OA
BRANCH   7   9
HETATM    9  O   UNK N   1      34.534  17.844   6.611  0.00  0.00    -0.776 OA
HETATM   10  H   UNK N   1      35.138  17.132   6.530  0.00  0.00     0.167 HD
ENDBRANCH   7   9
ENDBRANCH   6   7
ENDBRANCH   1   6
TORSDOF 5
ENDMDL
MODEL 5
REMARK VINA RESULT:      -3.4     14.357     14.674
REMARK  5 active torsions:
REMARK  status: ('A' for Active; 'I' for Inactive)
REMARK    1  A    between atoms: N_1  and  C_2 
REMARK    2  A    between atoms: C_2  and  C_3 
REMARK    3  A    between atoms: C_3  and  C_4 
REMARK    4  A    between atoms: C_4  and  C_5 
REMARK    5  A    between atoms: C_5  and  O_6 
ROOT
HETATM    1  C   UNK N   1      32.356  16.785   7.925  0.00  0.00     0.029 C 
ENDROOT
BRANCH   1   2
HETATM    2  C   UNK N   1      31.065  17.568   8.003  0.00  0.00     0.111 C 
BRANCH   2   3
HETATM    3  N   UNK N   1      30.768  17.838   9.398  0.00  0.00    -0.430 N 
HETATM    4  H   UNK N   1      31.152  18.668   9.849  0.00  0.00     0.149 HD
HETATM    5  H   UNK N   1      30.175  17.198   9.926  0.00  0.00     0.149 HD
ENDBRANCH   2   3
ENDBRANCH   1   2
BRANCH   1   6
HETATM    6  C   UNK N   1      33.444  17.443   8.758  0.00  0.00     0.111 C 
BRANCH   6   7
HETATM    7  C   UNK N   1      34.378  18.252   7.904  0.00  0.00     0.139 C 
HETATM    8  O   UNK N   1      35.060  19.143   8.391  0.00  0.00    -0.650 OA
BRANCH   7   9
HETATM    9  O   UNK N   1      34.467  17.995   6.587  0.00  0.00    -0.776 OA
HETATM   10  H   UNK N   1      34.624  17.120   6.290  0.00  0.00     0.167 HD
ENDBRANCH   7   9
ENDBRANCH   6   7
ENDBRANCH   1   6
TORSDOF 5
ENDMDL
MODEL 6
REMARK VINA RESULT:      -3.3     10.900     11.523
REMARK  5 active torsions:
REMARK  status: ('A' for Active; 'I' for Inactive)
REMARK    1  A    between atoms: N_1  and  C_2 
REMARK    2  A    between atoms: C_2  and  C_3 
REMARK    3  A    between atoms: C_3  and  C_4 
REMARK    4  A    between atoms: C_4  and  C_5 
REMARK    5  A    between atoms: C_5  and  O_6 
ROOT
HETATM    1  C   UNK N   1      30.515  21.150  -3.656  0.00  0.00     0.029 C 
ENDROOT
BRANCH   1   2
HETATM    2  C   UNK N   1      32.002  21.296  -3.883  0.00  0.00     0.111 C 
BRANCH   2   3
HETATM    3  N   UNK N   1      32.687  21.122  -2.614  0.00  0.00    -0.430 N 
HETATM    4  H   UNK N   1      32.563  21.810  -1.871  0.00  0.00     0.149 HD
HETATM    5  H   UNK N   1      33.290  20.314  -2.467  0.00  0.00     0.149 HD
ENDBRANCH   2   3
ENDBRANCH   1   2
BRANCH   1   6
HETATM    6  C   UNK N   1      29.840  22.509  -3.568  0.00  0.00     0.111 C 
BRANCH   6   7
HETATM    7  C   UNK N   1      29.538  22.884  -2.145  0.00  0.00     0.139 C 
HETATM    8  O   UNK N   1      30.440  23.051  -1.335  0.00  0.00    -0.650 OA
BRANCH   7   9
HETATM    9  O   UNK N   1      28.260  23.037  -1.754  0.00  0.00    -0.776 OA
HETATM   10  H   UNK N   1      27.872  23.890  -1.749  0.00  0.00     0.167 HD
ENDBRANCH   7   9
ENDBRANCH   6   7
ENDBRANCH   1   6
TORSDOF 5
ENDMDL
MODEL 7
REMARK VINA RESULT:      -3.3     19.046     19.300
REMARK  5 active torsions:
REMARK  status: ('A' for Active; 'I' for Inactive)
REMARK    1  A    between atoms: N_1  and  C_2 
REMARK    2  A    between atoms: C_2  and  C_3 
REMARK    3  A    between atoms: C_3  and  C_4 
REMARK    4  A    between atoms: C_4  and  C_5 
REMARK    5  A    between atoms: C_5  and  O_6 
ROOT
HETATM    1  C   UNK N   1      35.485  14.262  12.525  0.00  0.00     0.029 C 
ENDROOT
BRANCH   1   2
HETATM    2  C   UNK N   1      36.180  12.981  12.122  0.00  0.00     0.111 C 
BRANCH   2   3
HETATM    3  N   UNK N   1      37.585  13.266  11.890  0.00  0.00    -0.430 N 
HETATM    4  H   UNK N   1      38.150  12.622  11.336  0.00  0.00     0.149 HD
HETATM    5  H   UNK N   1      38.006  14.108  12.280  0.00  0.00     0.149 HD
ENDBRANCH   2   3
ENDBRANCH   1   2
BRANCH   1   6
HETATM    6  C   UNK N   1      34.917  14.979  11.311  0.00  0.00     0.111 C 
BRANCH   6   7
HETATM    7  C   UNK N   1      35.736  16.186  10.951  0.00  0.00     0.139 C 
HETATM    8  O   UNK N   1      35.204  17.268  10.747  0.00  0.00    -0.650 OA
BRANCH   7   9
HETATM    9  O   UNK N   1      37.073  16.077  10.852  0.00  0.00    -0.776 OA
HETATM   10  H   UNK N   1      37.615  16.832  10.972  0.00  0.00     0.167 HD
ENDBRANCH   7   9
ENDBRANCH   6   7
ENDBRANCH   1   6
TORSDOF 5
ENDMDL
MODEL 8
REMARK VINA RESULT:      -3.3     11.966     12.428
REMARK  5 active torsions:
REMARK  status: ('A' for Active; 'I' for Inactive)
REMARK    1  A    between atoms: N_1  and  C_2 
REMARK    2  A    between atoms: C_2  and  C_3 
REMARK    3  A    between atoms: C_3  and  C_4 
REMARK    4  A    between atoms: C_4  and  C_5 
REMARK    5  A    between atoms: C_5  and  O_6 
ROOT
HETATM    1  C   UNK N   1      30.448  21.094  -4.525  0.00  0.00     0.029 C 
ENDROOT
BRANCH   1   2
HETATM    2  C   UNK N   1      31.558  20.378  -5.260  0.00  0.00     0.111 C 
BRANCH   2   3
HETATM    3  N   UNK N   1      32.220  19.473  -4.337  0.00  0.00    -0.430 N 
HETATM    4  H   UNK N   1      31.917  19.426  -3.365  0.00  0.00     0.149 HD
HETATM    5  H   UNK N   1      32.988  18.886  -4.662  0.00  0.00     0.149 HD
ENDBRANCH   2   3
ENDBRANCH   1   2
BRANCH   1   6
HETATM    6  C   UNK N   1      30.928  22.430  -3.980  0.00  0.00     0.111 C 
BRANCH   6   7
HETATM    7  C   UNK N   1      31.252  22.343  -2.516  0.00  0.00     0.139 C 
HETATM    8  O   UNK N   1      30.652  23.027  -1.699  0.00  0.00    -0.650 OA
BRANCH   7   9
HETATM    9  O   UNK N   1      32.215  21.502  -2.097  0.00  0.00    -0.776 OA
HETATM   10  H   UNK N   1      32.770  21.077  -2.721  0.00  0.00     0.167 HD
ENDBRANCH   7   9
ENDBRANCH   6   7
ENDBRANCH   1   6
TORSDOF 5
ENDMDL
MODEL 9
REMARK VINA RESULT:      -3.2     17.096     17.375
REMARK  5 active torsions:
REMARK  status: ('A' for Active; 'I' for Inactive)
REMARK    1  A    between atoms: N_1  and  C_2 
REMARK    2  A    between atoms: C_2  and  C_3 
REMARK    3  A    between atoms: C_3  and  C_4 
REMARK    4  A    between atoms: C_4  and  C_5 
REMARK    5  A    between atoms: C_5  and  O_6 
ROOT
HETATM    1  C   UNK N   1      34.268  14.689   9.572  0.00  0.00     0.029 C 
ENDROOT
BRANCH   1   2
HETATM    2  C   UNK N   1      32.828  14.952   9.198  0.00  0.00     0.111 C 
BRANCH   2   3
HETATM    3  N   UNK N   1      32.061  15.164  10.413  0.00  0.00    -0.430 N 
HETATM    4  H   UNK N   1      32.344  15.887  11.074  0.00  0.00     0.149 HD
HETATM    5  H   UNK N   1      31.241  14.590  10.604  0.00  0.00     0.149 HD
ENDBRANCH   2   3
ENDBRANCH   1   2
BRANCH   1   6
HETATM    6  C   UNK N   1      34.626  15.377  10.880  0.00  0.00     0.111 C 
BRANCH   6   7
HETATM    7  C   UNK N   1      35.722  16.387  10.689  0.00  0.00     0.139 C 
HETATM    8  O   UNK N   1      35.469  17.525  10.320  0.00  0.00    -0.650 OA
BRANCH   7   9
HETATM    9  O   UNK N   1      36.999  16.036  10.927  0.00  0.00    -0.776 OA
HETATM   10  H   UNK N   1      37.461  16.414  11.649  0.00  0.00     0.167 HD
ENDBRANCH   7   9
ENDBRANCH   6   7
ENDBRANCH   1   6
TORSDOF 5
ENDMDL
