MODEL 1
REMARK VINA RESULT:      -6.0      0.000      0.000
REMARK  9 active torsions:
REMARK  status: ('A' for Active; 'I' for Inactive)
REMARK    1  A    between atoms: O_3  and  N_5 
REMARK       I    between atoms: N_4  and  C_12 
REMARK    2  A    between atoms: N_4  and  C_14 
REMARK       I    between atoms: N_5  and  C_13 
REMARK    3  A    between atoms: C_6  and  C_7 
REMARK    4  A    between atoms: C_6  and  C_8 
REMARK    5  A    between atoms: C_7  and  C_9 
REMARK    6  A    between atoms: C_8  and  C_10 
REMARK    7  A    between atoms: C_9  and  C_11 
REMARK    8  A    between atoms: C_10  and  C_12 
REMARK    9  A    between atoms: C_11  and  C_13 
ROOT
HETATM    1  C   UNK N   1      28.430  22.463  -7.594  0.00  0.00     0.009 C 
ENDROOT
BRANCH   1   2
HETATM    2  C   UNK N   1      29.268  21.565  -6.709  0.00  0.00     0.000 C 
BRANCH   2   3
HETATM    3  C   UNK N   1      30.448  22.325  -6.128  0.00  0.00     0.000 C 
BRANCH   3   4
HETATM    4  C   UNK N   1      30.025  23.108  -4.898  0.00  0.00     0.009 C 
BRANCH   4   5
HETATM    5  C   UNK N   1      29.766  22.168  -3.723  0.00  0.00     0.105 C 
BRANCH   5   6
HETATM    6  C   UNK N   1      30.888  22.135  -2.721  0.00  0.00     0.240 C 
HETATM    7  O   UNK N   1      30.928  22.933  -1.797  0.00  0.00    -0.271 OA
HETATM    8  N   UNK N   1      31.853  21.198  -2.849  0.00  0.00    -0.237 N 
HETATM    9  H   UNK N   1      31.814  20.559  -3.597  0.00  0.00     0.197 HD
BRANCH   8  10
HETATM   10  O   UNK N   1      32.864  21.131  -1.971  0.00  0.00    -0.287 OA
HETATM   11  H   UNK N   1      33.153  21.780  -1.311  0.00  0.00     0.244 HD
ENDBRANCH   8  10
ENDBRANCH   5   6
ENDBRANCH   4   5
ENDBRANCH   3   4
ENDBRANCH   2   3
ENDBRANCH   1   2
BRANCH   1  12
HETATM   12  C   UNK N   1      26.945  22.182  -7.404  0.00  0.00     0.103 C 
BRANCH  12  13
HETATM   13  C   UNK N   1      26.270  23.188  -6.519  0.00  0.00     0.222 C 
HETATM   14  O   UNK N   1      25.154  22.968  -6.069  0.00  0.00    -0.273 OA
HETATM   15  N   UNK N   1      26.899  24.370  -6.289  0.00  0.00    -0.327 N 
HETATM   16  H   UNK N   1      27.798  24.480  -6.675  0.00  0.00     0.169 HD
BRANCH  15  17
HETATM   17  C   UNK N   1      26.378  25.467  -5.545  0.00  0.00     0.034 A 
HETATM   18  C   UNK N   1      25.466  26.384  -6.096  0.00  0.00     0.029 A 
HETATM   19  C   UNK N   1      25.019  27.475  -5.345  0.00  0.00     0.002 A 
HETATM   20  C   UNK N   1      25.486  27.662  -4.042  0.00  0.00     0.000 A 
HETATM   21  C   UNK N   1      26.390  26.752  -3.486  0.00  0.00     0.002 A 
HETATM   22  C   UNK N   1      26.831  25.659  -4.235  0.00  0.00     0.029 A 
ENDBRANCH  15  17
ENDBRANCH  12  13
ENDBRANCH   1  12
TORSDOF 9
ENDMDL
MODEL 2
REMARK VINA RESULT:      -5.9     10.430     12.768
REMARK  9 active torsions:
REMARK  status: ('A' for Active; 'I' for Inactive)
REMARK    1  A    between atoms: O_3  and  N_5 
REMARK       I    between atoms: N_4  and  C_12 
REMARK    2  A    between atoms: N_4  and  C_14 
REMARK       I    between atoms: N_5  and  C_13 
REMARK    3  A    between atoms: C_6  and  C_7 
REMARK    4  A    between atoms: C_6  and  C_8 
REMARK    5  A    between atoms: C_7  and  C_9 
REMARK    6  A    between atoms: C_8  and  C_10 
REMARK    7  A    between atoms: C_9  and  C_11 
REMARK    8  A    between atoms: C_10  and  C_12 
REMARK    9  A    between atoms: C_11  and  C_13 
ROOT
HETATM    1  C   UNK N   1      29.183  17.029   6.696  0.00  0.00     0.009 C 
ENDROOT
BRANCH   1   2
HETATM    2  C   UNK N   1      30.694  16.957   6.762  0.00  0.00     0.000 C 
BRANCH   2   3
HETATM    3  C   UNK N   1      31.202  17.459   8.102  0.00  0.00     0.000 C 
BRANCH   3   4
HETATM    4  C   UNK N   1      32.207  16.484   8.691  0.00  0.00     0.009 C 
BRANCH   4   5
HETATM    5  C   UNK N   1      33.405  16.316   7.759  0.00  0.00     0.105 C 
BRANCH   5   6
HETATM    6  C   UNK N   1      34.207  17.576   7.577  0.00  0.00     0.240 C 
HETATM    7  O   UNK N   1      34.422  18.028   6.463  0.00  0.00    -0.271 OA
HETATM    8  N   UNK N   1      34.680  18.214   8.670  0.00  0.00    -0.237 N 
HETATM    9  H   UNK N   1      34.503  17.843   9.565  0.00  0.00     0.197 HD
BRANCH   8  10
HETATM   10  O   UNK N   1      35.391  19.344   8.550  0.00  0.00    -0.287 OA
HETATM   11  H   UNK N   1      36.281  19.479   8.188  0.00  0.00     0.244 HD
ENDBRANCH   8  10
ENDBRANCH   5   6
ENDBRANCH   4   5
ENDBRANCH   3   4
ENDBRANCH   2   3
ENDBRANCH   1   2
BRANCH   1  12
HETATM   12  C   UNK N   1      28.665  18.262   7.424  0.00  0.00     0.103 C 
BRANCH  12  13
HETATM   13  C   UNK N   1      27.754  19.101   6.576  0.00  0.00     0.222 C 
HETATM   14  O   UNK N   1      27.374  20.195   6.968  0.00  0.00    -0.273 OA
HETATM   15  N   UNK N   1      27.310  18.583   5.401  0.00  0.00    -0.327 N 
HETATM   16  H   UNK N   1      27.660  17.701   5.141  0.00  0.00     0.169 HD
BRANCH  15  17
HETATM   17  C   UNK N   1      26.385  19.198   4.510  0.00  0.00     0.034 A 
HETATM   18  C   UNK N   1      26.778  20.164   3.567  0.00  0.00     0.029 A 
HETATM   19  C   UNK N   1      25.828  20.779   2.746  0.00  0.00     0.002 A 
HETATM   20  C   UNK N   1      24.479  20.439   2.867  0.00  0.00     0.000 A 
HETATM   21  C   UNK N   1      24.081  19.477   3.799  0.00  0.00     0.002 A 
HETATM   22  C   UNK N   1      25.032  18.858   4.614  0.00  0.00     0.029 A 
ENDBRANCH  15  17
ENDBRANCH  12  13
ENDBRANCH   1  12
TORSDOF 9
ENDMDL
MODEL 3
REMARK VINA RESULT:      -5.9     10.682     13.682
REMARK  9 active torsions:
REMARK  status: ('A' for Active; 'I' for Inactive)
REMARK    1  A    between atoms: O_3  and  N_5 
REMARK       I    between atoms: N_4  and  C_12 
REMARK    2  A    between atoms: N_4  and  C_14 
REMARK       I    between atoms: N_5  and  C_13 
REMARK    3  A    between atoms: C_6  and  C_7 
REMARK    4  A    between atoms: C_6  and  C_8 
REMARK    5  A    between atoms: C_7  and  C_9 
REMARK    6  A    between atoms: C_8  and  C_10 
REMARK    7  A    between atoms: C_9  and  C_11 
REMARK    8  A    between atoms: C_10  and  C_12 
REMARK    9  A    between atoms: C_11  and  C_13 
ROOT
HETATM    1  C   UNK N   1      24.864  18.655   4.922  0.00  0.00     0.009 C 
ENDROOT
BRANCH   1   2
HETATM    2  C   UNK N   1      23.730  18.755   3.924  0.00  0.00     0.000 C 
BRANCH   2   3
HETATM    3  C   UNK N   1      22.401  18.421   4.579  0.00  0.00     0.000 C 
BRANCH   3   4
HETATM    4  C   UNK N   1      21.296  18.355   3.539  0.00  0.00     0.009 C 
BRANCH   4   5
HETATM    5  C   UNK N   1      20.568  19.693   3.440  0.00  0.00     0.105 C 
BRANCH   5   6
HETATM    6  C   UNK N   1      20.990  20.521   2.257  0.00  0.00     0.240 C 
HETATM    7  O   UNK N   1      21.815  21.413   2.378  0.00  0.00    -0.271 OA
HETATM    8  N   UNK N   1      20.451  20.257   1.047  0.00  0.00    -0.237 N 
HETATM    9  H   UNK N   1      19.787  19.535   0.957  0.00  0.00     0.197 HD
BRANCH   8  10
HETATM   10  O   UNK N   1      20.809  20.966  -0.033  0.00  0.00    -0.287 OA
HETATM   11  H   UNK N   1      21.275  20.679  -0.834  0.00  0.00     0.244 HD
ENDBRANCH   8  10
ENDBRANCH   5   6
ENDBRANCH   4   5
ENDBRANCH   3   4
ENDBRANCH   2   3
ENDBRANCH   1   2
BRANCH   1  12
HETATM   12  C   UNK N   1      25.755  19.889   4.860  0.00  0.00     0.103 C 
BRANCH  12  13
HETATM   13  C   UNK N   1      26.976  19.770   5.723  0.00  0.00     0.222 C 
HETATM   14  O   UNK N   1      27.841  20.635   5.697  0.00  0.00    -0.273 OA
HETATM   15  N   UNK N   1      27.126  18.650   6.478  0.00  0.00    -0.327 N 
HETATM   16  H   UNK N   1      26.389  17.997   6.459  0.00  0.00     0.169 HD
BRANCH  15  17
HETATM   17  C   UNK N   1      28.250  18.331   7.293  0.00  0.00     0.034 A 
HETATM   18  C   UNK N   1      28.342  18.735   8.636  0.00  0.00     0.029 A 
HETATM   19  C   UNK N   1      29.486  18.444   9.385  0.00  0.00     0.002 A 
HETATM   20  C   UNK N   1      30.548  17.755   8.795  0.00  0.00     0.000 A 
HETATM   21  C   UNK N   1      30.462  17.347   7.461  0.00  0.00     0.002 A 
HETATM   22  C   UNK N   1      29.315  17.633   6.716  0.00  0.00     0.029 A 
ENDBRANCH  15  17
ENDBRANCH  12  13
ENDBRANCH   1  12
TORSDOF 9
ENDMDL
MODEL 4
REMARK VINA RESULT:      -5.8     15.144     16.902
REMARK  9 active torsions:
REMARK  status: ('A' for Active; 'I' for Inactive)
REMARK    1  A    between atoms: O_3  and  N_5 
REMARK       I    between atoms: N_4  and  C_12 
REMARK    2  A    between atoms: N_4  and  C_14 
REMARK       I    between atoms: N_5  and  C_13 
REMARK    3  A    between atoms: C_6  and  C_7 
REMARK    4  A    between atoms: C_6  and  C_8 
REMARK    5  A    between atoms: C_7  and  C_9 
REMARK    6  A    between atoms: C_8  and  C_10 
REMARK    7  A    between atoms: C_9  and  C_11 
REMARK    8  A    between atoms: C_10  and  C_12 
REMARK    9  A    between atoms: C_11  and  C_13 
ROOT
HETATM    1  C   UNK N   1      19.111  15.969   5.482  0.00  0.00     0.009 C 
ENDROOT
BRANCH   1   2
HETATM    2  C   UNK N   1      20.007  15.874   4.265  0.00  0.00     0.000 C 
BRANCH   2   3
HETATM    3  C   UNK N   1      20.950  17.063   4.193  0.00  0.00     0.000 C 
BRANCH   3   4
HETATM    4  C   UNK N   1      20.744  17.829   2.898  0.00  0.00     0.009 C 
BRANCH   4   5
HETATM    5  C   UNK N   1      20.415  19.292   3.183  0.00  0.00     0.105 C 
BRANCH   5   6
HETATM    6  C   UNK N   1      20.905  20.237   2.120  0.00  0.00     0.240 C 
HETATM    7  O   UNK N   1      21.758  21.075   2.370  0.00  0.00    -0.271 OA
HETATM    8  N   UNK N   1      20.395  20.141   0.873  0.00  0.00    -0.237 N 
HETATM    9  H   UNK N   1      19.707  19.463   0.679  0.00  0.00     0.197 HD
BRANCH   8  10
HETATM   10  O   UNK N   1      20.813  20.959  -0.103  0.00  0.00    -0.287 OA
HETATM   11  H   UNK N   1      20.557  20.987  -1.038  0.00  0.00     0.244 HD
ENDBRANCH   8  10
ENDBRANCH   5   6
ENDBRANCH   4   5
ENDBRANCH   3   4
ENDBRANCH   2   3
ENDBRANCH   1   2
BRANCH   1  12
HETATM   12  C   UNK N   1      19.927  16.241   6.739  0.00  0.00     0.103 C 
BRANCH  12  13
HETATM   13  C   UNK N   1      20.337  14.985   7.451  0.00  0.00     0.222 C 
HETATM   14  O   UNK N   1      20.079  13.889   6.973  0.00  0.00    -0.273 OA
HETATM   15  N   UNK N   1      20.935  15.099   8.665  0.00  0.00    -0.327 N 
HETATM   16  H   UNK N   1      21.121  16.010   8.989  0.00  0.00     0.169 HD
BRANCH  15  17
HETATM   17  C   UNK N   1      21.319  14.023   9.516  0.00  0.00     0.034 A 
HETATM   18  C   UNK N   1      20.398  13.352  10.340  0.00  0.00     0.029 A 
HETATM   19  C   UNK N   1      20.828  12.334  11.197  0.00  0.00     0.002 A 
HETATM   20  C   UNK N   1      22.179  11.985  11.242  0.00  0.00     0.000 A 
HETATM   21  C   UNK N   1      23.100  12.644  10.422  0.00  0.00     0.002 A 
HETATM   22  C   UNK N   1      22.668  13.657   9.561  0.00  0.00     0.029 A 
ENDBRANCH  15  17
ENDBRANCH  12  13
ENDBRANCH   1  12
TORSDOF 9
ENDMDL
MODEL 5
REMARK VINA RESULT:      -5.7     11.184     13.824
REMARK  9 active torsions:
REMARK  status: ('A' for Active; 'I' for Inactive)
REMARK    1  A    between atoms: O_3  and  N_5 
REMARK       I    between atoms: N_4  and  C_12 
REMARK    2  A    between atoms: N_4  and  C_14 
REMARK       I    between atoms: N_5  and  C_13 
REMARK    3  A    between atoms: C_6  and  C_7 
REMARK    4  A    between atoms: C_6  and  C_8 
REMARK    5  A    between atoms: C_7  and  C_9 
REMARK    6  A    between atoms: C_8  and  C_10 
REMARK    7  A    between atoms: C_9  and  C_11 
REMARK    8  A    between atoms: C_10  and  C_12 
REMARK    9  A    between atoms: C_11  and  C_13 
ROOT
HETATM    1  C   UNK N   1      29.931  18.724   9.439  0.00  0.00     0.009 C 
ENDROOT
BRANCH   1   2
HETATM    2  C   UNK N   1      31.312  18.407   8.905  0.00  0.00     0.000 C 
BRANCH   2   3
HETATM    3  C   UNK N   1      31.287  17.152   8.049  0.00  0.00     0.000 C 
BRANCH   3   4
HETATM    4  C   UNK N   1      32.698  16.726   7.686  0.00  0.00     0.009 C 
BRANCH   4   5
HETATM    5  C   UNK N   1      33.573  17.944   7.399  0.00  0.00     0.105 C 
BRANCH   5   6
HETATM    6  C   UNK N   1      34.612  18.200   8.457  0.00  0.00     0.240 C 
HETATM    7  O   UNK N   1      35.279  19.223   8.446  0.00  0.00    -0.271 OA
HETATM    8  N   UNK N   1      34.792  17.284   9.433  0.00  0.00    -0.237 N 
HETATM    9  H   UNK N   1      34.250  16.462   9.434  0.00  0.00     0.197 HD
BRANCH   8  10
HETATM   10  O   UNK N   1      35.701  17.481  10.398  0.00  0.00    -0.287 OA
HETATM   11  H   UNK N   1      36.563  17.056  10.531  0.00  0.00     0.244 HD
ENDBRANCH   8  10
ENDBRANCH   5   6
ENDBRANCH   4   5
ENDBRANCH   3   4
ENDBRANCH   2   3
ENDBRANCH   1   2
BRANCH   1  12
HETATM   12  C   UNK N   1      28.954  17.599   9.124  0.00  0.00     0.103 C 
BRANCH  12  13
HETATM   13  C   UNK N   1      28.168  17.844   7.869  0.00  0.00     0.222 C 
HETATM   14  O   UNK N   1      27.568  16.928   7.324  0.00  0.00    -0.273 OA
HETATM   15  N   UNK N   1      28.198  19.088   7.322  0.00  0.00    -0.327 N 
HETATM   16  H   UNK N   1      28.693  19.781   7.816  0.00  0.00     0.169 HD
BRANCH  15  17
HETATM   17  C   UNK N   1      27.581  19.482   6.100  0.00  0.00     0.034 A 
HETATM   18  C   UNK N   1      28.021  19.011   4.851  0.00  0.00     0.029 A 
HETATM   19  C   UNK N   1      27.419  19.464   3.673  0.00  0.00     0.002 A 
HETATM   20  C   UNK N   1      26.380  20.395   3.735  0.00  0.00     0.000 A 
HETATM   21  C   UNK N   1      25.935  20.865   4.974  0.00  0.00     0.002 A 
HETATM   22  C   UNK N   1      26.533  20.407   6.151  0.00  0.00     0.029 A 
ENDBRANCH  15  17
ENDBRANCH  12  13
ENDBRANCH   1  12
TORSDOF 9
ENDMDL
MODEL 6
REMARK VINA RESULT:      -5.6      2.508      5.027
REMARK  9 active torsions:
REMARK  status: ('A' for Active; 'I' for Inactive)
REMARK    1  A    between atoms: O_3  and  N_5 
REMARK       I    between atoms: N_4  and  C_12 
REMARK    2  A    between atoms: N_4  and  C_14 
REMARK       I    between atoms: N_5  and  C_13 
REMARK    3  A    between atoms: C_6  and  C_7 
REMARK    4  A    between atoms: C_6  and  C_8 
REMARK    5  A    between atoms: C_7  and  C_9 
REMARK    6  A    between atoms: C_8  and  C_10 
REMARK    7  A    between atoms: C_9  and  C_11 
REMARK    8  A    between atoms: C_10  and  C_12 
REMARK    9  A    between atoms: C_11  and  C_13 
ROOT
HETATM    1  C   UNK N   1      30.008  23.137  -4.409  0.00  0.00     0.009 C 
ENDROOT
BRANCH   1   2
HETATM    2  C   UNK N   1      29.338  22.138  -5.329  0.00  0.00     0.000 C 
BRANCH   2   3
HETATM    3  C   UNK N   1      28.997  22.775  -6.664  0.00  0.00     0.000 C 
BRANCH   3   4
HETATM    4  C   UNK N   1      27.581  22.416  -7.080  0.00  0.00     0.009 C 
BRANCH   4   5
HETATM    5  C   UNK N   1      26.988  23.506  -7.970  0.00  0.00     0.105 C 
BRANCH   5   6
HETATM    6  C   UNK N   1      25.561  23.244  -8.371  0.00  0.00     0.240 C 
HETATM    7  O   UNK N   1      25.049  23.851  -9.299  0.00  0.00    -0.271 OA
HETATM    8  N   UNK N   1      24.852  22.314  -7.696  0.00  0.00    -0.237 N 
HETATM    9  H   UNK N   1      25.272  21.829  -6.949  0.00  0.00     0.197 HD
BRANCH   8  10
HETATM   10  O   UNK N   1      23.581  22.046  -8.030  0.00  0.00    -0.287 OA
HETATM   11  H   UNK N   1      23.121  22.187  -8.872  0.00  0.00     0.244 HD
ENDBRANCH   8  10
ENDBRANCH   5   6
ENDBRANCH   4   5
ENDBRANCH   3   4
ENDBRANCH   2   3
ENDBRANCH   1   2
BRANCH   1  12
HETATM   12  C   UNK N   1      29.250  23.259  -3.094  0.00  0.00     0.103 C 
BRANCH  12  13
HETATM   13  C   UNK N   1      28.011  24.097  -3.210  0.00  0.00     0.222 C 
HETATM   14  O   UNK N   1      26.996  23.792  -2.600  0.00  0.00    -0.273 OA
HETATM   15  N   UNK N   1      28.028  25.158  -4.059  0.00  0.00    -0.327 N 
HETATM   16  H   UNK N   1      28.880  25.353  -4.513  0.00  0.00     0.169 HD
BRANCH  15  17
HETATM   17  C   UNK N   1      26.928  26.013  -4.356  0.00  0.00     0.034 A 
HETATM   18  C   UNK N   1      26.086  25.798  -5.460  0.00  0.00     0.029 A 
HETATM   19  C   UNK N   1      25.048  26.692  -5.743  0.00  0.00     0.002 A 
HETATM   20  C   UNK N   1      24.851  27.809  -4.929  0.00  0.00     0.000 A 
HETATM   21  C   UNK N   1      25.682  28.028  -3.827  0.00  0.00     0.002 A 
HETATM   22  C   UNK N   1      26.714  27.130  -3.542  0.00  0.00     0.029 A 
ENDBRANCH  15  17
ENDBRANCH  12  13
ENDBRANCH   1  12
TORSDOF 9
ENDMDL
MODEL 7
REMARK VINA RESULT:      -5.5     18.398     22.495
REMARK  9 active torsions:
REMARK  status: ('A' for Active; 'I' for Inactive)
REMARK    1  A    between atoms: O_3  and  N_5 
REMARK       I    between atoms: N_4  and  C_12 
REMARK    2  A    between atoms: N_4  and  C_14 
REMARK       I    between atoms: N_5  and  C_13 
REMARK    3  A    between atoms: C_6  and  C_7 
REMARK    4  A    between atoms: C_6  and  C_8 
REMARK    5  A    between atoms: C_7  and  C_9 
REMARK    6  A    between atoms: C_8  and  C_10 
REMARK    7  A    between atoms: C_9  and  C_11 
REMARK    8  A    between atoms: C_10  and  C_12 
REMARK    9  A    between atoms: C_11  and  C_13 
ROOT
HETATM    1  C   UNK N   1      35.949  14.781  12.760  0.00  0.00     0.009 C 
ENDROOT
BRANCH   1   2
HETATM    2  C   UNK N   1      35.887  15.309  11.342  0.00  0.00     0.000 C 
BRANCH   2   3
HETATM    3  C   UNK N   1      34.564  14.952  10.689  0.00  0.00     0.000 C 
BRANCH   3   4
HETATM    4  C   UNK N   1      34.444  15.616   9.328  0.00  0.00     0.009 C 
BRANCH   4   5
HETATM    5  C   UNK N   1      34.209  17.117   9.480  0.00  0.00     0.105 C 
BRANCH   5   6
HETATM    6  C   UNK N   1      34.412  17.889   8.205  0.00  0.00     0.240 C 
HETATM    7  O   UNK N   1      34.984  18.968   8.209  0.00  0.00    -0.271 OA
HETATM    8  N   UNK N   1      33.960  17.366   7.044  0.00  0.00    -0.237 N 
HETATM    9  H   UNK N   1      33.499  16.496   7.049  0.00  0.00     0.197 HD
BRANCH   8  10
HETATM   10  O   UNK N   1      34.130  18.020   5.886  0.00  0.00    -0.287 OA
HETATM   11  H   UNK N   1      33.785  17.813   5.003  0.00  0.00     0.244 HD
ENDBRANCH   8  10
ENDBRANCH   5   6
ENDBRANCH   4   5
ENDBRANCH   3   4
ENDBRANCH   2   3
ENDBRANCH   1   2
BRANCH   1  12
HETATM   12  C   UNK N   1      35.740  13.273  12.789  0.00  0.00     0.103 C 
BRANCH  12  13
HETATM   13  C   UNK N   1      35.301  12.771  14.133  0.00  0.00     0.222 C 
HETATM   14  O   UNK N   1      34.184  12.295  14.284  0.00  0.00    -0.273 OA
HETATM   15  N   UNK N   1      36.147  12.922  15.185  0.00  0.00    -0.327 N 
HETATM   16  H   UNK N   1      37.034  13.305  14.994  0.00  0.00     0.169 HD
BRANCH  15  17
HETATM   17  C   UNK N   1      35.872  12.579  16.540  0.00  0.00     0.034 A 
HETATM   18  C   UNK N   1      35.976  11.261  17.017  0.00  0.00     0.029 A 
HETATM   19  C   UNK N   1      35.647  10.961  18.342  0.00  0.00     0.002 A 
HETATM   20  C   UNK N   1      35.204  11.973  19.197  0.00  0.00     0.000 A 
HETATM   21  C   UNK N   1      35.102  13.287  18.730  0.00  0.00     0.002 A 
HETATM   22  C   UNK N   1      35.437  13.587  17.408  0.00  0.00     0.029 A 
ENDBRANCH  15  17
ENDBRANCH  12  13
ENDBRANCH   1  12
TORSDOF 9
ENDMDL
MODEL 8
REMARK VINA RESULT:      -5.5     13.945     16.151
REMARK  9 active torsions:
REMARK  status: ('A' for Active; 'I' for Inactive)
REMARK    1  A    between atoms: O_3  and  N_5 
REMARK       I    between atoms: N_4  and  C_12 
REMARK    2  A    between atoms: N_4  and  C_14 
REMARK       I    between atoms: N_5  and  C_13 
REMARK    3  A    between atoms: C_6  and  C_7 
REMARK    4  A    between atoms: C_6  and  C_8 
REMARK    5  A    between atoms: C_7  and  C_9 
REMARK    6  A    between atoms: C_8  and  C_10 
REMARK    7  A    between atoms: C_9  and  C_11 
REMARK    8  A    between atoms: C_10  and  C_12 
REMARK    9  A    between atoms: C_11  and  C_13 
ROOT
HETATM    1  C   UNK N   1      34.310  14.293   6.410  0.00  0.00     0.009 C 
ENDROOT
BRANCH   1   2
HETATM    2  C   UNK N   1      34.934  13.583   7.593  0.00  0.00     0.000 C 
BRANCH   2   3
HETATM    3  C   UNK N   1      34.041  13.684   8.817  0.00  0.00     0.000 C 
BRANCH   3   4
HETATM    4  C   UNK N   1      34.877  13.809  10.079  0.00  0.00     0.009 C 
BRANCH   4   5
HETATM    5  C   UNK N   1      34.512  15.078  10.844  0.00  0.00     0.105 C 
BRANCH   5   6
HETATM    6  C   UNK N   1      35.313  16.282  10.429  0.00  0.00     0.240 C 
HETATM    7  O   UNK N   1      36.504  16.363  10.688  0.00  0.00    -0.271 OA
HETATM    8  N   UNK N   1      34.699  17.275   9.751  0.00  0.00    -0.237 N 
HETATM    9  H   UNK N   1      33.738  17.202   9.546  0.00  0.00     0.197 HD
BRANCH   8  10
HETATM   10  O   UNK N   1      35.380  18.360   9.355  0.00  0.00    -0.287 OA
HETATM   11  H   UNK N   1      35.802  19.052   9.887  0.00  0.00     0.244 HD
ENDBRANCH   8  10
ENDBRANCH   5   6
ENDBRANCH   4   5
ENDBRANCH   3   4
ENDBRANCH   2   3
ENDBRANCH   1   2
BRANCH   1  12
HETATM   12  C   UNK N   1      34.815  15.727   6.308  0.00  0.00     0.103 C 
BRANCH  12  13
HETATM   13  C   UNK N   1      33.757  16.741   6.631  0.00  0.00     0.222 C 
HETATM   14  O   UNK N   1      34.021  17.936   6.626  0.00  0.00    -0.273 OA
HETATM   15  N   UNK N   1      32.526  16.296   6.995  0.00  0.00    -0.327 N 
HETATM   16  H   UNK N   1      32.378  15.323   6.970  0.00  0.00     0.169 HD
BRANCH  15  17
HETATM   17  C   UNK N   1      31.430  17.105   7.409  0.00  0.00     0.034 A 
HETATM   18  C   UNK N   1      31.442  17.825   8.617  0.00  0.00     0.029 A 
HETATM   19  C   UNK N   1      30.323  18.567   9.008  0.00  0.00     0.002 A 
HETATM   20  C   UNK N   1      29.184  18.588   8.201  0.00  0.00     0.000 A 
HETATM   21  C   UNK N   1      29.166  17.878   6.997  0.00  0.00     0.002 A 
HETATM   22  C   UNK N   1      30.287  17.143   6.603  0.00  0.00     0.029 A 
ENDBRANCH  15  17
ENDBRANCH  12  13
ENDBRANCH   1  12
TORSDOF 9
ENDMDL
MODEL 9
REMARK VINA RESULT:      -5.4     14.600     15.633
REMARK  9 active torsions:
REMARK  status: ('A' for Active; 'I' for Inactive)
REMARK    1  A    between atoms: O_3  and  N_5 
REMARK       I    between atoms: N_4  and  C_12 
REMARK    2  A    between atoms: N_4  and  C_14 
REMARK       I    between atoms: N_5  and  C_13 
REMARK    3  A    between atoms: C_6  and  C_7 
REMARK    4  A    between atoms: C_6  and  C_8 
REMARK    5  A    between atoms: C_7  and  C_9 
REMARK    6  A    between atoms: C_8  and  C_10 
REMARK    7  A    between atoms: C_9  and  C_11 
REMARK    8  A    between atoms: C_10  and  C_12 
REMARK    9  A    between atoms: C_11  and  C_13 
ROOT
HETATM    1  C   UNK N   1      20.979  15.962   5.016  0.00  0.00     0.009 C 
ENDROOT
BRANCH   1   2
HETATM    2  C   UNK N   1      20.013  16.816   4.223  0.00  0.00     0.000 C 
BRANCH   2   3
HETATM    3  C   UNK N   1      20.144  16.541   2.735  0.00  0.00     0.000 C 
BRANCH   3   4
HETATM    4  C   UNK N   1      20.297  17.840   1.964  0.00  0.00     0.009 C 
BRANCH   4   5
HETATM    5  C   UNK N   1      19.515  18.964   2.639  0.00  0.00     0.105 C 
BRANCH   5   6
HETATM    6  C   UNK N   1      20.379  20.107   3.098  0.00  0.00     0.240 C 
HETATM    7  O   UNK N   1      20.510  20.357   4.286  0.00  0.00    -0.271 OA
HETATM    8  N   UNK N   1      21.023  20.853   2.174  0.00  0.00    -0.237 N 
HETATM    9  H   UNK N   1      20.912  20.645   1.217  0.00  0.00     0.197 HD
BRANCH   8  10
HETATM   10  O   UNK N   1      21.809  21.874   2.543  0.00  0.00    -0.287 OA
HETATM   11  H   UNK N   1      22.288  22.514   1.995  0.00  0.00     0.244 HD
ENDBRANCH   8  10
ENDBRANCH   5   6
ENDBRANCH   4   5
ENDBRANCH   3   4
ENDBRANCH   2   3
ENDBRANCH   1   2
BRANCH   1  12
HETATM   12  C   UNK N   1      21.766  16.809   6.007  0.00  0.00     0.103 C 
BRANCH  12  13
HETATM   13  C   UNK N   1      20.884  17.587   6.939  0.00  0.00     0.222 C 
HETATM   14  O   UNK N   1      20.955  18.807   6.985  0.00  0.00    -0.273 OA
HETATM   15  N   UNK N   1      20.061  16.899   7.773  0.00  0.00    -0.327 N 
HETATM   16  H   UNK N   1      20.047  15.919   7.679  0.00  0.00     0.169 HD
BRANCH  15  17
HETATM   17  C   UNK N   1      19.216  17.463   8.772  0.00  0.00     0.034 A 
HETATM   18  C   UNK N   1      17.917  16.985   9.014  0.00  0.00     0.029 A 
HETATM   19  C   UNK N   1      17.104  17.601   9.970  0.00  0.00     0.002 A 
HETATM   20  C   UNK N   1      17.580  18.703  10.683  0.00  0.00     0.000 A 
HETATM   21  C   UNK N   1      18.872  19.182  10.450  0.00  0.00     0.002 A 
HETATM   22  C   UNK N   1      19.686  18.561   9.500  0.00  0.00     0.029 A 
ENDBRANCH  15  17
ENDBRANCH  12  13
ENDBRANCH   1  12
TORSDOF 9
ENDMDL
