MODEL 1
REMARK VINA RESULT:      -7.7      0.000      0.000
REMARK  6 active torsions:
REMARK  status: ('A' for Active; 'I' for Inactive)
REMARK    1  A    between atoms: C_14  and  C_19 
REMARK    2  A    between atoms: C_20  and  C_15 
REMARK    3  A    between atoms: O_25  and  C_16 
REMARK    4  A    between atoms: O_24  and  C_17 
REMARK    5  A    between atoms: O_25  and  C_18 
REMARK    6  A    between atoms: O_23  and  C_19 
ROOT
HETATM    1  C   UNK N   1      33.493  21.685  -4.430  0.00  0.00     0.017 C 
HETATM    2  C   UNK N   1      31.878  19.831  -4.667  0.00  0.00     0.017 C 
HETATM    3  C   UNK N   1      32.256  22.610  -4.603  0.00  0.00     0.030 C 
HETATM    4  C   UNK N   1      30.740  20.563  -3.998  0.00  0.00     0.030 C 
HETATM    5  C   UNK N   1      30.682  22.662  -2.718  0.00  0.00     0.074 C 
HETATM    6  C   UNK N   1      33.117  20.285  -3.936  0.00  0.00     0.084 C 
HETATM    7  C   UNK N   1      30.888  22.092  -4.061  0.00  0.00     0.076 C 
HETATM    8  N   UNK N   1      30.499  23.097  -1.662  0.00  0.00    -0.196 NA
ENDROOT
BRANCH   7   9
HETATM    9  C   UNK N   1      29.782  22.496  -4.991  0.00  0.00    -0.033 A 
HETATM   10  C   UNK N   1      29.467  21.763  -6.140  0.00  0.00     0.012 A 
HETATM   11  C   UNK N   1      28.459  22.200  -6.985  0.00  0.00     0.040 A 
HETATM   12  C   UNK N   1      27.737  23.375  -6.701  0.00  0.00     0.101 A 
HETATM   13  C   UNK N   1      28.078  24.136  -5.543  0.00  0.00     0.103 A 
HETATM   14  C   UNK N   1      29.104  23.684  -4.732  0.00  0.00     0.048 A 
BRANCH  12  15
HETATM   15  O   UNK N   1      26.749  23.754  -7.538  0.00  0.00    -0.353 OA
HETATM   16  C   UNK N   1      25.627  22.982  -7.761  0.00  0.00     0.210 C 
ENDBRANCH  12  15
BRANCH  13  17
HETATM   17  O   UNK N   1      27.500  25.299  -5.141  0.00  0.00    -0.343 OA
BRANCH  17  18
HETATM   18  C   UNK N   1      26.257  25.617  -4.629  0.00  0.00     0.129 C 
HETATM   19  C   UNK N   1      25.265  26.256  -5.572  0.00  0.00     0.032 C 
HETATM   20  C   UNK N   1      24.992  27.645  -5.021  0.00  0.00     0.002 C 
HETATM   21  C   UNK N   1      25.825  27.824  -3.763  0.00  0.00     0.002 C 
HETATM   22  C   UNK N   1      26.381  26.470  -3.394  0.00  0.00     0.032 C 
ENDBRANCH  17  18
ENDBRANCH  13  17
ENDBRANCH   7   9
BRANCH   6  23
HETATM   23  C   UNK N   1      34.158  19.213  -4.047  0.00  0.00     0.143 C 
HETATM   24  O   UNK N   1      35.310  19.525  -4.308  0.00  0.00    -0.650 OA
BRANCH  23  25
HETATM   25  O   UNK N   1      33.869  17.933  -3.745  0.00  0.00    -0.776 OA
HETATM   26  H   UNK N   1      33.027  17.549  -3.894  0.00  0.00     0.167 HD
ENDBRANCH  23  25
ENDBRANCH   6  23
TORSDOF 6
ENDMDL
MODEL 2
REMARK VINA RESULT:      -7.3     11.154     13.621
REMARK  6 active torsions:
REMARK  status: ('A' for Active; 'I' for Inactive)
REMARK    1  A    between atoms: C_14  and  C_19 
REMARK    2  A    between atoms: C_20  and  C_15 
REMARK    3  A    between atoms: O_25  and  C_16 
REMARK    4  A    between atoms: O_24  and  C_17 
REMARK    5  A    between atoms: O_25  and  C_18 
REMARK    6  A    between atoms: O_23  and  C_19 
ROOT
HETATM    1  C   UNK N   1      20.723  18.096   2.671  0.00  0.00     0.017 C 
HETATM    2  C   UNK N   1      22.703  19.571   2.749  0.00  0.00     0.017 C 
HETATM    3  C   UNK N   1      21.448  17.285   3.782  0.00  0.00     0.030 C 
HETATM    4  C   UNK N   1      22.946  19.385   4.227  0.00  0.00     0.030 C 
HETATM    5  C   UNK N   1      21.569  18.360   5.988  0.00  0.00     0.074 C 
HETATM    6  C   UNK N   1      21.203  19.548   2.595  0.00  0.00     0.084 C 
HETATM    7  C   UNK N   1      22.356  18.075   4.775  0.00  0.00     0.076 C 
HETATM    8  N   UNK N   1      20.972  18.594   6.950  0.00  0.00    -0.196 NA
ENDROOT
BRANCH   7   9
HETATM    9  C   UNK N   1      23.578  17.270   5.104  0.00  0.00    -0.033 A 
HETATM   10  C   UNK N   1      23.513  16.083   5.842  0.00  0.00     0.012 A 
HETATM   11  C   UNK N   1      24.676  15.395   6.149  0.00  0.00     0.040 A 
HETATM   12  C   UNK N   1      25.930  15.870   5.722  0.00  0.00     0.101 A 
HETATM   13  C   UNK N   1      25.997  17.095   4.993  0.00  0.00     0.103 A 
HETATM   14  C   UNK N   1      24.819  17.768   4.721  0.00  0.00     0.048 A 
BRANCH  12  15
HETATM   15  O   UNK N   1      27.037  15.159   6.023  0.00  0.00    -0.353 OA
HETATM   16  C   UNK N   1      27.608  14.264   5.141  0.00  0.00     0.210 C 
ENDBRANCH  12  15
BRANCH  13  17
HETATM   17  O   UNK N   1      27.124  17.702   4.532  0.00  0.00    -0.343 OA
BRANCH  17  18
HETATM   18  C   UNK N   1      27.898  18.748   4.996  0.00  0.00     0.129 C 
HETATM   19  C   UNK N   1      27.896  19.001   6.485  0.00  0.00     0.032 C 
HETATM   20  C   UNK N   1      27.290  20.380   6.678  0.00  0.00     0.002 C 
HETATM   21  C   UNK N   1      26.931  20.933   5.309  0.00  0.00     0.002 C 
HETATM   22  C   UNK N   1      27.564  20.030   4.279  0.00  0.00     0.032 C 
ENDBRANCH  17  18
ENDBRANCH  13  17
ENDBRANCH   7   9
BRANCH   6  23
HETATM   23  C   UNK N   1      20.836  20.330   1.370  0.00  0.00     0.143 C 
HETATM   24  O   UNK N   1      20.869  21.551   1.410  0.00  0.00    -0.650 OA
BRANCH  23  25
HETATM   25  O   UNK N   1      20.592  19.711   0.200  0.00  0.00    -0.776 OA
HETATM   26  H   UNK N   1      20.643  18.781   0.092  0.00  0.00     0.167 HD
ENDBRANCH  23  25
ENDBRANCH   6  23
TORSDOF 6
ENDMDL
MODEL 3
REMARK VINA RESULT:      -7.2     11.209     13.069
REMARK  6 active torsions:
REMARK  status: ('A' for Active; 'I' for Inactive)
REMARK    1  A    between atoms: C_14  and  C_19 
REMARK    2  A    between atoms: C_20  and  C_15 
REMARK    3  A    between atoms: O_25  and  C_16 
REMARK    4  A    between atoms: O_24  and  C_17 
REMARK    5  A    between atoms: O_25  and  C_18 
REMARK    6  A    between atoms: O_23  and  C_19 
ROOT
HETATM    1  C   UNK N   1      34.517  17.732   8.593  0.00  0.00     0.017 C 
HETATM    2  C   UNK N   1      33.540  15.464   8.509  0.00  0.00     0.017 C 
HETATM    3  C   UNK N   1      33.335  18.132   7.668  0.00  0.00     0.030 C 
HETATM    4  C   UNK N   1      32.112  15.942   8.414  0.00  0.00     0.030 C 
HETATM    5  C   UNK N   1      31.115  18.169   8.718  0.00  0.00     0.074 C 
HETATM    6  C   UNK N   1      34.227  16.465   9.404  0.00  0.00     0.084 C 
HETATM    7  C   UNK N   1      31.988  17.365   7.846  0.00  0.00     0.076 C 
HETATM    8  N   UNK N   1      30.411  18.783   9.401  0.00  0.00    -0.196 NA
ENDROOT
BRANCH   7   9
HETATM    9  C   UNK N   1      31.348  17.136   6.508  0.00  0.00    -0.033 A 
HETATM   10  C   UNK N   1      32.099  16.969   5.340  0.00  0.00     0.012 A 
HETATM   11  C   UNK N   1      31.458  16.796   4.124  0.00  0.00     0.040 A 
HETATM   12  C   UNK N   1      30.053  16.781   4.044  0.00  0.00     0.101 A 
HETATM   13  C   UNK N   1      29.288  16.979   5.233  0.00  0.00     0.103 A 
HETATM   14  C   UNK N   1      29.959  17.170   6.428  0.00  0.00     0.048 A 
BRANCH  12  15
HETATM   15  O   UNK N   1      29.467  16.588   2.844  0.00  0.00    -0.353 OA
HETATM   16  C   UNK N   1      29.015  15.352   2.427  0.00  0.00     0.210 C 
ENDBRANCH  12  15
BRANCH  13  17
HETATM   17  O   UNK N   1      27.932  17.016   5.325  0.00  0.00    -0.343 OA
BRANCH  17  18
HETATM   18  C   UNK N   1      26.997  18.027   5.203  0.00  0.00     0.129 C 
HETATM   19  C   UNK N   1      26.657  18.487   3.805  0.00  0.00     0.032 C 
HETATM   20  C   UNK N   1      27.100  19.937   3.719  0.00  0.00     0.002 C 
HETATM   21  C   UNK N   1      27.704  20.326   5.057  0.00  0.00     0.002 C 
HETATM   22  C   UNK N   1      27.380  19.223   6.035  0.00  0.00     0.032 C 
ENDBRANCH  17  18
ENDBRANCH  13  17
ENDBRANCH   7   9
BRANCH   6  23
HETATM   23  C   UNK N   1      35.389  15.793  10.070  0.00  0.00     0.143 C 
HETATM   24  O   UNK N   1      35.519  14.583   9.965  0.00  0.00    -0.650 OA
BRANCH  23  25
HETATM   25  O   UNK N   1      36.353  16.514  10.676  0.00  0.00    -0.776 OA
HETATM   26  H   UNK N   1      37.141  16.134  11.010  0.00  0.00     0.167 HD
ENDBRANCH  23  25
ENDBRANCH   6  23
TORSDOF 6
ENDMDL
MODEL 4
REMARK VINA RESULT:      -7.1      1.684      4.288
REMARK  6 active torsions:
REMARK  status: ('A' for Active; 'I' for Inactive)
REMARK    1  A    between atoms: C_14  and  C_19 
REMARK    2  A    between atoms: C_20  and  C_15 
REMARK    3  A    between atoms: O_25  and  C_16 
REMARK    4  A    between atoms: O_24  and  C_17 
REMARK    5  A    between atoms: O_25  and  C_18 
REMARK    6  A    between atoms: O_23  and  C_19 
ROOT
HETATM    1  C   UNK N   1      33.411  21.825  -4.257  0.00  0.00     0.017 C 
HETATM    2  C   UNK N   1      31.772  20.015  -4.630  0.00  0.00     0.017 C 
HETATM    3  C   UNK N   1      32.191  22.778  -4.397  0.00  0.00     0.030 C 
HETATM    4  C   UNK N   1      30.634  20.725  -3.939  0.00  0.00     0.030 C 
HETATM    5  C   UNK N   1      30.586  22.746  -2.538  0.00  0.00     0.074 C 
HETATM    6  C   UNK N   1      33.005  20.405  -3.853  0.00  0.00     0.084 C 
HETATM    7  C   UNK N   1      30.806  22.253  -3.909  0.00  0.00     0.076 C 
HETATM    8  N   UNK N   1      30.391  23.122  -1.462  0.00  0.00    -0.196 NA
ENDROOT
BRANCH   7   9
HETATM    9  C   UNK N   1      29.723  22.729  -4.831  0.00  0.00    -0.033 A 
HETATM   10  C   UNK N   1      28.656  23.517  -4.386  0.00  0.00     0.012 A 
HETATM   11  C   UNK N   1      27.663  23.901  -5.272  0.00  0.00     0.040 A 
HETATM   12  C   UNK N   1      27.712  23.514  -6.625  0.00  0.00     0.101 A 
HETATM   13  C   UNK N   1      28.787  22.687  -7.071  0.00  0.00     0.103 A 
HETATM   14  C   UNK N   1      29.751  22.304  -6.156  0.00  0.00     0.048 A 
BRANCH  12  15
HETATM   15  O   UNK N   1      26.737  23.927  -7.461  0.00  0.00    -0.353 OA
HETATM   16  C   UNK N   1      26.183  25.189  -7.391  0.00  0.00     0.210 C 
ENDBRANCH  12  15
BRANCH  13  17
HETATM   17  O   UNK N   1      28.969  22.208  -8.331  0.00  0.00    -0.343 OA
BRANCH  17  18
HETATM   18  C   UNK N   1      28.960  20.938  -8.875  0.00  0.00     0.129 C 
HETATM   19  C   UNK N   1      28.294  19.846  -8.072  0.00  0.00     0.032 C 
HETATM   20  C   UNK N   1      29.387  18.852  -7.721  0.00  0.00     0.002 C 
HETATM   21  C   UNK N   1      30.692  19.360  -8.310  0.00  0.00     0.002 C 
HETATM   22  C   UNK N   1      30.353  20.496  -9.244  0.00  0.00     0.032 C 
ENDBRANCH  17  18
ENDBRANCH  13  17
ENDBRANCH   7   9
BRANCH   6  23
HETATM   23  C   UNK N   1      34.031  19.324  -4.011  0.00  0.00     0.143 C 
HETATM   24  O   UNK N   1      35.180  19.629  -4.292  0.00  0.00    -0.650 OA
BRANCH  23  25
HETATM   25  O   UNK N   1      33.735  18.041  -3.728  0.00  0.00    -0.776 OA
HETATM   26  H   UNK N   1      34.387  17.395  -3.540  0.00  0.00     0.167 HD
ENDBRANCH  23  25
ENDBRANCH   6  23
TORSDOF 6
ENDMDL
MODEL 5
REMARK VINA RESULT:      -7.1     15.243     16.674
REMARK  6 active torsions:
REMARK  status: ('A' for Active; 'I' for Inactive)
REMARK    1  A    between atoms: C_14  and  C_19 
REMARK    2  A    between atoms: C_20  and  C_15 
REMARK    3  A    between atoms: O_25  and  C_16 
REMARK    4  A    between atoms: O_24  and  C_17 
REMARK    5  A    between atoms: O_25  and  C_18 
REMARK    6  A    between atoms: O_23  and  C_19 
ROOT
HETATM    1  C   UNK N   1      21.328  13.024  10.583  0.00  0.00     0.017 C 
HETATM    2  C   UNK N   1      23.654  13.275   9.788  0.00  0.00     0.017 C 
HETATM    3  C   UNK N   1      20.945  13.816   9.301  0.00  0.00     0.030 C 
HETATM    4  C   UNK N   1      23.298  13.218   8.323  0.00  0.00     0.030 C 
HETATM    5  C   UNK N   1      21.208  12.611   7.177  0.00  0.00     0.074 C 
HETATM    6  C   UNK N   1      22.689  12.332  10.462  0.00  0.00     0.084 C 
HETATM    7  C   UNK N   1      21.842  13.623   8.040  0.00  0.00     0.076 C 
HETATM    8  N   UNK N   1      20.729  11.819   6.483  0.00  0.00    -0.196 NA
ENDROOT
BRANCH   7   9
HETATM    9  C   UNK N   1      21.993  14.928   7.315  0.00  0.00    -0.033 A 
HETATM   10  C   UNK N   1      21.078  15.975   7.464  0.00  0.00     0.012 A 
HETATM   11  C   UNK N   1      21.245  17.147   6.744  0.00  0.00     0.040 A 
HETATM   12  C   UNK N   1      22.331  17.306   5.863  0.00  0.00     0.101 A 
HETATM   13  C   UNK N   1      23.248  16.226   5.691  0.00  0.00     0.103 A 
HETATM   14  C   UNK N   1      23.041  15.061   6.409  0.00  0.00     0.048 A 
BRANCH  12  15
HETATM   15  O   UNK N   1      22.470  18.471   5.196  0.00  0.00    -0.353 OA
HETATM   16  C   UNK N   1      21.702  18.793   4.096  0.00  0.00     0.210 C 
ENDBRANCH  12  15
BRANCH  13  17
HETATM   17  O   UNK N   1      24.329  16.206   4.866  0.00  0.00    -0.343 OA
BRANCH  17  18
HETATM   18  C   UNK N   1      24.479  16.261   3.494  0.00  0.00     0.129 C 
HETATM   19  C   UNK N   1      24.255  14.981   2.723  0.00  0.00     0.032 C 
HETATM   20  C   UNK N   1      25.587  14.635   2.082  0.00  0.00     0.002 C 
HETATM   21  C   UNK N   1      26.592  15.703   2.478  0.00  0.00     0.002 C 
HETATM   22  C   UNK N   1      25.821  16.832   3.117  0.00  0.00     0.032 C 
ENDBRANCH  17  18
ENDBRANCH  13  17
ENDBRANCH   7   9
BRANCH   6  23
HETATM   23  C   UNK N   1      23.318  11.825  11.724  0.00  0.00     0.143 C 
HETATM   24  O   UNK N   1      24.528  11.907  11.862  0.00  0.00    -0.650 OA
BRANCH  23  25
HETATM   25  O   UNK N   1      22.560  11.396  12.752  0.00  0.00    -0.776 OA
HETATM   26  H   UNK N   1      22.788  11.538  13.649  0.00  0.00     0.167 HD
ENDBRANCH  23  25
ENDBRANCH   6  23
TORSDOF 6
ENDMDL
MODEL 6
REMARK VINA RESULT:      -7.0     14.356     16.517
REMARK  6 active torsions:
REMARK  status: ('A' for Active; 'I' for Inactive)
REMARK    1  A    between atoms: C_14  and  C_19 
REMARK    2  A    between atoms: C_20  and  C_15 
REMARK    3  A    between atoms: O_25  and  C_16 
REMARK    4  A    between atoms: O_24  and  C_17 
REMARK    5  A    between atoms: O_25  and  C_18 
REMARK    6  A    between atoms: O_23  and  C_19 
ROOT
HETATM    1  C   UNK N   1      20.537  18.331   3.392  0.00  0.00     0.017 C 
HETATM    2  C   UNK N   1      22.922  18.858   3.766  0.00  0.00     0.017 C 
HETATM    3  C   UNK N   1      20.791  17.127   4.341  0.00  0.00     0.030 C 
HETATM    4  C   UNK N   1      22.947  18.348   5.186  0.00  0.00     0.030 C 
HETATM    5  C   UNK N   1      21.136  17.681   6.709  0.00  0.00     0.074 C 
HETATM    6  C   UNK N   1      21.550  19.462   3.593  0.00  0.00     0.084 C 
HETATM    7  C   UNK N   1      21.848  17.312   5.474  0.00  0.00     0.076 C 
HETATM    8  N   UNK N   1      20.598  17.971   7.692  0.00  0.00    -0.196 NA
ENDROOT
BRANCH   7   9
HETATM    9  C   UNK N   1      22.626  16.043   5.660  0.00  0.00    -0.033 A 
HETATM   10  C   UNK N   1      23.370  15.464   4.627  0.00  0.00     0.012 A 
HETATM   11  C   UNK N   1      24.042  14.272   4.842  0.00  0.00     0.040 A 
HETATM   12  C   UNK N   1      23.994  13.630   6.094  0.00  0.00     0.101 A 
HETATM   13  C   UNK N   1      23.212  14.208   7.139  0.00  0.00     0.103 A 
HETATM   14  C   UNK N   1      22.536  15.388   6.885  0.00  0.00     0.048 A 
BRANCH  12  15
HETATM   15  O   UNK N   1      24.680  12.482   6.269  0.00  0.00    -0.353 OA
HETATM   16  C   UNK N   1      24.236  11.269   5.781  0.00  0.00     0.210 C 
ENDBRANCH  12  15
BRANCH  13  17
HETATM   17  O   UNK N   1      23.040  13.707   8.391  0.00  0.00    -0.343 OA
BRANCH  17  18
HETATM   18  C   UNK N   1      22.328  12.636   8.898  0.00  0.00     0.129 C 
HETATM   19  C   UNK N   1      21.235  12.944   9.895  0.00  0.00     0.032 C 
HETATM   20  C   UNK N   1      21.657  12.290  11.199  0.00  0.00     0.002 C 
HETATM   21  C   UNK N   1      22.994  11.605  10.972  0.00  0.00     0.002 C 
HETATM   22  C   UNK N   1      23.250  11.600   9.485  0.00  0.00     0.032 C 
ENDBRANCH  17  18
ENDBRANCH  13  17
ENDBRANCH   7   9
BRANCH   6  23
HETATM   23  C   UNK N   1      21.623  20.517   2.531  0.00  0.00     0.143 C 
HETATM   24  O   UNK N   1      21.159  20.284   1.425  0.00  0.00    -0.650 OA
BRANCH  23  25
HETATM   25  O   UNK N   1      22.077  21.753   2.813  0.00  0.00    -0.776 OA
HETATM   26  H   UNK N   1      21.992  22.476   2.223  0.00  0.00     0.167 HD
ENDBRANCH  23  25
ENDBRANCH   6  23
TORSDOF 6
ENDMDL
MODEL 7
REMARK VINA RESULT:      -7.0     11.865     13.965
REMARK  6 active torsions:
REMARK  status: ('A' for Active; 'I' for Inactive)
REMARK    1  A    between atoms: C_14  and  C_19 
REMARK    2  A    between atoms: C_20  and  C_15 
REMARK    3  A    between atoms: O_25  and  C_16 
REMARK    4  A    between atoms: O_24  and  C_17 
REMARK    5  A    between atoms: O_25  and  C_18 
REMARK    6  A    between atoms: O_23  and  C_19 
ROOT
HETATM    1  C   UNK N   1      33.491  15.125   8.840  0.00  0.00     0.017 C 
HETATM    2  C   UNK N   1      33.612  17.546   8.360  0.00  0.00     0.017 C 
HETATM    3  C   UNK N   1      32.630  15.047   7.548  0.00  0.00     0.030 C 
HETATM    4  C   UNK N   1      33.591  17.383   6.860  0.00  0.00     0.030 C 
HETATM    5  C   UNK N   1      33.832  15.394   5.435  0.00  0.00     0.074 C 
HETATM    6  C   UNK N   1      34.395  16.361   8.871  0.00  0.00     0.084 C 
HETATM    7  C   UNK N   1      32.949  16.061   6.407  0.00  0.00     0.076 C 
HETATM    8  N   UNK N   1      34.525  14.890   4.657  0.00  0.00    -0.196 NA
ENDROOT
BRANCH   7   9
HETATM    9  C   UNK N   1      31.677  16.515   5.754  0.00  0.00    -0.033 A 
HETATM   10  C   UNK N   1      31.618  16.875   4.404  0.00  0.00     0.012 A 
HETATM   11  C   UNK N   1      30.425  17.321   3.858  0.00  0.00     0.040 A 
HETATM   12  C   UNK N   1      29.260  17.413   4.644  0.00  0.00     0.101 A 
HETATM   13  C   UNK N   1      29.329  17.071   6.028  0.00  0.00     0.103 A 
HETATM   14  C   UNK N   1      30.541  16.650   6.546  0.00  0.00     0.048 A 
BRANCH  12  15
HETATM   15  O   UNK N   1      28.113  17.832   4.070  0.00  0.00    -0.353 OA
HETATM   16  C   UNK N   1      27.156  16.956   3.597  0.00  0.00     0.210 C 
ENDBRANCH  12  15
BRANCH  13  17
HETATM   17  O   UNK N   1      28.310  17.128   6.926  0.00  0.00    -0.343 OA
BRANCH  17  18
HETATM   18  C   UNK N   1      28.089  17.872   8.069  0.00  0.00     0.129 C 
HETATM   19  C   UNK N   1      29.065  18.986   8.367  0.00  0.00     0.032 C 
HETATM   20  C   UNK N   1      29.748  18.613   9.671  0.00  0.00     0.002 C 
HETATM   21  C   UNK N   1      29.180  17.282  10.135  0.00  0.00     0.002 C 
HETATM   22  C   UNK N   1      27.972  16.985   9.281  0.00  0.00     0.032 C 
ENDBRANCH  17  18
ENDBRANCH  13  17
ENDBRANCH   7   9
BRANCH   6  23
HETATM   23  C   UNK N   1      35.016  16.728  10.184  0.00  0.00     0.143 C 
HETATM   24  O   UNK N   1      35.699  17.737  10.260  0.00  0.00    -0.650 OA
BRANCH  23  25
HETATM   25  O   UNK N   1      34.731  16.033  11.303  0.00  0.00    -0.776 OA
HETATM   26  H   UNK N   1      34.206  16.376  11.998  0.00  0.00     0.167 HD
ENDBRANCH  23  25
ENDBRANCH   6  23
TORSDOF 6
ENDMDL
MODEL 8
REMARK VINA RESULT:      -6.9      3.002      7.026
REMARK  6 active torsions:
REMARK  status: ('A' for Active; 'I' for Inactive)
REMARK    1  A    between atoms: C_14  and  C_19 
REMARK    2  A    between atoms: C_20  and  C_15 
REMARK    3  A    between atoms: O_25  and  C_16 
REMARK    4  A    between atoms: O_24  and  C_17 
REMARK    5  A    between atoms: O_25  and  C_18 
REMARK    6  A    between atoms: O_23  and  C_19 
ROOT
HETATM    1  C   UNK N   1      27.013  26.335  -6.232  0.00  0.00     0.017 C 
HETATM    2  C   UNK N   1      26.537  24.604  -4.536  0.00  0.00     0.017 C 
HETATM    3  C   UNK N   1      27.445  25.145  -7.134  0.00  0.00     0.030 C 
HETATM    4  C   UNK N   1      26.117  23.554  -5.535  0.00  0.00     0.030 C 
HETATM    5  C   UNK N   1      25.633  23.697  -7.942  0.00  0.00     0.074 C 
HETATM    6  C   UNK N   1      26.054  25.910  -5.116  0.00  0.00     0.084 C 
HETATM    7  C   UNK N   1      26.706  23.785  -6.936  0.00  0.00     0.076 C 
HETATM    8  N   UNK N   1      24.785  23.605  -8.723  0.00  0.00    -0.196 NA
ENDROOT
BRANCH   7   9
HETATM    9  C   UNK N   1      27.675  22.650  -7.083  0.00  0.00    -0.033 A 
HETATM   10  C   UNK N   1      27.361  21.487  -7.795  0.00  0.00     0.012 A 
HETATM   11  C   UNK N   1      28.279  20.452  -7.871  0.00  0.00     0.040 A 
HETATM   12  C   UNK N   1      29.534  20.553  -7.243  0.00  0.00     0.101 A 
HETATM   13  C   UNK N   1      29.843  21.728  -6.494  0.00  0.00     0.103 A 
HETATM   14  C   UNK N   1      28.896  22.734  -6.421  0.00  0.00     0.048 A 
BRANCH  12  15
HETATM   15  O   UNK N   1      30.409  19.532  -7.359  0.00  0.00    -0.353 OA
HETATM   16  C   UNK N   1      30.903  19.111  -8.577  0.00  0.00     0.210 C 
ENDBRANCH  12  15
BRANCH  13  17
HETATM   17  O   UNK N   1      30.993  21.973  -5.811  0.00  0.00    -0.343 OA
BRANCH  17  18
HETATM   18  C   UNK N   1      31.295  22.094  -4.468  0.00  0.00     0.129 C 
HETATM   19  C   UNK N   1      30.329  21.475  -3.485  0.00  0.00     0.032 C 
HETATM   20  C   UNK N   1      29.761  22.624  -2.670  0.00  0.00     0.002 C 
HETATM   21  C   UNK N   1      30.385  23.913  -3.176  0.00  0.00     0.002 C 
HETATM   22  C   UNK N   1      31.524  23.534  -4.091  0.00  0.00     0.032 C 
ENDBRANCH  17  18
ENDBRANCH  13  17
ENDBRANCH   7   9
BRANCH   6  23
HETATM   23  C   UNK N   1      25.831  26.878  -3.994  0.00  0.00     0.143 C 
HETATM   24  O   UNK N   1      26.187  26.576  -2.866  0.00  0.00    -0.650 OA
BRANCH  23  25
HETATM   25  O   UNK N   1      25.360  28.117  -4.232  0.00  0.00    -0.776 OA
HETATM   26  H   UNK N   1      24.477  28.288  -4.494  0.00  0.00     0.167 HD
ENDBRANCH  23  25
ENDBRANCH   6  23
TORSDOF 6
ENDMDL
MODEL 9
REMARK VINA RESULT:      -6.8     14.775     16.280
REMARK  6 active torsions:
REMARK  status: ('A' for Active; 'I' for Inactive)
REMARK    1  A    between atoms: C_14  and  C_19 
REMARK    2  A    between atoms: C_20  and  C_15 
REMARK    3  A    between atoms: O_25  and  C_16 
REMARK    4  A    between atoms: O_24  and  C_17 
REMARK    5  A    between atoms: O_25  and  C_18 
REMARK    6  A    between atoms: O_23  and  C_19 
ROOT
HETATM    1  C   UNK N   1      21.982  19.291   3.418  0.00  0.00     0.017 C 
HETATM    2  C   UNK N   1      23.734  17.701   4.127  0.00  0.00     0.017 C 
HETATM    3  C   UNK N   1      20.995  18.301   4.097  0.00  0.00     0.030 C 
HETATM    4  C   UNK N   1      23.028  17.286   5.395  0.00  0.00     0.030 C 
HETATM    5  C   UNK N   1      21.071  18.224   6.551  0.00  0.00     0.074 C 
HETATM    6  C   UNK N   1      23.409  19.164   3.960  0.00  0.00     0.084 C 
HETATM    7  C   UNK N   1      21.508  17.509   5.339  0.00  0.00     0.076 C 
HETATM    8  N   UNK N   1      20.738  18.768   7.516  0.00  0.00    -0.196 NA
ENDROOT
BRANCH   7   9
HETATM    9  C   UNK N   1      20.966  16.111   5.315  0.00  0.00    -0.033 A 
HETATM   10  C   UNK N   1      20.371  15.560   4.175  0.00  0.00     0.012 A 
HETATM   11  C   UNK N   1      19.854  14.275   4.216  0.00  0.00     0.040 A 
HETATM   12  C   UNK N   1      19.922  13.507   5.394  0.00  0.00     0.101 A 
HETATM   13  C   UNK N   1      20.504  14.080   6.564  0.00  0.00     0.103 A 
HETATM   14  C   UNK N   1      20.992  15.373   6.495  0.00  0.00     0.048 A 
BRANCH  12  15
HETATM   15  O   UNK N   1      19.426  12.252   5.387  0.00  0.00    -0.353 OA
HETATM   16  C   UNK N   1      20.215  11.142   5.164  0.00  0.00     0.210 C 
ENDBRANCH  12  15
BRANCH  13  17
HETATM   17  O   UNK N   1      20.624  13.487   7.782  0.00  0.00    -0.343 OA
BRANCH  17  18
HETATM   18  C   UNK N   1      21.518  13.630   8.826  0.00  0.00     0.129 C 
HETATM   19  C   UNK N   1      22.714  12.708   8.842  0.00  0.00     0.032 C 
HETATM   20  C   UNK N   1      22.576  11.859  10.094  0.00  0.00     0.002 C 
HETATM   21  C   UNK N   1      21.301  12.275  10.807  0.00  0.00     0.002 C 
HETATM   22  C   UNK N   1      20.815  13.547  10.156  0.00  0.00     0.032 C 
ENDBRANCH  17  18
ENDBRANCH  13  17
ENDBRANCH   7   9
BRANCH   6  23
HETATM   23  C   UNK N   1      24.505  19.811   3.170  0.00  0.00     0.143 C 
HETATM   24  O   UNK N   1      25.618  19.307   3.170  0.00  0.00    -0.650 OA
BRANCH  23  25
HETATM   25  O   UNK N   1      24.253  20.863   2.368  0.00  0.00    -0.776 OA
HETATM   26  H   UNK N   1      23.971  20.773   1.479  0.00  0.00     0.167 HD
ENDBRANCH  23  25
ENDBRANCH   6  23
TORSDOF 6
ENDMDL
