MODEL 1
REMARK VINA RESULT:      -6.8      0.000      0.000
REMARK  6 active torsions:
REMARK  status: ('A' for Active; 'I' for Inactive)
REMARK    1  A    between atoms: O_1  and  C_2 
REMARK    2  A    between atoms: C_2  and  C_4 
REMARK    3  A    between atoms: C_4  and  C_5 
REMARK    4  A    between atoms: C_9  and  O_10 
REMARK    5  A    between atoms: O_10  and  C_11 
REMARK    6  A    between atoms: C_14  and  O_15 
ROOT
HETATM    1  C   UNK N   1      32.686  17.293   6.905  0.00  0.00    -0.046 A 
HETATM    2  C   UNK N   1      31.763  17.587   7.901  0.00  0.00     0.028 A 
HETATM    3  C   UNK N   1      30.394  17.568   7.633  0.00  0.00     0.042 A 
HETATM    4  I   UNK N   1      29.064  18.000   9.217  0.00  0.00    -0.042 I 
HETATM    5  C   UNK N   1      29.910  17.246   6.348  0.00  0.00     0.109 A 
HETATM    6  C   UNK N   1      30.858  16.903   5.334  0.00  0.00     0.042 A 
HETATM    7  I   UNK N   1      30.439  16.163   3.388  0.00  0.00    -0.042 I 
HETATM    8  C   UNK N   1      32.223  16.934   5.636  0.00  0.00     0.028 A 
ENDROOT
BRANCH   5   9
HETATM    9  O   UNK N   1      28.555  17.233   6.195  0.00  0.00    -0.308 OA
BRANCH   9  10
HETATM   10  C   UNK N   1      27.705  18.014   5.476  0.00  0.00     0.077 A 
HETATM   11  C   UNK N   1      28.225  19.164   4.870  0.00  0.00     0.040 A 
HETATM   12  C   UNK N   1      27.405  20.001   4.111  0.00  0.00     0.040 A 
HETATM   13  C   UNK N   1      26.052  19.701   3.953  0.00  0.00     0.082 A 
HETATM   14  C   UNK N   1      25.523  18.541   4.538  0.00  0.00     0.042 A 
HETATM   15  I   UNK N   1      23.472  18.075   4.360  0.00  0.00    -0.042 I 
HETATM   16  C   UNK N   1      26.355  17.692   5.277  0.00  0.00     0.058 A 
BRANCH  13  17
HETATM   17  O   UNK N   1      25.266  20.530   3.245  0.00  0.00    -0.359 OA
HETATM   18  H   UNK N   1      24.336  20.511   3.360  0.00  0.00     0.217 HD
ENDBRANCH  13  17
ENDBRANCH   9  10
ENDBRANCH   5   9
BRANCH   1  19
HETATM   19  C   UNK N   1      34.150  17.295   7.262  0.00  0.00     0.148 C 
BRANCH  19  20
HETATM   20  C   UNK N   1      34.590  18.071   8.480  0.00  0.00     0.143 C 
HETATM   21  O   UNK N   1      34.995  19.220   8.394  0.00  0.00    -0.650 OA
BRANCH  20  22
HETATM   22  O   UNK N   1      34.496  17.494   9.691  0.00  0.00    -0.776 OA
HETATM   23  H   UNK N   1      35.233  17.497  10.270  0.00  0.00     0.167 HD
ENDBRANCH  20  22
ENDBRANCH  19  20
ENDBRANCH   1  19
TORSDOF 6
ENDMDL
MODEL 2
REMARK VINA RESULT:      -6.7      0.913      2.427
REMARK  6 active torsions:
REMARK  status: ('A' for Active; 'I' for Inactive)
REMARK    1  A    between atoms: O_1  and  C_2 
REMARK    2  A    between atoms: C_2  and  C_4 
REMARK    3  A    between atoms: C_4  and  C_5 
REMARK    4  A    between atoms: C_9  and  O_10 
REMARK    5  A    between atoms: O_10  and  C_11 
REMARK    6  A    between atoms: C_14  and  O_15 
ROOT
HETATM    1  C   UNK N   1      32.805  17.697   7.685  0.00  0.00    -0.046 A 
HETATM    2  C   UNK N   1      32.776  17.372   6.333  0.00  0.00     0.028 A 
HETATM    3  C   UNK N   1      31.567  17.108   5.691  0.00  0.00     0.042 A 
HETATM    4  I   UNK N   1      31.617  16.650   3.628  0.00  0.00    -0.042 I 
HETATM    5  C   UNK N   1      30.344  17.166   6.390  0.00  0.00     0.109 A 
HETATM    6  C   UNK N   1      30.370  17.541   7.769  0.00  0.00     0.042 A 
HETATM    7  I   UNK N   1      28.700  17.933   9.022  0.00  0.00    -0.042 I 
HETATM    8  C   UNK N   1      31.600  17.798   8.384  0.00  0.00     0.028 A 
ENDROOT
BRANCH   5   9
HETATM    9  O   UNK N   1      29.216  16.913   5.666  0.00  0.00    -0.308 OA
BRANCH   9  10
HETATM   10  C   UNK N   1      28.198  17.708   5.243  0.00  0.00     0.077 A 
HETATM   11  C   UNK N   1      28.508  19.016   4.850  0.00  0.00     0.040 A 
HETATM   12  C   UNK N   1      27.508  19.880   4.398  0.00  0.00     0.040 A 
HETATM   13  C   UNK N   1      26.183  19.447   4.339  0.00  0.00     0.082 A 
HETATM   14  C   UNK N   1      25.863  18.133   4.710  0.00  0.00     0.042 A 
HETATM   15  I   UNK N   1      23.864  17.454   4.677  0.00  0.00    -0.042 I 
HETATM   16  C   UNK N   1      26.873  17.264   5.139  0.00  0.00     0.058 A 
BRANCH  13  17
HETATM   17  O   UNK N   1      25.225  20.295   3.929  0.00  0.00    -0.359 OA
HETATM   18  H   UNK N   1      25.449  21.161   3.652  0.00  0.00     0.217 HD
ENDBRANCH  13  17
ENDBRANCH   9  10
ENDBRANCH   5   9
BRANCH   1  19
HETATM   19  C   UNK N   1      34.137  18.007   8.317  0.00  0.00     0.148 C 
BRANCH  19  20
HETATM   20  C   UNK N   1      34.675  17.057   9.359  0.00  0.00     0.143 C 
HETATM   21  O   UNK N   1      34.345  15.881   9.383  0.00  0.00    -0.650 OA
BRANCH  20  22
HETATM   22  O   UNK N   1      35.567  17.509  10.258  0.00  0.00    -0.776 OA
HETATM   23  H   UNK N   1      36.078  18.272  10.069  0.00  0.00     0.167 HD
ENDBRANCH  20  22
ENDBRANCH  19  20
ENDBRANCH   1  19
TORSDOF 6
ENDMDL
MODEL 3
REMARK VINA RESULT:      -6.3      2.194      7.343
REMARK  6 active torsions:
REMARK  status: ('A' for Active; 'I' for Inactive)
REMARK    1  A    between atoms: O_1  and  C_2 
REMARK    2  A    between atoms: C_2  and  C_4 
REMARK    3  A    between atoms: C_4  and  C_5 
REMARK    4  A    between atoms: C_9  and  O_10 
REMARK    5  A    between atoms: O_10  and  C_11 
REMARK    6  A    between atoms: C_14  and  O_15 
ROOT
HETATM    1  C   UNK N   1      28.472  18.670   5.080  0.00  0.00    -0.046 A 
HETATM    2  C   UNK N   1      28.295  18.544   6.454  0.00  0.00     0.028 A 
HETATM    3  C   UNK N   1      29.140  17.731   7.209  0.00  0.00     0.042 A 
HETATM    4  I   UNK N   1      28.814  17.625   9.294  0.00  0.00    -0.042 I 
HETATM    5  C   UNK N   1      30.196  17.019   6.604  0.00  0.00     0.109 A 
HETATM    6  C   UNK N   1      30.403  17.180   5.198  0.00  0.00     0.042 A 
HETATM    7  I   UNK N   1      32.023  16.430   4.048  0.00  0.00    -0.042 I 
HETATM    8  C   UNK N   1      29.537  18.002   4.469  0.00  0.00     0.028 A 
ENDROOT
BRANCH   5   9
HETATM    9  O   UNK N   1      30.978  16.270   7.432  0.00  0.00    -0.308 OA
BRANCH   9  10
HETATM   10  C   UNK N   1      32.144  16.533   8.080  0.00  0.00     0.077 A 
HETATM   11  C   UNK N   1      32.783  17.749   7.812  0.00  0.00     0.040 A 
HETATM   12  C   UNK N   1      33.978  18.082   8.452  0.00  0.00     0.040 A 
HETATM   13  C   UNK N   1      34.552  17.198   9.367  0.00  0.00     0.082 A 
HETATM   14  C   UNK N   1      33.912  15.986   9.659  0.00  0.00     0.042 A 
HETATM   15  I   UNK N   1      34.770  14.602  11.003  0.00  0.00    -0.042 I 
HETATM   16  C   UNK N   1      32.701  15.668   9.033  0.00  0.00     0.058 A 
BRANCH  13  17
HETATM   17  O   UNK N   1      35.718  17.516   9.955  0.00  0.00    -0.359 OA
HETATM   18  H   UNK N   1      36.275  18.168   9.578  0.00  0.00     0.217 HD
ENDBRANCH  13  17
ENDBRANCH   9  10
ENDBRANCH   5   9
BRANCH   1  19
HETATM   19  C   UNK N   1      27.550  19.590   4.321  0.00  0.00     0.148 C 
BRANCH  19  20
HETATM   20  C   UNK N   1      26.607  20.468   5.107  0.00  0.00     0.143 C 
HETATM   21  O   UNK N   1      25.437  20.161   5.274  0.00  0.00    -0.650 OA
BRANCH  20  22
HETATM   22  O   UNK N   1      27.079  21.596   5.667  0.00  0.00    -0.776 OA
HETATM   23  H   UNK N   1      27.969  21.638   5.959  0.00  0.00     0.167 HD
ENDBRANCH  20  22
ENDBRANCH  19  20
ENDBRANCH   1  19
TORSDOF 6
ENDMDL
MODEL 4
REMARK VINA RESULT:      -6.3      2.087      7.789
REMARK  6 active torsions:
REMARK  status: ('A' for Active; 'I' for Inactive)
REMARK    1  A    between atoms: O_1  and  C_2 
REMARK    2  A    between atoms: C_2  and  C_4 
REMARK    3  A    between atoms: C_4  and  C_5 
REMARK    4  A    between atoms: C_9  and  O_10 
REMARK    5  A    between atoms: O_10  and  C_11 
REMARK    6  A    between atoms: C_14  and  O_15 
ROOT
HETATM    1  C   UNK N   1      28.193  18.778   5.278  0.00  0.00    -0.046 A 
HETATM    2  C   UNK N   1      29.073  18.010   4.524  0.00  0.00     0.028 A 
HETATM    3  C   UNK N   1      30.046  17.227   5.144  0.00  0.00     0.042 A 
HETATM    4  I   UNK N   1      31.322  16.070   3.918  0.00  0.00    -0.042 I 
HETATM    5  C   UNK N   1      30.162  17.188   6.549  0.00  0.00     0.109 A 
HETATM    6  C   UNK N   1      29.230  17.945   7.326  0.00  0.00     0.042 A 
HETATM    7  I   UNK N   1      29.004  17.917   9.437  0.00  0.00    -0.042 I 
HETATM    8  C   UNK N   1      28.268  18.721   6.672  0.00  0.00     0.028 A 
ENDROOT
BRANCH   5   9
HETATM    9  O   UNK N   1      31.131  16.374   7.057  0.00  0.00    -0.308 OA
BRANCH   9  10
HETATM   10  C   UNK N   1      32.246  16.624   7.794  0.00  0.00     0.077 A 
HETATM   11  C   UNK N   1      32.912  17.837   7.585  0.00  0.00     0.040 A 
HETATM   12  C   UNK N   1      34.058  18.156   8.317  0.00  0.00     0.040 A 
HETATM   13  C   UNK N   1      34.554  17.261   9.266  0.00  0.00     0.082 A 
HETATM   14  C   UNK N   1      33.884  16.052   9.500  0.00  0.00     0.042 A 
HETATM   15  I   UNK N   1      34.628  14.652  10.894  0.00  0.00    -0.042 I 
HETATM   16  C   UNK N   1      32.722  15.748   8.780  0.00  0.00     0.058 A 
BRANCH  13  17
HETATM   17  O   UNK N   1      35.673  17.566   9.944  0.00  0.00    -0.359 OA
HETATM   18  H   UNK N   1      35.713  17.435  10.871  0.00  0.00     0.217 HD
ENDBRANCH  13  17
ENDBRANCH   9  10
ENDBRANCH   5   9
BRANCH   1  19
HETATM   19  C   UNK N   1      27.140  19.577   4.555  0.00  0.00     0.148 C 
BRANCH  19  20
HETATM   20  C   UNK N   1      25.700  19.141   4.676  0.00  0.00     0.143 C 
HETATM   21  O   UNK N   1      24.791  19.793   4.186  0.00  0.00    -0.650 OA
BRANCH  20  22
HETATM   22  O   UNK N   1      25.417  17.987   5.307  0.00  0.00    -0.776 OA
HETATM   23  H   UNK N   1      25.391  17.184   4.826  0.00  0.00     0.167 HD
ENDBRANCH  20  22
ENDBRANCH  19  20
ENDBRANCH   1  19
TORSDOF 6
ENDMDL
MODEL 5
REMARK VINA RESULT:      -6.2      8.620      9.531
REMARK  6 active torsions:
REMARK  status: ('A' for Active; 'I' for Inactive)
REMARK    1  A    between atoms: O_1  and  C_2 
REMARK    2  A    between atoms: C_2  and  C_4 
REMARK    3  A    between atoms: C_4  and  C_5 
REMARK    4  A    between atoms: C_9  and  O_10 
REMARK    5  A    between atoms: O_10  and  C_11 
REMARK    6  A    between atoms: C_14  and  O_15 
ROOT
HETATM    1  C   UNK N   1      21.574  13.784   9.160  0.00  0.00    -0.046 A 
HETATM    2  C   UNK N   1      20.649  14.804   9.350  0.00  0.00     0.028 A 
HETATM    3  C   UNK N   1      20.642  15.923   8.519  0.00  0.00     0.042 A 
HETATM    4  I   UNK N   1      19.181  17.411   8.865  0.00  0.00    -0.042 I 
HETATM    5  C   UNK N   1      21.568  16.050   7.463  0.00  0.00     0.109 A 
HETATM    6  C   UNK N   1      22.492  14.982   7.241  0.00  0.00     0.042 A 
HETATM    7  I   UNK N   1      23.843  14.774   5.616  0.00  0.00    -0.042 I 
HETATM    8  C   UNK N   1      22.473  13.874   8.095  0.00  0.00     0.028 A 
ENDROOT
BRANCH   5   9
HETATM    9  O   UNK N   1      21.464  17.172   6.694  0.00  0.00    -0.308 OA
BRANCH   9  10
HETATM   10  C   UNK N   1      20.949  17.391   5.455  0.00  0.00     0.077 A 
HETATM   11  C   UNK N   1      20.104  16.414   4.914  0.00  0.00     0.040 A 
HETATM   12  C   UNK N   1      19.536  16.585   3.650  0.00  0.00     0.040 A 
HETATM   13  C   UNK N   1      19.811  17.734   2.908  0.00  0.00     0.082 A 
HETATM   14  C   UNK N   1      20.640  18.728   3.446  0.00  0.00     0.042 A 
HETATM   15  I   UNK N   1      21.117  20.460   2.337  0.00  0.00    -0.042 I 
HETATM   16  C   UNK N   1      21.187  18.563   4.724  0.00  0.00     0.058 A 
BRANCH  13  17
HETATM   17  O   UNK N   1      19.283  17.874   1.680  0.00  0.00    -0.359 OA
HETATM   18  H   UNK N   1      19.203  18.725   1.296  0.00  0.00     0.217 HD
ENDBRANCH  13  17
ENDBRANCH   9  10
ENDBRANCH   5   9
BRANCH   1  19
HETATM   19  C   UNK N   1      21.511  12.582  10.068  0.00  0.00     0.148 C 
BRANCH  19  20
HETATM   20  C   UNK N   1      22.801  12.049  10.642  0.00  0.00     0.143 C 
HETATM   21  O   UNK N   1      23.551  11.346   9.983  0.00  0.00    -0.650 OA
BRANCH  20  22
HETATM   22  O   UNK N   1      23.147  12.388  11.896  0.00  0.00    -0.776 OA
HETATM   23  H   UNK N   1      22.557  12.886  12.427  0.00  0.00     0.167 HD
ENDBRANCH  20  22
ENDBRANCH  19  20
ENDBRANCH   1  19
TORSDOF 6
ENDMDL
MODEL 6
REMARK VINA RESULT:      -6.1      7.142      9.240
REMARK  6 active torsions:
REMARK  status: ('A' for Active; 'I' for Inactive)
REMARK    1  A    between atoms: O_1  and  C_2 
REMARK    2  A    between atoms: C_2  and  C_4 
REMARK    3  A    between atoms: C_4  and  C_5 
REMARK    4  A    between atoms: C_9  and  O_10 
REMARK    5  A    between atoms: O_10  and  C_11 
REMARK    6  A    between atoms: C_14  and  O_15 
ROOT
HETATM    1  C   UNK N   1      22.354  12.322  10.388  0.00  0.00    -0.046 A 
HETATM    2  C   UNK N   1      21.655  13.488  10.096  0.00  0.00     0.028 A 
HETATM    3  C   UNK N   1      21.540  13.939   8.781  0.00  0.00     0.042 A 
HETATM    4  I   UNK N   1      20.434  15.705   8.428  0.00  0.00    -0.042 I 
HETATM    5  C   UNK N   1      22.125  13.226   7.714  0.00  0.00     0.109 A 
HETATM    6  C   UNK N   1      22.808  12.005   8.010  0.00  0.00     0.042 A 
HETATM    7  I   UNK N   1      23.590  10.605   6.618  0.00  0.00    -0.042 I 
HETATM    8  C   UNK N   1      22.907  11.582   9.340  0.00  0.00     0.028 A 
ENDROOT
BRANCH   5   9
HETATM    9  O   UNK N   1      21.937  13.738   6.464  0.00  0.00    -0.308 OA
BRANCH   9  10
HETATM   10  C   UNK N   1      22.784  14.314   5.571  0.00  0.00     0.077 A 
HETATM   11  C   UNK N   1      23.692  15.267   6.050  0.00  0.00     0.040 A 
HETATM   12  C   UNK N   1      24.595  15.888   5.185  0.00  0.00     0.040 A 
HETATM   13  C   UNK N   1      24.596  15.568   3.827  0.00  0.00     0.082 A 
HETATM   14  C   UNK N   1      23.706  14.601   3.338  0.00  0.00     0.042 A 
HETATM   15  I   UNK N   1      23.646  14.121   1.283  0.00  0.00    -0.042 I 
HETATM   16  C   UNK N   1      22.820  13.963   4.215  0.00  0.00     0.058 A 
BRANCH  13  17
HETATM   17  O   UNK N   1      25.449  16.194   2.998  0.00  0.00    -0.359 OA
HETATM   18  H   UNK N   1      25.148  16.890   2.448  0.00  0.00     0.217 HD
ENDBRANCH  13  17
ENDBRANCH   9  10
ENDBRANCH   5   9
BRANCH   1  19
HETATM   19  C   UNK N   1      22.415  11.865  11.823  0.00  0.00     0.148 C 
BRANCH  19  20
HETATM   20  C   UNK N   1      23.679  12.126  12.606  0.00  0.00     0.143 C 
HETATM   21  O   UNK N   1      23.675  12.180  13.826  0.00  0.00    -0.650 OA
BRANCH  20  22
HETATM   22  O   UNK N   1      24.841  12.264  11.943  0.00  0.00    -0.776 OA
HETATM   23  H   UNK N   1      24.910  12.881  11.241  0.00  0.00     0.167 HD
ENDBRANCH  20  22
ENDBRANCH  19  20
ENDBRANCH   1  19
TORSDOF 6
ENDMDL
MODEL 7
REMARK VINA RESULT:      -6.1      2.228      7.738
REMARK  6 active torsions:
REMARK  status: ('A' for Active; 'I' for Inactive)
REMARK    1  A    between atoms: O_1  and  C_2 
REMARK    2  A    between atoms: C_2  and  C_4 
REMARK    3  A    between atoms: C_4  and  C_5 
REMARK    4  A    between atoms: C_9  and  O_10 
REMARK    5  A    between atoms: O_10  and  C_11 
REMARK    6  A    between atoms: C_14  and  O_15 
ROOT
HETATM    1  C   UNK N   1      25.463  18.585   4.159  0.00  0.00    -0.046 A 
HETATM    2  C   UNK N   1      25.868  17.496   3.396  0.00  0.00     0.028 A 
HETATM    3  C   UNK N   1      27.015  16.778   3.733  0.00  0.00     0.042 A 
HETATM    4  I   UNK N   1      27.539  15.120   2.530  0.00  0.00    -0.042 I 
HETATM    5  C   UNK N   1      27.791  17.131   4.855  0.00  0.00     0.109 A 
HETATM    6  C   UNK N   1      27.351  18.225   5.665  0.00  0.00     0.042 A 
HETATM    7  I   UNK N   1      28.166  18.852   7.523  0.00  0.00    -0.042 I 
HETATM    8  C   UNK N   1      26.197  18.926   5.298  0.00  0.00     0.028 A 
ENDROOT
BRANCH   5   9
HETATM    9  O   UNK N   1      28.881  16.352   5.112  0.00  0.00    -0.308 OA
BRANCH   9  10
HETATM   10  C   UNK N   1      30.188  16.648   5.337  0.00  0.00     0.077 A 
HETATM   11  C   UNK N   1      30.889  17.327   4.333  0.00  0.00     0.040 A 
HETATM   12  C   UNK N   1      32.232  17.668   4.509  0.00  0.00     0.040 A 
HETATM   13  C   UNK N   1      32.892  17.329   5.690  0.00  0.00     0.082 A 
HETATM   14  C   UNK N   1      32.196  16.667   6.712  0.00  0.00     0.042 A 
HETATM   15  I   UNK N   1      33.170  16.097   8.496  0.00  0.00    -0.042 I 
HETATM   16  C   UNK N   1      30.843  16.350   6.541  0.00  0.00     0.058 A 
BRANCH  13  17
HETATM   17  O   UNK N   1      34.193  17.636   5.836  0.00  0.00    -0.359 OA
HETATM   18  H   UNK N   1      34.720  17.826   5.085  0.00  0.00     0.217 HD
ENDBRANCH  13  17
ENDBRANCH   9  10
ENDBRANCH   5   9
BRANCH   1  19
HETATM   19  C   UNK N   1      24.196  19.301   3.768  0.00  0.00     0.148 C 
BRANCH  19  20
HETATM   20  C   UNK N   1      24.307  20.535   2.907  0.00  0.00     0.143 C 
HETATM   21  O   UNK N   1      23.385  21.330   2.807  0.00  0.00    -0.650 OA
BRANCH  20  22
HETATM   22  O   UNK N   1      25.463  20.782   2.265  0.00  0.00    -0.776 OA
HETATM   23  H   UNK N   1      26.023  20.073   2.017  0.00  0.00     0.167 HD
ENDBRANCH  20  22
ENDBRANCH  19  20
ENDBRANCH   1  19
TORSDOF 6
ENDMDL
MODEL 8
REMARK VINA RESULT:      -6.1      5.182      9.500
REMARK  6 active torsions:
REMARK  status: ('A' for Active; 'I' for Inactive)
REMARK    1  A    between atoms: O_1  and  C_2 
REMARK    2  A    between atoms: C_2  and  C_4 
REMARK    3  A    between atoms: C_4  and  C_5 
REMARK    4  A    between atoms: C_9  and  O_10 
REMARK    5  A    between atoms: O_10  and  C_11 
REMARK    6  A    between atoms: C_14  and  O_15 
ROOT
HETATM    1  C   UNK N   1      21.909  19.713   3.005  0.00  0.00    -0.046 A 
HETATM    2  C   UNK N   1      21.590  18.437   3.456  0.00  0.00     0.028 A 
HETATM    3  C   UNK N   1      22.580  17.584   3.942  0.00  0.00     0.042 A 
HETATM    4  I   UNK N   1      21.996  15.674   4.632  0.00  0.00    -0.042 I 
HETATM    5  C   UNK N   1      23.929  17.992   3.994  0.00  0.00     0.109 A 
HETATM    6  C   UNK N   1      24.252  19.319   3.570  0.00  0.00     0.042 A 
HETATM    7  I   UNK N   1      26.131  20.294   3.736  0.00  0.00    -0.042 I 
HETATM    8  C   UNK N   1      23.235  20.148   3.086  0.00  0.00     0.028 A 
ENDROOT
BRANCH   5   9
HETATM    9  O   UNK N   1      24.817  17.092   4.507  0.00  0.00    -0.308 OA
BRANCH   9  10
HETATM   10  C   UNK N   1      25.844  16.398   3.950  0.00  0.00     0.077 A 
HETATM   11  C   UNK N   1      25.697  15.955   2.630  0.00  0.00     0.040 A 
HETATM   12  C   UNK N   1      26.721  15.244   2.000  0.00  0.00     0.040 A 
HETATM   13  C   UNK N   1      27.903  14.963   2.685  0.00  0.00     0.082 A 
HETATM   14  C   UNK N   1      28.071  15.419   4.000  0.00  0.00     0.042 A 
HETATM   15  I   UNK N   1      29.827  14.976   5.086  0.00  0.00    -0.042 I 
HETATM   16  C   UNK N   1      27.052  16.152   4.619  0.00  0.00     0.058 A 
BRANCH  13  17
HETATM   17  O   UNK N   1      28.870  14.253   2.078  0.00  0.00    -0.359 OA
HETATM   18  H   UNK N   1      28.848  14.124   1.151  0.00  0.00     0.217 HD
ENDBRANCH  13  17
ENDBRANCH   9  10
ENDBRANCH   5   9
BRANCH   1  19
HETATM   19  C   UNK N   1      20.793  20.603   2.524  0.00  0.00     0.148 C 
BRANCH  19  20
HETATM   20  C   UNK N   1      20.782  21.019   1.073  0.00  0.00     0.143 C 
HETATM   21  O   UNK N   1      20.937  20.207   0.174  0.00  0.00    -0.650 OA
BRANCH  20  22
HETATM   22  O   UNK N   1      20.559  22.309   0.765  0.00  0.00    -0.776 OA
HETATM   23  H   UNK N   1      21.193  22.789   0.269  0.00  0.00     0.167 HD
ENDBRANCH  20  22
ENDBRANCH  19  20
ENDBRANCH   1  19
TORSDOF 6
ENDMDL
MODEL 9
REMARK VINA RESULT:      -6.0      9.168      9.919
REMARK  6 active torsions:
REMARK  status: ('A' for Active; 'I' for Inactive)
REMARK    1  A    between atoms: O_1  and  C_2 
REMARK    2  A    between atoms: C_2  and  C_4 
REMARK    3  A    between atoms: C_4  and  C_5 
REMARK    4  A    between atoms: C_9  and  O_10 
REMARK    5  A    between atoms: O_10  and  C_11 
REMARK    6  A    between atoms: C_14  and  O_15 
ROOT
HETATM    1  C   UNK N   1      22.333  12.675   9.990  0.00  0.00    -0.046 A 
HETATM    2  C   UNK N   1      21.569  13.830   9.864  0.00  0.00     0.028 A 
HETATM    3  C   UNK N   1      21.435  14.463   8.629  0.00  0.00     0.042 A 
HETATM    4  I   UNK N   1      20.230  16.197   8.527  0.00  0.00    -0.042 I 
HETATM    5  C   UNK N   1      22.065  13.951   7.476  0.00  0.00     0.109 A 
HETATM    6  C   UNK N   1      22.816  12.740   7.597  0.00  0.00     0.042 A 
HETATM    7  I   UNK N   1      23.683  11.609   6.023  0.00  0.00    -0.042 I 
HETATM    8  C   UNK N   1      22.933  12.130   8.850  0.00  0.00     0.028 A 
ENDROOT
BRANCH   5   9
HETATM    9  O   UNK N   1      21.853  14.631   6.313  0.00  0.00    -0.308 OA
BRANCH   9  10
HETATM   10  C   UNK N   1      21.015  14.417   5.264  0.00  0.00     0.077 A 
HETATM   11  C   UNK N   1      20.022  13.441   5.407  0.00  0.00     0.040 A 
HETATM   12  C   UNK N   1      19.125  13.181   4.368  0.00  0.00     0.040 A 
HETATM   13  C   UNK N   1      19.215  13.891   3.171  0.00  0.00     0.082 A 
HETATM   14  C   UNK N   1      20.192  14.886   3.023  0.00  0.00     0.042 A 
HETATM   15  I   UNK N   1      20.389  15.953   1.212  0.00  0.00    -0.042 I 
HETATM   16  C   UNK N   1      21.073  15.160   4.076  0.00  0.00     0.058 A 
BRANCH  13  17
HETATM   17  O   UNK N   1      18.365  13.613   2.168  0.00  0.00    -0.359 OA
HETATM   18  H   UNK N   1      17.460  13.453   2.347  0.00  0.00     0.217 HD
ENDBRANCH  13  17
ENDBRANCH   9  10
ENDBRANCH   5   9
BRANCH   1  19
HETATM   19  C   UNK N   1      22.414  12.014  11.341  0.00  0.00     0.148 C 
BRANCH  19  20
HETATM   20  C   UNK N   1      23.718  12.086  12.099  0.00  0.00     0.143 C 
HETATM   21  O   UNK N   1      24.792  11.945  11.536  0.00  0.00    -0.650 OA
BRANCH  20  22
HETATM   22  O   UNK N   1      23.694  12.350  13.417  0.00  0.00    -0.776 OA
HETATM   23  H   UNK N   1      24.152  11.794  14.016  0.00  0.00     0.167 HD
ENDBRANCH  20  22
ENDBRANCH  19  20
ENDBRANCH   1  19
TORSDOF 6
ENDMDL
