MODEL 1
REMARK VINA RESULT:      -6.7      0.000      0.000
REMARK  1 active torsions:
REMARK  status: ('A' for Active; 'I' for Inactive)
REMARK    1  A    between atoms: O_20  and  C_15 
ROOT
HETATM    1  C   UNK N   1      25.562  25.273  -8.497  0.00  0.00     0.043 C 
HETATM    2  C   UNK N   1      26.765  30.014  -4.065  0.00  0.00     0.020 C 
HETATM    3  C   UNK N   1      27.769  29.436  -5.050  0.00  0.00     0.010 C 
HETATM    4  C   UNK N   1      26.500  25.375  -3.804  0.00  0.00     0.016 A 
HETATM    5  C   UNK N   1      27.251  24.312  -3.308  0.00  0.00     0.056 A 
HETATM    6  C   UNK N   1      26.079  28.861  -3.347  0.00  0.00     0.115 C 
HETATM    7  C   UNK N   1      27.394  26.746  -7.820  0.00  0.00    -0.019 C 
HETATM    8  C   UNK N   1      29.103  27.036  -6.046  0.00  0.00     0.066 C 
HETATM    9  C   UNK N   1      25.359  26.715  -6.357  0.00  0.00     0.069 C 
HETATM   10  C   UNK N   1      26.155  26.277  -7.572  0.00  0.00    -0.084 C 
HETATM   11  C   UNK N   1      28.078  27.765  -6.928  0.00  0.00     0.021 C 
HETATM   12  C   UNK N   1      27.063  28.490  -6.030  0.00  0.00     0.026 C 
HETATM   13  C   UNK N   1      27.087  26.315  -4.663  0.00  0.00    -0.007 A 
HETATM   14  C   UNK N   1      28.444  26.138  -5.030  0.00  0.00     0.020 A 
HETATM   15  C   UNK N   1      28.587  24.180  -3.689  0.00  0.00     0.140 A 
HETATM   16  C   UNK N   1      26.227  27.410  -5.293  0.00  0.00     0.063 C 
HETATM   17  N   UNK N   1      25.334  28.040  -4.305  0.00  0.00    -0.408 N 
HETATM   18  N   UNK N   1      29.149  25.086  -4.533  0.00  0.00    -0.340 N 
ATOM     19  HN  UNK N   1      30.126  24.975  -4.801  1.00  0.00     0.167 HD
HETATM   20  H   UNK N   1      24.321  27.920  -4.290  0.00  0.00     0.154 HD
ENDROOT
BRANCH  15  21
HETATM   21  O   UNK N   1      29.313  23.146  -3.237  0.00  0.00    -0.346 OA
HETATM   22  H   UNK N   1      30.250  23.154  -3.217  0.00  0.00     0.219 HD
ENDBRANCH  15  21
TORSDOF 1
ENDMDL
MODEL 2
REMARK VINA RESULT:      -6.5      1.472      3.824
REMARK  1 active torsions:
REMARK  status: ('A' for Active; 'I' for Inactive)
REMARK    1  A    between atoms: O_20  and  C_15 
ROOT
HETATM    1  C   UNK N   1      26.578  30.056  -3.357  0.00  0.00     0.043 C 
HETATM    2  C   UNK N   1      26.447  26.256  -8.752  0.00  0.00     0.020 C 
HETATM    3  C   UNK N   1      25.797  25.933  -7.416  0.00  0.00     0.010 C 
HETATM    4  C   UNK N   1      29.615  26.986  -5.421  0.00  0.00     0.016 A 
HETATM    5  C   UNK N   1      30.411  26.240  -4.556  0.00  0.00     0.056 A 
HETATM    6  C   UNK N   1      27.891  26.664  -8.498  0.00  0.00     0.115 C 
HETATM    7  C   UNK N   1      25.595  27.944  -4.104  0.00  0.00    -0.019 C 
HETATM    8  C   UNK N   1      26.180  25.574  -4.542  0.00  0.00     0.066 C 
HETATM    9  C   UNK N   1      27.279  29.016  -5.621  0.00  0.00     0.069 C 
HETATM   10  C   UNK N   1      26.438  28.965  -4.359  0.00  0.00    -0.084 C 
HETATM   11  C   UNK N   1      25.396  26.787  -5.066  0.00  0.00     0.021 C 
HETATM   12  C   UNK N   1      25.894  27.142  -6.476  0.00  0.00     0.026 C 
HETATM   13  C   UNK N   1      28.232  26.761  -5.481  0.00  0.00    -0.007 A 
HETATM   14  C   UNK N   1      27.671  25.781  -4.623  0.00  0.00     0.020 A 
HETATM   15  C   UNK N   1      29.819  25.280  -3.735  0.00  0.00     0.140 A 
HETATM   16  C   UNK N   1      27.351  27.661  -6.346  0.00  0.00     0.063 C 
HETATM   17  N   UNK N   1      27.937  27.879  -7.680  0.00  0.00    -0.408 N 
HETATM   18  N   UNK N   1      28.475  25.074  -3.785  0.00  0.00    -0.340 N 
ATOM     19  HN  UNK N   1      28.059  24.369  -3.178  1.00  0.00     0.167 HD
HETATM   20  H   UNK N   1      28.326  28.767  -7.996  0.00  0.00     0.154 HD
ENDROOT
BRANCH  15  21
HETATM   21  O   UNK N   1      30.573  24.574  -2.879  0.00  0.00    -0.346 OA
HETATM   22  H   UNK N   1      30.212  23.949  -2.282  0.00  0.00     0.219 HD
ENDBRANCH  15  21
TORSDOF 1
ENDMDL
MODEL 3
REMARK VINA RESULT:      -6.5     17.706     19.863
REMARK  1 active torsions:
REMARK  status: ('A' for Active; 'I' for Inactive)
REMARK    1  A    between atoms: O_20  and  C_15 
ROOT
HETATM    1  C   UNK N   1      23.008   9.487   6.437  0.00  0.00     0.043 C 
HETATM    2  C   UNK N   1      21.763  15.960   6.768  0.00  0.00     0.020 C 
HETATM    3  C   UNK N   1      23.139  15.313   6.785  0.00  0.00     0.010 C 
HETATM    4  C   UNK N   1      21.670  12.514   9.895  0.00  0.00     0.016 A 
HETATM    5  C   UNK N   1      22.168  12.246  11.168  0.00  0.00     0.056 A 
HETATM    6  C   UNK N   1      20.890  15.259   7.799  0.00  0.00     0.115 C 
HETATM    7  C   UNK N   1      24.235  11.602   6.519  0.00  0.00    -0.019 C 
HETATM    8  C   UNK N   1      24.915  13.396   8.090  0.00  0.00     0.066 C 
HETATM    9  C   UNK N   1      21.761  11.707   6.902  0.00  0.00     0.069 C 
HETATM   10  C   UNK N   1      23.050  10.965   6.604  0.00  0.00    -0.084 C 
HETATM   11  C   UNK N   1      24.373  13.105   6.683  0.00  0.00     0.021 C 
HETATM   12  C   UNK N   1      23.018  13.809   6.506  0.00  0.00     0.026 C 
HETATM   13  C   UNK N   1      22.533  12.942   8.875  0.00  0.00    -0.007 A 
HETATM   14  C   UNK N   1      23.914  13.064   9.167  0.00  0.00     0.020 A 
HETATM   15  C   UNK N   1      23.533  12.387  11.414  0.00  0.00     0.140 A 
HETATM   16  C   UNK N   1      22.000  13.123   7.454  0.00  0.00     0.063 C 
HETATM   17  N   UNK N   1      20.718  13.849   7.441  0.00  0.00    -0.408 N 
HETATM   18  N   UNK N   1      24.369  12.788  10.419  0.00  0.00    -0.340 N 
ATOM     19  HN  UNK N   1      25.365  12.886  10.616  1.00  0.00     0.167 HD
HETATM   20  H   UNK N   1      19.821  13.423   7.209  0.00  0.00     0.154 HD
ENDROOT
BRANCH  15  21
HETATM   21  O   UNK N   1      24.027  12.106  12.630  0.00  0.00    -0.346 OA
HETATM   22  H   UNK N   1      24.552  12.711  13.117  0.00  0.00     0.219 HD
ENDBRANCH  15  21
TORSDOF 1
ENDMDL
MODEL 4
REMARK VINA RESULT:      -6.4     12.199     15.069
REMARK  1 active torsions:
REMARK  status: ('A' for Active; 'I' for Inactive)
REMARK    1  A    between atoms: O_20  and  C_15 
ROOT
HETATM    1  C   UNK N   1      20.277  16.932   7.439  0.00  0.00     0.043 C 
HETATM    2  C   UNK N   1      21.431  14.452   1.432  0.00  0.00     0.020 C 
HETATM    3  C   UNK N   1      22.472  15.041   2.371  0.00  0.00     0.010 C 
HETATM    4  C   UNK N   1      19.817  18.543   2.955  0.00  0.00     0.016 A 
HETATM    5  C   UNK N   1      20.066  19.900   2.765  0.00  0.00     0.056 A 
HETATM    6  C   UNK N   1      20.274  15.435   1.322  0.00  0.00     0.115 C 
HETATM    7  C   UNK N   1      22.173  16.485   5.959  0.00  0.00    -0.019 C 
HETATM    8  C   UNK N   1      23.310  17.361   3.936  0.00  0.00     0.066 C 
HETATM    9  C   UNK N   1      19.879  16.203   4.988  0.00  0.00     0.069 C 
HETATM   10  C   UNK N   1      20.835  16.525   6.121  0.00  0.00    -0.084 C 
HETATM   11  C   UNK N   1      22.828  16.088   4.649  0.00  0.00     0.021 C 
HETATM   12  C   UNK N   1      21.842  15.339   3.738  0.00  0.00     0.026 C 
HETATM   13  C   UNK N   1      20.864  17.673   3.290  0.00  0.00    -0.007 A 
HETATM   14  C   UNK N   1      22.164  18.213   3.455  0.00  0.00     0.020 A 
HETATM   15  C   UNK N   1      21.362  20.389   2.930  0.00  0.00     0.140 A 
HETATM   16  C   UNK N   1      20.563  16.209   3.609  0.00  0.00     0.063 C 
HETATM   17  N   UNK N   1      19.637  15.615   2.629  0.00  0.00    -0.408 N 
HETATM   18  N   UNK N   1      22.373  19.544   3.268  0.00  0.00    -0.340 N 
ATOM     19  HN  UNK N   1      23.314  19.918   3.385  1.00  0.00     0.167 HD
HETATM   20  H   UNK N   1      18.672  15.360   2.835  0.00  0.00     0.154 HD
ENDROOT
BRANCH  15  21
HETATM   21  O   UNK N   1      21.609  21.699   2.775  0.00  0.00    -0.346 OA
HETATM   22  H   UNK N   1      21.750  22.277   3.498  0.00  0.00     0.219 HD
ENDBRANCH  15  21
TORSDOF 1
ENDMDL
MODEL 5
REMARK VINA RESULT:      -6.3      2.369      4.220
REMARK  1 active torsions:
REMARK  status: ('A' for Active; 'I' for Inactive)
REMARK    1  A    between atoms: O_20  and  C_15 
ROOT
HETATM    1  C   UNK N   1      30.227  23.589  -4.963  0.00  0.00     0.043 C 
HETATM    2  C   UNK N   1      26.237  28.697  -3.723  0.00  0.00     0.020 C 
HETATM    3  C   UNK N   1      25.937  27.237  -3.424  0.00  0.00     0.010 C 
HETATM    4  C   UNK N   1      27.199  26.238  -7.556  0.00  0.00     0.016 A 
HETATM    5  C   UNK N   1      26.514  25.569  -8.567  0.00  0.00     0.056 A 
HETATM    6  C   UNK N   1      26.705  28.805  -5.167  0.00  0.00     0.115 C 
HETATM    7  C   UNK N   1      28.056  24.026  -3.925  0.00  0.00    -0.019 C 
HETATM    8  C   UNK N   1      25.695  24.529  -4.493  0.00  0.00     0.066 C 
HETATM    9  C   UNK N   1      29.134  25.927  -5.153  0.00  0.00     0.069 C 
HETATM   10  C   UNK N   1      29.097  24.500  -4.638  0.00  0.00    -0.084 C 
HETATM   11  C   UNK N   1      26.858  24.882  -3.554  0.00  0.00     0.021 C 
HETATM   12  C   UNK N   1      27.182  26.379  -3.688  0.00  0.00     0.026 C 
HETATM   13  C   UNK N   1      26.921  25.960  -6.210  0.00  0.00    -0.007 A 
HETATM   14  C   UNK N   1      25.953  24.969  -5.912  0.00  0.00     0.020 A 
HETATM   15  C   UNK N   1      25.563  24.606  -8.229  0.00  0.00     0.140 A 
HETATM   16  C   UNK N   1      27.757  26.614  -5.110  0.00  0.00     0.063 C 
HETATM   17  N   UNK N   1      27.949  28.054  -5.353  0.00  0.00    -0.408 N 
HETATM   18  N   UNK N   1      25.306  24.329  -6.922  0.00  0.00    -0.340 N 
ATOM     19  HN  UNK N   1      24.608  23.622  -6.693  1.00  0.00     0.167 HD
HETATM   20  H   UNK N   1      28.839  28.477  -5.616  0.00  0.00     0.154 HD
ENDROOT
BRANCH  15  21
HETATM   21  O   UNK N   1      24.915  23.937  -9.194  0.00  0.00    -0.346 OA
HETATM   22  H   UNK N   1      24.337  24.355  -9.802  0.00  0.00     0.219 HD
ENDBRANCH  15  21
TORSDOF 1
ENDMDL
MODEL 6
REMARK VINA RESULT:      -6.2     25.453     27.340
REMARK  1 active torsions:
REMARK  status: ('A' for Active; 'I' for Inactive)
REMARK    1  A    between atoms: O_20  and  C_15 
ROOT
HETATM    1  C   UNK N   1      33.665  10.129  12.443  0.00  0.00     0.043 C 
HETATM    2  C   UNK N   1      35.108  13.008  18.204  0.00  0.00     0.020 C 
HETATM    3  C   UNK N   1      35.585  13.463  16.834  0.00  0.00     0.010 C 
HETATM    4  C   UNK N   1      36.782   9.281  15.976  0.00  0.00     0.016 A 
HETATM    5  C   UNK N   1      38.016   8.761  15.590  0.00  0.00     0.056 A 
HETATM    6  C   UNK N   1      35.387  11.518  18.339  0.00  0.00     0.115 C 
HETATM    7  C   UNK N   1      34.870  12.087  13.278  0.00  0.00    -0.019 C 
HETATM    8  C   UNK N   1      36.994  12.741  14.379  0.00  0.00     0.066 C 
HETATM    9  C   UNK N   1      34.078  10.428  14.981  0.00  0.00     0.069 C 
HETATM   10  C   UNK N   1      34.223  10.939  13.560  0.00  0.00    -0.084 C 
HETATM   11  C   UNK N   1      35.476  12.972  14.352  0.00  0.00     0.021 C 
HETATM   12  C   UNK N   1      34.889  12.648  15.736  0.00  0.00     0.026 C 
HETATM   13  C   UNK N   1      36.434  10.597  15.641  0.00  0.00    -0.007 A 
HETATM   14  C   UNK N   1      37.352  11.365  14.882  0.00  0.00     0.020 A 
HETATM   15  C   UNK N   1      38.893   9.555  14.851  0.00  0.00     0.140 A 
HETATM   16  C   UNK N   1      35.036  11.121  15.966  0.00  0.00     0.063 C 
HETATM   17  N   UNK N   1      34.626  10.769  17.337  0.00  0.00    -0.408 N 
HETATM   18  N   UNK N   1      38.546  10.827  14.516  0.00  0.00    -0.340 N 
ATOM     19  HN  UNK N   1      39.200  11.393  13.975  1.00  0.00     0.167 HD
HETATM   20  H   UNK N   1      33.901  10.087  17.561  0.00  0.00     0.154 HD
ENDROOT
BRANCH  15  21
HETATM   21  O   UNK N   1      40.073   9.056  14.452  0.00  0.00    -0.346 OA
HETATM   22  H   UNK N   1      40.853   9.573  14.407  0.00  0.00     0.219 HD
ENDBRANCH  15  21
TORSDOF 1
ENDMDL
MODEL 7
REMARK VINA RESULT:      -6.2      2.211      4.365
REMARK  1 active torsions:
REMARK  status: ('A' for Active; 'I' for Inactive)
REMARK    1  A    between atoms: O_20  and  C_15 
ROOT
HETATM    1  C   UNK N   1      28.202  27.571  -8.789  0.00  0.00     0.043 C 
HETATM    2  C   UNK N   1      26.746  23.657  -3.677  0.00  0.00     0.020 C 
HETATM    3  C   UNK N   1      25.744  24.388  -4.556  0.00  0.00     0.010 C 
HETATM    4  C   UNK N   1      28.135  28.085  -4.031  0.00  0.00     0.016 A 
HETATM    5  C   UNK N   1      27.757  29.340  -3.557  0.00  0.00     0.056 A 
HETATM    6  C   UNK N   1      27.802  24.654  -3.222  0.00  0.00     0.115 C 
HETATM    7  C   UNK N   1      26.230  26.666  -7.659  0.00  0.00    -0.019 C 
HETATM    8  C   UNK N   1      24.852  26.960  -5.618  0.00  0.00     0.066 C 
HETATM    9  C   UNK N   1      28.446  26.301  -6.547  0.00  0.00     0.069 C 
HETATM   10  C   UNK N   1      27.569  26.826  -7.667  0.00  0.00    -0.084 C 
HETATM   11  C   UNK N   1      25.500  25.927  -6.553  0.00  0.00     0.021 C 
HETATM   12  C   UNK N   1      26.463  25.044  -5.743  0.00  0.00     0.026 C 
HETATM   13  C   UNK N   1      27.198  27.258  -4.665  0.00  0.00    -0.007 A 
HETATM   14  C   UNK N   1      25.877  27.741  -4.835  0.00  0.00     0.020 A 
HETATM   15  C   UNK N   1      26.443  29.773  -3.738  0.00  0.00     0.140 A 
HETATM   16  C   UNK N   1      27.648  25.934  -5.284  0.00  0.00     0.063 C 
HETATM   17  N   UNK N   1      28.532  25.181  -4.377  0.00  0.00    -0.408 N 
HETATM   18  N   UNK N   1      25.541  28.973  -4.367  0.00  0.00    -0.340 N 
ATOM     19  HN  UNK N   1      24.585  29.306  -4.490  1.00  0.00     0.167 HD
HETATM   20  H   UNK N   1      29.530  25.042  -4.536  0.00  0.00     0.154 HD
ENDROOT
BRANCH  15  21
HETATM   21  O   UNK N   1      26.075  30.989  -3.309  0.00  0.00    -0.346 OA
HETATM   22  H   UNK N   1      25.281  31.405  -3.584  0.00  0.00     0.219 HD
ENDBRANCH  15  21
TORSDOF 1
ENDMDL
MODEL 8
REMARK VINA RESULT:      -6.2      2.245      4.536
REMARK  1 active torsions:
REMARK  status: ('A' for Active; 'I' for Inactive)
REMARK    1  A    between atoms: O_20  and  C_15 
ROOT
HETATM    1  C   UNK N   1      28.474  28.246  -5.148  0.00  0.00     0.043 C 
HETATM    2  C   UNK N   1      26.259  22.437  -7.365  0.00  0.00     0.020 C 
HETATM    3  C   UNK N   1      25.772  23.163  -6.121  0.00  0.00     0.010 C 
HETATM    4  C   UNK N   1      30.002  23.716  -4.913  0.00  0.00     0.016 A 
HETATM    5  C   UNK N   1      30.656  23.351  -3.738  0.00  0.00     0.056 A 
HETATM    6  C   UNK N   1      27.779  22.376  -7.321  0.00  0.00     0.115 C 
HETATM    7  C   UNK N   1      26.767  26.585  -4.589  0.00  0.00    -0.019 C 
HETATM    8  C   UNK N   1      26.495  24.349  -3.551  0.00  0.00     0.066 C 
HETATM    9  C   UNK N   1      28.426  25.959  -6.360  0.00  0.00     0.069 C 
HETATM   10  C   UNK N   1      27.834  26.917  -5.343  0.00  0.00    -0.084 C 
HETATM   11  C   UNK N   1      26.056  25.250  -4.715  0.00  0.00     0.021 C 
HETATM   12  C   UNK N   1      26.400  24.561  -6.046  0.00  0.00     0.026 C 
HETATM   13  C   UNK N   1      28.630  24.000  -4.899  0.00  0.00    -0.007 A 
HETATM   14  C   UNK N   1      27.940  23.935  -3.663  0.00  0.00     0.020 A 
HETATM   15  C   UNK N   1      29.936  23.292  -2.544  0.00  0.00     0.140 A 
HETATM   16  C   UNK N   1      27.946  24.510  -6.167  0.00  0.00     0.063 C 
HETATM   17  N   UNK N   1      28.340  23.729  -7.352  0.00  0.00    -0.408 N 
HETATM   18  N   UNK N   1      28.608  23.582  -2.532  0.00  0.00    -0.340 N 
ATOM     19  HN  UNK N   1      28.098  23.534  -1.651  1.00  0.00     0.167 HD
HETATM   20  H   UNK N   1      28.931  24.086  -8.103  0.00  0.00     0.154 HD
ENDROOT
BRANCH  15  21
HETATM   21  O   UNK N   1      30.561  22.967  -1.402  0.00  0.00    -0.346 OA
HETATM   22  H   UNK N   1      30.814  22.089  -1.194  0.00  0.00     0.219 HD
ENDBRANCH  15  21
TORSDOF 1
ENDMDL
MODEL 9
REMARK VINA RESULT:      -6.1     23.394     26.286
REMARK  1 active torsions:
REMARK  status: ('A' for Active; 'I' for Inactive)
REMARK    1  A    between atoms: O_20  and  C_15 
ROOT
HETATM    1  C   UNK N   1      37.621   7.882  14.044  0.00  0.00     0.043 C 
HETATM    2  C   UNK N   1      35.821  13.748  16.474  0.00  0.00     0.020 C 
HETATM    3  C   UNK N   1      34.902  12.562  16.232  0.00  0.00     0.010 C 
HETATM    4  C   UNK N   1      36.640  12.175  12.171  0.00  0.00     0.016 A 
HETATM    5  C   UNK N   1      36.017  12.171  10.924  0.00  0.00     0.056 A 
HETATM    6  C   UNK N   1      36.635  13.991  15.211  0.00  0.00     0.115 C 
HETATM    7  C   UNK N   1      35.620   8.982  14.921  0.00  0.00    -0.019 C 
HETATM    8  C   UNK N   1      33.875  10.629  14.297  0.00  0.00     0.066 C 
HETATM    9  C   UNK N   1      37.632  10.424  14.529  0.00  0.00     0.069 C 
HETATM   10  C   UNK N   1      36.905   9.093  14.528  0.00  0.00    -0.084 C 
HETATM   11  C   UNK N   1      34.811  10.164  15.422  0.00  0.00     0.021 C 
HETATM   12  C   UNK N   1      35.725  11.329  15.835  0.00  0.00     0.026 C 
HETATM   13  C   UNK N   1      35.951  11.726  13.306  0.00  0.00    -0.007 A 
HETATM   14  C   UNK N   1      34.628  11.244  13.146  0.00  0.00     0.020 A 
HETATM   15  C   UNK N   1      34.711  11.696  10.813  0.00  0.00     0.140 A 
HETATM   16  C   UNK N   1      36.679  11.626  14.646  0.00  0.00     0.063 C 
HETATM   17  N   UNK N   1      37.481  12.830  14.923  0.00  0.00    -0.408 N 
HETATM   18  N   UNK N   1      34.051  11.246  11.914  0.00  0.00    -0.340 N 
ATOM     19  HN  UNK N   1      33.096  10.902  11.815  1.00  0.00     0.167 HD
HETATM   20  H   UNK N   1      38.501  12.853  14.916  0.00  0.00     0.154 HD
ENDROOT
BRANCH  15  21
HETATM   21  O   UNK N   1      34.110  11.662   9.613  0.00  0.00    -0.346 OA
HETATM   22  H   UNK N   1      33.773  12.429   9.193  0.00  0.00     0.219 HD
ENDBRANCH  15  21
TORSDOF 1
ENDMDL
