MODEL 1
REMARK VINA RESULT:      -7.9      0.000      0.000
REMARK  5 active torsions:
REMARK  status: ('A' for Active; 'I' for Inactive)
REMARK    1  A    between atoms: C_5  and  C_9 
REMARK    2  A    between atoms: C_6  and  O_7 
REMARK    3  A    between atoms: C_10  and  O_11 
REMARK    4  A    between atoms: C_13  and  O_14 
REMARK    5  A    between atoms: C_18  and  C_22 
ROOT
HETATM    1  C   UNK N   1      30.214  21.514  -5.926  0.00  0.00     0.017 A 
HETATM    2  C   UNK N   1      31.271  20.605  -5.727  0.00  0.00     0.077 A 
HETATM    3  C   UNK N   1      31.888  20.522  -4.474  0.00  0.00     0.074 A 
HETATM    4  C   UNK N   1      31.467  21.327  -3.410  0.00  0.00     0.085 A 
HETATM    5  C   UNK N   1      30.413  22.249  -3.599  0.00  0.00     0.082 A 
HETATM    6  C   UNK N   1      29.800  22.334  -4.867  0.00  0.00     0.102 A 
HETATM    7  O   UNK N   1      28.819  23.204  -5.079  0.00  0.00    -0.308 OA
HETATM    8  C   UNK N   1      28.352  24.035  -4.156  0.00  0.00     0.091 A 
HETATM    9  C   UNK N   1      28.900  23.996  -2.869  0.00  0.00     0.094 A 
HETATM   10  C   UNK N   1      29.931  23.101  -2.583  0.00  0.00     0.190 A 
HETATM   11  O   UNK N   1      30.401  23.075  -1.458  0.00  0.00    -0.287 OA
ENDROOT
BRANCH   1  12
HETATM   12  C   UNK N   1      29.469  21.671  -7.231  0.00  0.00     0.056 C 
HETATM   13  C   UNK N   1      28.619  20.475  -7.631  0.00  0.00     0.042 C 
HETATM   14  C   UNK N   1      27.474  21.001  -8.482  0.00  0.00     0.272 C 
HETATM   15  N   UNK N   1      27.987  21.700  -9.663  0.00  0.00     0.086 N 
HETATM   16  C   UNK N   1      26.825  22.214 -10.365  0.00  0.00     0.310 C 
HETATM   17  C   UNK N   1      28.792  22.864  -9.267  0.00  0.00     0.304 C 
HETATM   18  C   UNK N   1      30.005  22.459  -8.419  0.00  0.00     0.155 C 
BRANCH  18  19
HETATM   19  O   UNK N   1      30.866  21.668  -9.183  0.00  0.00    -0.393 OA
HETATM   20  H   UNK N   1      31.220  21.748 -10.083  0.00  0.00     0.210 HD
ENDBRANCH  18  19
ENDBRANCH   1  12
BRANCH   2  21
HETATM   21  O   UNK N   1      31.702  19.812  -6.721  0.00  0.00    -0.360 OA
HETATM   22  H   UNK N   1      31.594  20.078  -7.613  0.00  0.00     0.217 HD
ENDBRANCH   2  21
BRANCH   4  23
HETATM   23  O   UNK N   1      32.087  21.210  -2.221  0.00  0.00    -0.360 OA
HETATM   24  H   UNK N   1      31.585  21.174  -1.432  0.00  0.00     0.217 HD
ENDBRANCH   4  23
BRANCH   8  25
HETATM   25  C   UNK N   1      27.283  24.989  -4.569  0.00  0.00     0.020 A 
HETATM   26  C   UNK N   1      27.383  26.302  -4.069  0.00  0.00     0.016 A 
HETATM   27  C   UNK N   1      26.428  27.270  -4.373  0.00  0.00     0.001 A 
HETATM   28  C   UNK N   1      25.345  26.944  -5.185  0.00  0.00     0.002 A 
HETATM   29  C   UNK N   1      25.222  25.651  -5.693  0.00  0.00     0.025 A 
HETATM   30  C   UNK N   1      26.174  24.668  -5.400  0.00  0.00     0.047 A 
HETATM   31 Cl   UNK N   1      25.901  23.073  -6.089  0.00  0.00    -0.083 Cl
ENDBRANCH   8  25
TORSDOF 5
ENDMDL
MODEL 2
REMARK VINA RESULT:      -7.5     12.375     14.364
REMARK  5 active torsions:
REMARK  status: ('A' for Active; 'I' for Inactive)
REMARK    1  A    between atoms: C_5  and  C_9 
REMARK    2  A    between atoms: C_6  and  O_7 
REMARK    3  A    between atoms: C_10  and  O_11 
REMARK    4  A    between atoms: C_13  and  O_14 
REMARK    5  A    between atoms: C_18  and  C_22 
ROOT
HETATM    1  C   UNK N   1      20.674  17.776   3.282  0.00  0.00     0.017 A 
HETATM    2  C   UNK N   1      19.778  18.773   2.852  0.00  0.00     0.077 A 
HETATM    3  C   UNK N   1      20.239  20.078   2.646  0.00  0.00     0.074 A 
HETATM    4  C   UNK N   1      21.582  20.409   2.858  0.00  0.00     0.085 A 
HETATM    5  C   UNK N   1      22.490  19.419   3.297  0.00  0.00     0.082 A 
HETATM    6  C   UNK N   1      22.018  18.107   3.511  0.00  0.00     0.102 A 
HETATM    7  O   UNK N   1      22.843  17.160   3.941  0.00  0.00    -0.308 OA
HETATM    8  C   UNK N   1      24.130  17.358   4.199  0.00  0.00     0.091 A 
HETATM    9  C   UNK N   1      24.674  18.631   3.994  0.00  0.00     0.094 A 
HETATM   10  C   UNK N   1      23.857  19.667   3.539  0.00  0.00     0.190 A 
HETATM   11  O   UNK N   1      24.341  20.773   3.364  0.00  0.00    -0.287 OA
ENDROOT
BRANCH   1  12
HETATM   12  C   UNK N   1      20.286  16.335   3.517  0.00  0.00     0.056 C 
HETATM   13  C   UNK N   1      19.934  15.555   2.261  0.00  0.00     0.042 C 
HETATM   14  C   UNK N   1      20.252  14.092   2.536  0.00  0.00     0.272 C 
HETATM   15  N   UNK N   1      19.490  13.606   3.688  0.00  0.00     0.086 N 
HETATM   16  C   UNK N   1      19.913  12.234   3.902  0.00  0.00     0.310 C 
HETATM   17  C   UNK N   1      19.849  14.354   4.901  0.00  0.00     0.304 C 
HETATM   18  C   UNK N   1      19.547  15.853   4.759  0.00  0.00     0.155 C 
BRANCH  18  19
HETATM   19  O   UNK N   1      18.170  16.040   4.614  0.00  0.00    -0.393 OA
HETATM   20  H   UNK N   1      17.452  15.471   4.295  0.00  0.00     0.210 HD
ENDBRANCH  18  19
ENDBRANCH   1  12
BRANCH   2  21
HETATM   21  O   UNK N   1      18.483  18.497   2.634  0.00  0.00    -0.360 OA
HETATM   22  H   UNK N   1      18.072  17.788   3.089  0.00  0.00     0.217 HD
ENDBRANCH   2  21
BRANCH   4  23
HETATM   23  O   UNK N   1      21.982  21.676   2.643  0.00  0.00    -0.360 OA
HETATM   24  H   UNK N   1      21.859  22.070   1.802  0.00  0.00     0.217 HD
ENDBRANCH   4  23
BRANCH   8  25
HETATM   25  C   UNK N   1      24.910  16.203   4.729  0.00  0.00     0.020 A 
HETATM   26  C   UNK N   1      24.662  15.835   6.065  0.00  0.00     0.016 A 
HETATM   27  C   UNK N   1      25.350  14.784   6.668  0.00  0.00     0.001 A 
HETATM   28  C   UNK N   1      26.308  14.078   5.947  0.00  0.00     0.002 A 
HETATM   29  C   UNK N   1      26.574  14.422   4.622  0.00  0.00     0.025 A 
HETATM   30  C   UNK N   1      25.890  15.474   3.999  0.00  0.00     0.047 A 
HETATM   31 Cl   UNK N   1      26.322  15.820   2.331  0.00  0.00    -0.083 Cl
ENDBRANCH   8  25
TORSDOF 5
ENDMDL
MODEL 3
REMARK VINA RESULT:      -7.5     11.741     13.911
REMARK  5 active torsions:
REMARK  status: ('A' for Active; 'I' for Inactive)
REMARK    1  A    between atoms: C_5  and  C_9 
REMARK    2  A    between atoms: C_6  and  O_7 
REMARK    3  A    between atoms: C_10  and  O_11 
REMARK    4  A    between atoms: C_13  and  O_14 
REMARK    5  A    between atoms: C_18  and  C_22 
ROOT
HETATM    1  C   UNK N   1      21.421  17.036   4.058  0.00  0.00     0.017 A 
HETATM    2  C   UNK N   1      20.053  16.914   3.745  0.00  0.00     0.077 A 
HETATM    3  C   UNK N   1      19.405  17.943   3.053  0.00  0.00     0.074 A 
HETATM    4  C   UNK N   1      20.098  19.095   2.662  0.00  0.00     0.085 A 
HETATM    5  C   UNK N   1      21.468  19.233   2.976  0.00  0.00     0.082 A 
HETATM    6  C   UNK N   1      22.114  18.195   3.681  0.00  0.00     0.102 A 
HETATM    7  O   UNK N   1      23.397  18.305   4.007  0.00  0.00    -0.308 OA
HETATM    8  C   UNK N   1      24.150  19.357   3.712  0.00  0.00     0.091 A 
HETATM    9  C   UNK N   1      23.582  20.418   2.999  0.00  0.00     0.094 A 
HETATM   10  C   UNK N   1      22.239  20.360   2.625  0.00  0.00     0.190 A 
HETATM   11  O   UNK N   1      21.754  21.290   2.003  0.00  0.00    -0.287 OA
ENDROOT
BRANCH   1  12
HETATM   12  C   UNK N   1      22.219  15.979   4.784  0.00  0.00     0.056 C 
HETATM   13  C   UNK N   1      22.649  14.800   3.926  0.00  0.00     0.042 C 
HETATM   14  C   UNK N   1      23.931  14.247   4.532  0.00  0.00     0.272 C 
HETATM   15  N   UNK N   1      23.710  13.834   5.919  0.00  0.00     0.086 N 
HETATM   16  C   UNK N   1      24.998  13.387   6.418  0.00  0.00     0.310 C 
HETATM   17  C   UNK N   1      23.311  14.983   6.745  0.00  0.00     0.304 C 
HETATM   18  C   UNK N   1      22.005  15.618   6.248  0.00  0.00     0.155 C 
BRANCH  18  19
HETATM   19  O   UNK N   1      20.960  14.700   6.379  0.00  0.00    -0.393 OA
HETATM   20  H   UNK N   1      20.285  14.369   5.764  0.00  0.00     0.210 HD
ENDBRANCH  18  19
ENDBRANCH   1  12
BRANCH   2  21
HETATM   21  O   UNK N   1      19.354  15.824   4.100  0.00  0.00    -0.360 OA
HETATM   22  H   UNK N   1      19.783  14.994   4.167  0.00  0.00     0.217 HD
ENDBRANCH   2  21
BRANCH   4  23
HETATM   23  O   UNK N   1      19.435  20.057   1.994  0.00  0.00    -0.360 OA
HETATM   24  H   UNK N   1      18.503  20.010   1.906  0.00  0.00     0.217 HD
ENDBRANCH   4  23
BRANCH   8  25
HETATM   25  C   UNK N   1      25.561  19.350   4.196  0.00  0.00     0.020 A 
HETATM   26  C   UNK N   1      25.988  20.488   4.907  0.00  0.00     0.016 A 
HETATM   27  C   UNK N   1      27.291  20.597   5.387  0.00  0.00     0.001 A 
HETATM   28  C   UNK N   1      28.201  19.568   5.163  0.00  0.00     0.002 A 
HETATM   29  C   UNK N   1      27.804  18.430   4.462  0.00  0.00     0.025 A 
HETATM   30  C   UNK N   1      26.497  18.302   3.975  0.00  0.00     0.047 A 
HETATM   31 Cl   UNK N   1      26.121  16.827   3.096  0.00  0.00    -0.083 Cl
ENDBRANCH   8  25
TORSDOF 5
ENDMDL
MODEL 4
REMARK VINA RESULT:      -7.3     12.432     15.385
REMARK  5 active torsions:
REMARK  status: ('A' for Active; 'I' for Inactive)
REMARK    1  A    between atoms: C_5  and  C_9 
REMARK    2  A    between atoms: C_6  and  O_7 
REMARK    3  A    between atoms: C_10  and  O_11 
REMARK    4  A    between atoms: C_13  and  O_14 
REMARK    5  A    between atoms: C_18  and  C_22 
ROOT
HETATM    1  C   UNK N   1      30.514  17.513   8.042  0.00  0.00     0.017 A 
HETATM    2  C   UNK N   1      29.674  18.292   8.861  0.00  0.00     0.077 A 
HETATM    3  C   UNK N   1      28.478  18.801   8.345  0.00  0.00     0.074 A 
HETATM    4  C   UNK N   1      28.098  18.545   7.023  0.00  0.00     0.085 A 
HETATM    5  C   UNK N   1      28.935  17.772   6.187  0.00  0.00     0.082 A 
HETATM    6  C   UNK N   1      30.144  17.268   6.711  0.00  0.00     0.102 A 
HETATM    7  O   UNK N   1      30.960  16.553   5.944  0.00  0.00    -0.308 OA
HETATM    8  C   UNK N   1      30.719  16.266   4.672  0.00  0.00     0.091 A 
HETATM    9  C   UNK N   1      29.531  16.718   4.087  0.00  0.00     0.094 A 
HETATM   10  C   UNK N   1      28.631  17.470   4.843  0.00  0.00     0.190 A 
HETATM   11  O   UNK N   1      27.598  17.859   4.325  0.00  0.00    -0.287 OA
ENDROOT
BRANCH   1  12
HETATM   12  C   UNK N   1      31.815  16.902   8.504  0.00  0.00     0.056 C 
HETATM   13  C   UNK N   1      33.066  17.584   7.975  0.00  0.00     0.042 C 
HETATM   14  C   UNK N   1      34.169  17.356   8.998  0.00  0.00     0.272 C 
HETATM   15  N   UNK N   1      34.398  15.924   9.201  0.00  0.00     0.086 N 
HETATM   16  C   UNK N   1      35.413  15.819  10.233  0.00  0.00     0.310 C 
HETATM   17  C   UNK N   1      33.189  15.276   9.729  0.00  0.00     0.304 C 
HETATM   18  C   UNK N   1      32.000  15.412   8.767  0.00  0.00     0.155 C 
BRANCH  18  19
HETATM   19  O   UNK N   1      32.283  14.737   7.577  0.00  0.00    -0.393 OA
HETATM   20  H   UNK N   1      32.746  14.990   6.762  0.00  0.00     0.210 HD
ENDBRANCH  18  19
ENDBRANCH   1  12
BRANCH   2  21
HETATM   21  O   UNK N   1      30.001  18.558  10.136  0.00  0.00    -0.360 OA
HETATM   22  H   UNK N   1      29.795  19.393  10.508  0.00  0.00     0.217 HD
ENDBRANCH   2  21
BRANCH   4  23
HETATM   23  O   UNK N   1      26.937  19.052   6.570  0.00  0.00    -0.360 OA
HETATM   24  H   UNK N   1      26.255  18.478   6.281  0.00  0.00     0.217 HD
ENDBRANCH   4  23
BRANCH   8  25
HETATM   25  C   UNK N   1      31.762  15.498   3.932  0.00  0.00     0.020 A 
HETATM   26  C   UNK N   1      32.752  16.253   3.275  0.00  0.00     0.016 A 
HETATM   27  C   UNK N   1      33.763  15.640   2.536  0.00  0.00     0.001 A 
HETATM   28  C   UNK N   1      33.802  14.253   2.435  0.00  0.00     0.002 A 
HETATM   29  C   UNK N   1      32.834  13.481   3.075  0.00  0.00     0.025 A 
HETATM   30  C   UNK N   1      31.814  14.081   3.824  0.00  0.00     0.047 A 
HETATM   31 Cl   UNK N   1      30.644  13.002   4.573  0.00  0.00    -0.083 Cl
ENDBRANCH   8  25
TORSDOF 5
ENDMDL
MODEL 5
REMARK VINA RESULT:      -7.3     11.792     14.748
REMARK  5 active torsions:
REMARK  status: ('A' for Active; 'I' for Inactive)
REMARK    1  A    between atoms: C_5  and  C_9 
REMARK    2  A    between atoms: C_6  and  O_7 
REMARK    3  A    between atoms: C_10  and  O_11 
REMARK    4  A    between atoms: C_13  and  O_14 
REMARK    5  A    between atoms: C_18  and  C_22 
ROOT
HETATM    1  C   UNK N   1      29.930  16.932   4.963  0.00  0.00     0.017 A 
HETATM    2  C   UNK N   1      28.770  17.424   4.334  0.00  0.00     0.077 A 
HETATM    3  C   UNK N   1      27.849  18.179   5.068  0.00  0.00     0.074 A 
HETATM    4  C   UNK N   1      28.064  18.457   6.423  0.00  0.00     0.085 A 
HETATM    5  C   UNK N   1      29.219  17.962   7.068  0.00  0.00     0.082 A 
HETATM    6  C   UNK N   1      30.141  17.195   6.324  0.00  0.00     0.102 A 
HETATM    7  O   UNK N   1      31.226  16.701   6.908  0.00  0.00    -0.308 OA
HETATM    8  C   UNK N   1      31.525  16.877   8.189  0.00  0.00     0.091 A 
HETATM    9  C   UNK N   1      30.667  17.642   8.986  0.00  0.00     0.094 A 
HETATM   10  C   UNK N   1      29.511  18.191   8.429  0.00  0.00     0.190 A 
HETATM   11  O   UNK N   1      28.769  18.856   9.132  0.00  0.00    -0.287 OA
ENDROOT
BRANCH   1  12
HETATM   12  C   UNK N   1      30.994  16.124   4.259  0.00  0.00     0.056 C 
HETATM   13  C   UNK N   1      31.869  16.915   3.300  0.00  0.00     0.042 C 
HETATM   14  C   UNK N   1      33.218  16.213   3.237  0.00  0.00     0.272 C 
HETATM   15  N   UNK N   1      33.058  14.829   2.784  0.00  0.00     0.086 N 
HETATM   16  C   UNK N   1      34.383  14.237   2.822  0.00  0.00     0.310 C 
HETATM   17  C   UNK N   1      32.226  14.067   3.726  0.00  0.00     0.304 C 
HETATM   18  C   UNK N   1      30.818  14.665   3.858  0.00  0.00     0.155 C 
BRANCH  18  19
HETATM   19  O   UNK N   1      30.154  14.571   2.632  0.00  0.00    -0.393 OA
HETATM   20  H   UNK N   1      29.788  15.231   2.022  0.00  0.00     0.210 HD
ENDBRANCH  18  19
ENDBRANCH   1  12
BRANCH   2  21
HETATM   21  O   UNK N   1      28.528  17.182   3.035  0.00  0.00    -0.360 OA
HETATM   22  H   UNK N   1      27.949  17.740   2.555  0.00  0.00     0.217 HD
ENDBRANCH   2  21
BRANCH   4  23
HETATM   23  O   UNK N   1      27.153  19.190   7.088  0.00  0.00    -0.360 OA
HETATM   24  H   UNK N   1      26.244  19.111   6.880  0.00  0.00     0.217 HD
ENDBRANCH   4  23
BRANCH   8  25
HETATM   25  C   UNK N   1      32.755  16.211   8.705  0.00  0.00     0.020 A 
HETATM   26  C   UNK N   1      32.604  14.896   9.187  0.00  0.00     0.016 A 
HETATM   27  C   UNK N   1      33.683  14.187   9.712  0.00  0.00     0.001 A 
HETATM   28  C   UNK N   1      34.940  14.781   9.771  0.00  0.00     0.002 A 
HETATM   29  C   UNK N   1      35.117  16.081   9.301  0.00  0.00     0.025 A 
HETATM   30  C   UNK N   1      34.045  16.807   8.767  0.00  0.00     0.047 A 
HETATM   31 Cl   UNK N   1      34.391  18.442   8.220  0.00  0.00    -0.083 Cl
ENDBRANCH   8  25
TORSDOF 5
ENDMDL
MODEL 6
REMARK VINA RESULT:      -7.3      2.488      5.624
REMARK  5 active torsions:
REMARK  status: ('A' for Active; 'I' for Inactive)
REMARK    1  A    between atoms: C_5  and  C_9 
REMARK    2  A    between atoms: C_6  and  O_7 
REMARK    3  A    between atoms: C_10  and  O_11 
REMARK    4  A    between atoms: C_13  and  O_14 
REMARK    5  A    between atoms: C_18  and  C_22 
ROOT
HETATM    1  C   UNK N   1      28.359  23.325  -5.037  0.00  0.00     0.017 A 
HETATM    2  C   UNK N   1      27.987  24.143  -3.953  0.00  0.00     0.077 A 
HETATM    3  C   UNK N   1      28.682  24.048  -2.742  0.00  0.00     0.074 A 
HETATM    4  C   UNK N   1      29.747  23.153  -2.591  0.00  0.00     0.085 A 
HETATM    5  C   UNK N   1      30.125  22.321  -3.669  0.00  0.00     0.082 A 
HETATM    6  C   UNK N   1      29.415  22.415  -4.885  0.00  0.00     0.102 A 
HETATM    7  O   UNK N   1      29.736  21.633  -5.909  0.00  0.00    -0.308 OA
HETATM    8  C   UNK N   1      30.709  20.731  -5.878  0.00  0.00     0.091 A 
HETATM    9  C   UNK N   1      31.468  20.593  -4.711  0.00  0.00     0.094 A 
HETATM   10  C   UNK N   1      31.182  21.389  -3.601  0.00  0.00     0.190 A 
HETATM   11  O   UNK N   1      31.849  21.261  -2.589  0.00  0.00    -0.287 OA
ENDROOT
BRANCH   1  12
HETATM   12  C   UNK N   1      27.689  23.359  -6.391  0.00  0.00     0.056 C 
HETATM   13  C   UNK N   1      28.122  24.506  -7.290  0.00  0.00     0.042 C 
HETATM   14  C   UNK N   1      27.947  24.041  -8.728  0.00  0.00     0.272 C 
HETATM   15  N   UNK N   1      26.554  23.669  -8.984  0.00  0.00     0.086 N 
HETATM   16  C   UNK N   1      26.510  23.183 -10.352  0.00  0.00     0.310 C 
HETATM   17  C   UNK N   1      26.149  22.548  -8.123  0.00  0.00     0.304 C 
HETATM   18  C   UNK N   1      26.255  22.904  -6.634  0.00  0.00     0.155 C 
BRANCH  18  19
HETATM   19  O   UNK N   1      25.358  23.932  -6.334  0.00  0.00    -0.393 OA
HETATM   20  H   UNK N   1      25.466  24.883  -6.170  0.00  0.00     0.210 HD
ENDBRANCH  18  19
ENDBRANCH   1  12
BRANCH   2  21
HETATM   21  O   UNK N   1      26.973  25.017  -4.058  0.00  0.00    -0.360 OA
HETATM   22  H   UNK N   1      27.150  25.936  -4.100  0.00  0.00     0.217 HD
ENDBRANCH   2  21
BRANCH   4  23
HETATM   23  O   UNK N   1      30.389  23.100  -1.410  0.00  0.00    -0.360 OA
HETATM   24  H   UNK N   1      30.863  22.329  -1.168  0.00  0.00     0.217 HD
ENDBRANCH   4  23
BRANCH   8  25
HETATM   25  C   UNK N   1      30.908  19.893  -7.095  0.00  0.00     0.020 A 
HETATM   26  C   UNK N   1      29.788  19.174  -7.555  0.00  0.00     0.016 A 
HETATM   27  C   UNK N   1      29.866  18.343  -8.671  0.00  0.00     0.001 A 
HETATM   28  C   UNK N   1      31.072  18.209  -9.352  0.00  0.00     0.002 A 
HETATM   29  C   UNK N   1      32.197  18.909  -8.918  0.00  0.00     0.025 A 
HETATM   30  C   UNK N   1      32.135  19.751  -7.800  0.00  0.00     0.047 A 
HETATM   31 Cl   UNK N   1      33.623  20.569  -7.343  0.00  0.00    -0.083 Cl
ENDBRANCH   8  25
TORSDOF 5
ENDMDL
MODEL 7
REMARK VINA RESULT:      -7.2     11.380     13.863
REMARK  5 active torsions:
REMARK  status: ('A' for Active; 'I' for Inactive)
REMARK    1  A    between atoms: C_5  and  C_9 
REMARK    2  A    between atoms: C_6  and  O_7 
REMARK    3  A    between atoms: C_10  and  O_11 
REMARK    4  A    between atoms: C_13  and  O_14 
REMARK    5  A    between atoms: C_18  and  C_22 
ROOT
HETATM    1  C   UNK N   1      22.555  17.523   4.416  0.00  0.00     0.017 A 
HETATM    2  C   UNK N   1      21.227  17.960   4.241  0.00  0.00     0.077 A 
HETATM    3  C   UNK N   1      20.978  19.206   3.655  0.00  0.00     0.074 A 
HETATM    4  C   UNK N   1      22.030  20.027   3.235  0.00  0.00     0.085 A 
HETATM    5  C   UNK N   1      23.366  19.605   3.412  0.00  0.00     0.082 A 
HETATM    6  C   UNK N   1      23.612  18.351   4.010  0.00  0.00     0.102 A 
HETATM    7  O   UNK N   1      24.858  17.935   4.206  0.00  0.00    -0.308 OA
HETATM    8  C   UNK N   1      25.935  18.635   3.871  0.00  0.00     0.091 A 
HETATM    9  C   UNK N   1      25.770  19.881   3.257  0.00  0.00     0.094 A 
HETATM   10  C   UNK N   1      24.485  20.371   3.021  0.00  0.00     0.190 A 
HETATM   11  O   UNK N   1      24.351  21.458   2.485  0.00  0.00    -0.287 OA
ENDROOT
BRANCH   1  12
HETATM   12  C   UNK N   1      22.934  16.192   5.019  0.00  0.00     0.056 C 
HETATM   13  C   UNK N   1      22.814  15.005   4.077  0.00  0.00     0.042 C 
HETATM   14  C   UNK N   1      23.823  13.963   4.535  0.00  0.00     0.272 C 
HETATM   15  N   UNK N   1      23.561  13.564   5.920  0.00  0.00     0.086 N 
HETATM   16  C   UNK N   1      24.610  12.625   6.275  0.00  0.00     0.310 C 
HETATM   17  C   UNK N   1      23.696  14.713   6.825  0.00  0.00     0.304 C 
HETATM   18  C   UNK N   1      22.704  15.832   6.482  0.00  0.00     0.155 C 
BRANCH  18  19
HETATM   19  O   UNK N   1      21.398  15.374   6.673  0.00  0.00    -0.393 OA
HETATM   20  H   UNK N   1      20.565  15.521   6.197  0.00  0.00     0.210 HD
ENDBRANCH  18  19
ENDBRANCH   1  12
BRANCH   2  21
HETATM   21  O   UNK N   1      20.190  17.200   4.628  0.00  0.00    -0.360 OA
HETATM   22  H   UNK N   1      20.080  16.983   5.533  0.00  0.00     0.217 HD
ENDBRANCH   2  21
BRANCH   4  23
HETATM   23  O   UNK N   1      21.742  21.215   2.673  0.00  0.00    -0.360 OA
HETATM   24  H   UNK N   1      21.100  21.270   1.993  0.00  0.00     0.217 HD
ENDBRANCH   4  23
BRANCH   8  25
HETATM   25  C   UNK N   1      27.265  18.051   4.208  0.00  0.00     0.020 A 
HETATM   26  C   UNK N   1      27.700  16.974   3.412  0.00  0.00     0.016 A 
HETATM   27  C   UNK N   1      28.917  16.339   3.651  0.00  0.00     0.001 A 
HETATM   28  C   UNK N   1      29.728  16.768   4.698  0.00  0.00     0.002 A 
HETATM   29  C   UNK N   1      29.322  17.832   5.502  0.00  0.00     0.025 A 
HETATM   30  C   UNK N   1      28.103  18.483   5.273  0.00  0.00     0.047 A 
HETATM   31 Cl   UNK N   1      27.695  19.802   6.362  0.00  0.00    -0.083 Cl
ENDBRANCH   8  25
TORSDOF 5
ENDMDL
MODEL 8
REMARK VINA RESULT:      -7.0     14.074     15.517
REMARK  5 active torsions:
REMARK  status: ('A' for Active; 'I' for Inactive)
REMARK    1  A    between atoms: C_5  and  C_9 
REMARK    2  A    between atoms: C_6  and  O_7 
REMARK    3  A    between atoms: C_10  and  O_11 
REMARK    4  A    between atoms: C_13  and  O_14 
REMARK    5  A    between atoms: C_18  and  C_22 
ROOT
HETATM    1  C   UNK N   1      20.481  16.361   2.540  0.00  0.00     0.017 A 
HETATM    2  C   UNK N   1      20.089  17.522   1.846  0.00  0.00     0.077 A 
HETATM    3  C   UNK N   1      20.175  18.768   2.474  0.00  0.00     0.074 A 
HETATM    4  C   UNK N   1      20.650  18.882   3.785  0.00  0.00     0.085 A 
HETATM    5  C   UNK N   1      21.039  17.724   4.496  0.00  0.00     0.082 A 
HETATM    6  C   UNK N   1      20.942  16.469   3.859  0.00  0.00     0.102 A 
HETATM    7  O   UNK N   1      21.283  15.361   4.509  0.00  0.00    -0.308 OA
HETATM    8  C   UNK N   1      21.724  15.340   5.760  0.00  0.00     0.091 A 
HETATM    9  C   UNK N   1      21.862  16.550   6.450  0.00  0.00     0.094 A 
HETATM   10  C   UNK N   1      21.524  17.748   5.821  0.00  0.00     0.190 A 
HETATM   11  O   UNK N   1      21.649  18.797   6.430  0.00  0.00    -0.287 OA
ENDROOT
BRANCH   1  12
HETATM   12  C   UNK N   1      20.445  14.971   1.950  0.00  0.00     0.056 C 
HETATM   13  C   UNK N   1      21.519  14.688   0.912  0.00  0.00     0.042 C 
HETATM   14  C   UNK N   1      21.797  13.192   0.949  0.00  0.00     0.272 C 
HETATM   15  N   UNK N   1      20.577  12.434   0.663  0.00  0.00     0.086 N 
HETATM   16  C   UNK N   1      20.935  11.032   0.786  0.00  0.00     0.310 C 
HETATM   17  C   UNK N   1      19.550  12.700   1.680  0.00  0.00     0.304 C 
HETATM   18  C   UNK N   1      19.160  14.184   1.724  0.00  0.00     0.155 C 
BRANCH  18  19
HETATM   19  O   UNK N   1      18.570  14.548   0.511  0.00  0.00    -0.393 OA
HETATM   20  H   UNK N   1      17.822  15.122   0.281  0.00  0.00     0.210 HD
ENDBRANCH  18  19
ENDBRANCH   1  12
BRANCH   2  21
HETATM   21  O   UNK N   1      19.631  17.456   0.585  0.00  0.00    -0.360 OA
HETATM   22  H   UNK N   1      19.825  16.708   0.054  0.00  0.00     0.217 HD
ENDBRANCH   2  21
BRANCH   4  23
HETATM   23  O   UNK N   1      20.720  20.102   4.348  0.00  0.00    -0.360 OA
HETATM   24  H   UNK N   1      21.488  20.358   4.820  0.00  0.00     0.217 HD
ENDBRANCH   4  23
BRANCH   8  25
HETATM   25  C   UNK N   1      22.013  14.008   6.364  0.00  0.00     0.020 A 
HETATM   26  C   UNK N   1      22.845  13.148   5.623  0.00  0.00     0.016 A 
HETATM   27  C   UNK N   1      23.164  11.871   6.083  0.00  0.00     0.001 A 
HETATM   28  C   UNK N   1      22.652  11.425   7.297  0.00  0.00     0.002 A 
HETATM   29  C   UNK N   1      21.825  12.256   8.051  0.00  0.00     0.025 A 
HETATM   30  C   UNK N   1      21.497  13.542   7.605  0.00  0.00     0.047 A 
HETATM   31 Cl   UNK N   1      20.435  14.491   8.637  0.00  0.00    -0.083 Cl
ENDBRANCH   8  25
TORSDOF 5
ENDMDL
MODEL 9
REMARK VINA RESULT:      -6.8     23.238     26.258
REMARK  5 active torsions:
REMARK  status: ('A' for Active; 'I' for Inactive)
REMARK    1  A    between atoms: C_5  and  C_9 
REMARK    2  A    between atoms: C_6  and  O_7 
REMARK    3  A    between atoms: C_10  and  O_11 
REMARK    4  A    between atoms: C_13  and  O_14 
REMARK    5  A    between atoms: C_18  and  C_22 
ROOT
HETATM    1  C   UNK N   1      36.493   9.394  17.447  0.00  0.00     0.017 A 
HETATM    2  C   UNK N   1      36.577   8.688  18.662  0.00  0.00     0.077 A 
HETATM    3  C   UNK N   1      36.211   9.317  19.858  0.00  0.00     0.074 A 
HETATM    4  C   UNK N   1      35.758  10.641  19.865  0.00  0.00     0.085 A 
HETATM    5  C   UNK N   1      35.677  11.364  18.654  0.00  0.00     0.082 A 
HETATM    6  C   UNK N   1      36.055  10.727  17.452  0.00  0.00     0.102 A 
HETATM    7  O   UNK N   1      36.007  11.387  16.301  0.00  0.00    -0.308 OA
HETATM    8  C   UNK N   1      35.618  12.650  16.185  0.00  0.00     0.091 A 
HETATM    9  C   UNK N   1      35.213  13.342  17.332  0.00  0.00     0.094 A 
HETATM   10  C   UNK N   1      35.237  12.702  18.571  0.00  0.00     0.190 A 
HETATM   11  O   UNK N   1      34.881  13.313  19.565  0.00  0.00    -0.287 OA
ENDROOT
BRANCH   1  12
HETATM   12  C   UNK N   1      36.845   8.806  16.102  0.00  0.00     0.056 C 
HETATM   13  C   UNK N   1      35.772   7.917  15.492  0.00  0.00     0.042 C 
HETATM   14  C   UNK N   1      35.934   7.990  13.981  0.00  0.00     0.272 C 
HETATM   15  N   UNK N   1      37.272   7.549  13.582  0.00  0.00     0.086 N 
HETATM   16  C   UNK N   1      37.341   7.718  12.142  0.00  0.00     0.310 C 
HETATM   17  C   UNK N   1      38.301   8.423  14.162  0.00  0.00     0.304 C 
HETATM   18  C   UNK N   1      38.260   8.415  15.696  0.00  0.00     0.155 C 
BRANCH  18  19
HETATM   19  O   UNK N   1      38.568   7.135  16.165  0.00  0.00    -0.393 OA
HETATM   20  H   UNK N   1      38.660   6.757  17.054  0.00  0.00     0.210 HD
ENDBRANCH  18  19
ENDBRANCH   1  12
BRANCH   2  21
HETATM   21  O   UNK N   1      37.003   7.415  18.698  0.00  0.00    -0.360 OA
HETATM   22  H   UNK N   1      37.541   7.082  18.008  0.00  0.00     0.217 HD
ENDBRANCH   2  21
BRANCH   4  23
HETATM   23  O   UNK N   1      35.414  11.204  21.037  0.00  0.00    -0.360 OA
HETATM   24  H   UNK N   1      35.095  10.671  21.738  0.00  0.00     0.217 HD
ENDBRANCH   4  23
BRANCH   8  25
HETATM   25  C   UNK N   1      35.672  13.264  14.827  0.00  0.00     0.020 A 
HETATM   26  C   UNK N   1      34.953  12.608  13.810  0.00  0.00     0.016 A 
HETATM   27  C   UNK N   1      34.951  13.083  12.500  0.00  0.00     0.001 A 
HETATM   28  C   UNK N   1      35.675  14.226  12.176  0.00  0.00     0.002 A 
HETATM   29  C   UNK N   1      36.397  14.895  13.164  0.00  0.00     0.025 A 
HETATM   30  C   UNK N   1      36.407  14.433  14.486  0.00  0.00     0.047 A 
HETATM   31 Cl   UNK N   1      37.364  15.354  15.638  0.00  0.00    -0.083 Cl
ENDBRANCH   8  25
TORSDOF 5
ENDMDL
