REMARK  5 active torsions:
REMARK  status: ('A' for Active; 'I' for Inactive)
REMARK    1  A    between atoms: C_5  and  C_9 
REMARK    2  A    between atoms: C_6  and  O_7 
REMARK    3  A    between atoms: C_10  and  O_11 
REMARK    4  A    between atoms: C_13  and  O_14 
REMARK    5  A    between atoms: C_18  and  C_22 
ROOT
HETATM    1  C   UNK N   1      -0.793  -0.235   0.015  0.00  0.00     0.017 A 
HETATM    2  C   UNK N   1      -2.022  -0.922   0.024  0.00  0.00     0.077 A 
HETATM    3  C   UNK N   1      -2.035  -2.321   0.036  0.00  0.00     0.074 A 
HETATM    4  C   UNK N   1      -0.842  -3.052   0.043  0.00  0.00     0.085 A 
HETATM    5  C   UNK N   1       0.398  -2.375   0.026  0.00  0.00     0.082 A 
HETATM    6  C   UNK N   1       0.405  -0.964   0.006  0.00  0.00     0.102 A 
HETATM    7  O   UNK N   1       1.555  -0.301  -0.029  0.00  0.00    -0.308 OA
HETATM    8  C   UNK N   1       2.747  -0.883  -0.049  0.00  0.00     0.091 A 
HETATM    9  C   UNK N   1       2.820  -2.280  -0.014  0.00  0.00     0.094 A 
HETATM   10  C   UNK N   1       1.646  -3.033   0.027  0.00  0.00     0.190 A 
HETATM   11  O   UNK N   1       1.720  -4.250   0.058  0.00  0.00    -0.287 OA
ENDROOT
BRANCH   1  12
HETATM   12  C   UNK N   1      -0.666   1.270   0.020  0.00  0.00     0.056 C 
HETATM   13  C   UNK N   1      -0.034   1.855   1.273  0.00  0.00     0.042 C 
HETATM   14  C   UNK N   1       0.637   3.160   0.871  0.00  0.00     0.272 C 
HETATM   15  N   UNK N   1      -0.339   4.086   0.293  0.00  0.00     0.086 N 
HETATM   16  C   UNK N   1       0.410   5.262  -0.112  0.00  0.00     0.310 C 
HETATM   17  C   UNK N   1      -0.932   3.520  -0.927  0.00  0.00     0.304 C 
HETATM   18  C   UNK N   1      -1.669   2.203  -0.647  0.00  0.00     0.155 C 
BRANCH  18  19
HETATM   19  O   UNK N   1      -2.752   2.445   0.202  0.00  0.00    -0.393 OA
HETATM   20  H   UNK N   1      -2.983   3.180   0.792  0.00  0.00     0.210 HD
ENDBRANCH  18  19
ENDBRANCH   1  12
BRANCH   2  21
HETATM   21  O   UNK N   1      -3.189  -0.258   0.021  0.00  0.00    -0.360 OA
HETATM   22  H   UNK N   1      -3.195   0.679   0.019  0.00  0.00     0.217 HD
ENDBRANCH   2  21
BRANCH   4  23
HETATM   23  O   UNK N   1      -0.903  -4.396   0.059  0.00  0.00    -0.360 OA
HETATM   24  H   UNK N   1      -1.734  -4.828   0.071  0.00  0.00     0.217 HD
ENDBRANCH   4  23
BRANCH   8  25
HETATM   25  C   UNK N   1       3.943   0.003  -0.143  0.00  0.00     0.020 A 
HETATM   26  C   UNK N   1       3.700   1.390  -0.156  0.00  0.00     0.016 A 
HETATM   27  C   UNK N   1       4.742   2.309  -0.262  0.00  0.00     0.001 A 
HETATM   28  C   UNK N   1       6.055   1.859  -0.362  0.00  0.00     0.002 A 
HETATM   29  C   UNK N   1       6.324   0.491  -0.352  0.00  0.00     0.025 A 
HETATM   30  C   UNK N   1       5.289  -0.446  -0.243  0.00  0.00     0.047 A 
HETATM   31 Cl   UNK N   1       5.753  -2.142  -0.255  0.00  0.00    -0.083 Cl
ENDBRANCH   8  25
TORSDOF 5
