MODEL 1
REMARK VINA RESULT:      -3.5      0.000      0.000
REMARK  3 active torsions:
REMARK  status: ('A' for Active; 'I' for Inactive)
REMARK    1  A    between atoms: O_1  and  C_2 
REMARK    2  A    between atoms: C_2  and  C_3 
REMARK    3  A    between atoms: C_3  and  O_4 
ROOT
HETATM    1  C   UNK N   1      21.010  20.838   2.592  0.00  0.00     0.164 C 
HETATM    2  O   UNK N   1      20.333  20.646   3.591  0.00  0.00    -0.648 OA
ENDROOT
BRANCH   1   3
HETATM    3  C   UNK N   1      20.778  20.046   1.340  0.00  0.00     0.273 C 
BRANCH   3   4
HETATM    4  O   UNK N   1      20.801  20.858   0.205  0.00  0.00    -0.391 OA
HETATM    5  H   UNK N   1      20.108  21.523   0.070  0.00  0.00     0.210 HD
ENDBRANCH   3   4
ENDBRANCH   1   3
BRANCH   1   6
HETATM    6  O   UNK N   1      21.977  21.773   2.613  0.00  0.00    -0.775 OA
HETATM    7  H   UNK N   1      22.542  21.846   3.357  0.00  0.00     0.167 HD
ENDBRANCH   1   6
TORSDOF 3
ENDMDL
MODEL 2
REMARK VINA RESULT:      -3.5     14.848     15.524
REMARK  3 active torsions:
REMARK  status: ('A' for Active; 'I' for Inactive)
REMARK    1  A    between atoms: O_1  and  C_2 
REMARK    2  A    between atoms: C_2  and  C_3 
REMARK    3  A    between atoms: C_3  and  O_4 
ROOT
HETATM    1  C   UNK N   1      34.603  18.246   8.065  0.00  0.00     0.164 C 
HETATM    2  O   UNK N   1      34.454  18.139   6.857  0.00  0.00    -0.648 OA
ENDROOT
BRANCH   1   3
HETATM    3  C   UNK N   1      34.004  17.243   9.006  0.00  0.00     0.273 C 
BRANCH   3   4
HETATM    4  O   UNK N   1      34.677  17.219  10.229  0.00  0.00    -0.391 OA
HETATM    5  H   UNK N   1      34.286  17.647  11.007  0.00  0.00     0.210 HD
ENDBRANCH   3   4
ENDBRANCH   1   3
BRANCH   1   6
HETATM    6  O   UNK N   1      35.313  19.276   8.561  0.00  0.00    -0.775 OA
HETATM    7  H   UNK N   1      34.929  20.129   8.609  0.00  0.00     0.167 HD
ENDBRANCH   1   6
TORSDOF 3
ENDMDL
MODEL 3
REMARK VINA RESULT:      -3.5      0.971      2.818
REMARK  3 active torsions:
REMARK  status: ('A' for Active; 'I' for Inactive)
REMARK    1  A    between atoms: O_1  and  C_2 
REMARK    2  A    between atoms: C_2  and  C_3 
REMARK    3  A    between atoms: C_3  and  O_4 
ROOT
HETATM    1  C   UNK N   1      20.853  20.262   0.909  0.00  0.00     0.164 C 
HETATM    2  O   UNK N   1      21.241  21.032   0.044  0.00  0.00    -0.648 OA
ENDROOT
BRANCH   1   3
HETATM    3  C   UNK N   1      20.829  20.671   2.351  0.00  0.00     0.273 C 
BRANCH   3   4
HETATM    4  O   UNK N   1      21.798  21.637   2.628  0.00  0.00    -0.391 OA
HETATM    5  H   UNK N   1      21.567  22.579   2.600  0.00  0.00     0.210 HD
ENDBRANCH   3   4
ENDBRANCH   1   3
BRANCH   1   6
HETATM    6  O   UNK N   1      20.441  19.028   0.566  0.00  0.00    -0.775 OA
HETATM    7  H   UNK N   1      21.049  18.315   0.562  0.00  0.00     0.167 HD
ENDBRANCH   1   6
TORSDOF 3
ENDMDL
MODEL 4
REMARK VINA RESULT:      -3.3     14.694     15.117
REMARK  3 active torsions:
REMARK  status: ('A' for Active; 'I' for Inactive)
REMARK    1  A    between atoms: O_1  and  C_2 
REMARK    2  A    between atoms: C_2  and  C_3 
REMARK    3  A    between atoms: C_3  and  O_4 
ROOT
HETATM    1  C   UNK N   1      34.658  18.268   8.128  0.00  0.00     0.164 C 
HETATM    2  O   UNK N   1      35.274  19.240   8.538  0.00  0.00    -0.648 OA
ENDROOT
BRANCH   1   3
HETATM    3  C   UNK N   1      34.161  17.216   9.073  0.00  0.00     0.273 C 
BRANCH   3   4
HETATM    4  O   UNK N   1      32.769  17.226   9.169  0.00  0.00    -0.391 OA
HETATM    5  H   UNK N   1      32.226  17.119   8.373  0.00  0.00     0.210 HD
ENDBRANCH   3   4
ENDBRANCH   1   3
BRANCH   1   6
HETATM    6  O   UNK N   1      34.421  18.137   6.810  0.00  0.00    -0.775 OA
HETATM    7  H   UNK N   1      33.552  18.250   6.477  0.00  0.00     0.167 HD
ENDBRANCH   1   6
TORSDOF 3
ENDMDL
MODEL 5
REMARK VINA RESULT:      -3.2      1.274      2.394
REMARK  3 active torsions:
REMARK  status: ('A' for Active; 'I' for Inactive)
REMARK    1  A    between atoms: O_1  and  C_2 
REMARK    2  A    between atoms: C_2  and  C_3 
REMARK    3  A    between atoms: C_3  and  O_4 
ROOT
HETATM    1  C   UNK N   1      20.880  20.388   1.250  0.00  0.00     0.164 C 
HETATM    2  O   UNK N   1      21.453  21.280   1.857  0.00  0.00    -0.648 OA
ENDROOT
BRANCH   1   3
HETATM    3  C   UNK N   1      20.460  19.129   1.947  0.00  0.00     0.273 C 
BRANCH   3   4
HETATM    4  O   UNK N   1      19.111  19.165   2.307  0.00  0.00    -0.391 OA
HETATM    5  H   UNK N   1      18.855  19.082   3.239  0.00  0.00     0.210 HD
ENDBRANCH   3   4
ENDBRANCH   1   3
BRANCH   1   6
HETATM    6  O   UNK N   1      20.621  20.535  -0.062  0.00  0.00    -0.775 OA
HETATM    7  H   UNK N   1      19.999  21.174  -0.348  0.00  0.00     0.167 HD
ENDBRANCH   1   6
TORSDOF 3
ENDMDL
MODEL 6
REMARK VINA RESULT:      -3.1     16.986     17.556
REMARK  3 active torsions:
REMARK  status: ('A' for Active; 'I' for Inactive)
REMARK    1  A    between atoms: O_1  and  C_2 
REMARK    2  A    between atoms: C_2  and  C_3 
REMARK    3  A    between atoms: C_3  and  O_4 
ROOT
HETATM    1  C   UNK N   1      35.659  16.165  10.733  0.00  0.00     0.164 C 
HETATM    2  O   UNK N   1      35.158  17.278  10.691  0.00  0.00    -0.648 OA
ENDROOT
BRANCH   1   3
HETATM    3  C   UNK N   1      34.816  14.935  10.576  0.00  0.00     0.273 C 
BRANCH   3   4
HETATM    4  O   UNK N   1      33.622  15.034  11.292  0.00  0.00    -0.391 OA
HETATM    5  H   UNK N   1      32.772  14.998  10.827  0.00  0.00     0.210 HD
ENDBRANCH   3   4
ENDBRANCH   1   3
BRANCH   1   6
HETATM    6  O   UNK N   1      36.985  16.038  10.924  0.00  0.00    -0.775 OA
HETATM    7  H   UNK N   1      37.572  16.122  10.199  0.00  0.00     0.167 HD
ENDBRANCH   1   6
TORSDOF 3
ENDMDL
MODEL 7
REMARK VINA RESULT:      -3.1     14.702     15.127
REMARK  3 active torsions:
REMARK  status: ('A' for Active; 'I' for Inactive)
REMARK    1  A    between atoms: O_1  and  C_2 
REMARK    2  A    between atoms: C_2  and  C_3 
REMARK    3  A    between atoms: C_3  and  O_4 
ROOT
HETATM    1  C   UNK N   1      34.502  18.187   8.392  0.00  0.00     0.164 C 
HETATM    2  O   UNK N   1      35.255  19.147   8.457  0.00  0.00    -0.648 OA
ENDROOT
BRANCH   1   3
HETATM    3  C   UNK N   1      33.883  17.780   7.088  0.00  0.00     0.273 C 
BRANCH   3   4
HETATM    4  O   UNK N   1      34.718  16.925   6.367  0.00  0.00    -0.391 OA
HETATM    5  H   UNK N   1      35.446  17.289   5.839  0.00  0.00     0.210 HD
ENDBRANCH   3   4
ENDBRANCH   1   3
BRANCH   1   6
HETATM    6  O   UNK N   1      34.222  17.483   9.504  0.00  0.00    -0.775 OA
HETATM    7  H   UNK N   1      33.835  17.909  10.243  0.00  0.00     0.167 HD
ENDBRANCH   1   6
TORSDOF 3
ENDMDL
MODEL 8
REMARK VINA RESULT:      -3.0     22.537     23.256
REMARK  3 active torsions:
REMARK  status: ('A' for Active; 'I' for Inactive)
REMARK    1  A    between atoms: O_1  and  C_2 
REMARK    2  A    between atoms: C_2  and  C_3 
REMARK    3  A    between atoms: C_3  and  O_4 
ROOT
HETATM    1  C   UNK N   1      43.506  22.747   3.714  0.00  0.00     0.164 C 
HETATM    2  O   UNK N   1      42.564  22.435   3.002  0.00  0.00    -0.648 OA
ENDROOT
BRANCH   1   3
HETATM    3  C   UNK N   1      44.587  21.759   4.037  0.00  0.00     0.273 C 
BRANCH   3   4
HETATM    4  O   UNK N   1      45.819  22.388   4.228  0.00  0.00    -0.391 OA
HETATM    5  H   UNK N   1      46.385  22.588   3.467  0.00  0.00     0.210 HD
ENDBRANCH   3   4
ENDBRANCH   1   3
BRANCH   1   6
HETATM    6  O   UNK N   1      43.578  23.993   4.217  0.00  0.00    -0.775 OA
HETATM    7  H   UNK N   1      43.047  24.233   4.950  0.00  0.00     0.167 HD
ENDBRANCH   1   6
TORSDOF 3
ENDMDL
MODEL 9
REMARK VINA RESULT:      -3.0      1.451      2.252
REMARK  3 active torsions:
REMARK  status: ('A' for Active; 'I' for Inactive)
REMARK    1  A    between atoms: O_1  and  C_2 
REMARK    2  A    between atoms: C_2  and  C_3 
REMARK    3  A    between atoms: C_3  and  O_4 
ROOT
HETATM    1  C   UNK N   1      20.261  20.032   3.038  0.00  0.00     0.164 C 
HETATM    2  O   UNK N   1      20.560  20.024   4.223  0.00  0.00    -0.648 OA
ENDROOT
BRANCH   1   3
HETATM    3  C   UNK N   1      21.051  20.838   2.051  0.00  0.00     0.273 C 
BRANCH   3   4
HETATM    4  O   UNK N   1      21.925  21.720   2.688  0.00  0.00    -0.391 OA
HETATM    5  H   UNK N   1      21.598  22.566   3.030  0.00  0.00     0.210 HD
ENDBRANCH   3   4
ENDBRANCH   1   3
BRANCH   1   6
HETATM    6  O   UNK N   1      19.211  19.308   2.611  0.00  0.00    -0.775 OA
HETATM    7  H   UNK N   1      19.237  18.895   1.770  0.00  0.00     0.167 HD
ENDBRANCH   1   6
TORSDOF 3
ENDMDL
