REMARK  6 active torsions:
REMARK  status: ('A' for Active; 'I' for Inactive)
REMARK    1  A    between atoms: O_1  and  C_2 
REMARK    2  A    between atoms: C_2  and  C_4 
REMARK    3  A    between atoms: C_4  and  C_5 
REMARK    4  A    between atoms: C_9  and  O_10 
REMARK    5  A    between atoms: O_10  and  C_11 
REMARK    6  A    between atoms: C_14  and  O_15 
ROOT
HETATM    1  C   UNK N   1       2.698  -0.164   0.072  0.00  0.00    -0.046 A 
HETATM    2  C   UNK N   1       3.759  -0.994   0.417  0.00  0.00     0.028 A 
HETATM    3  C   UNK N   1       3.658  -2.377   0.270  0.00  0.00     0.042 A 
HETATM    4  I   UNK N   1       5.332  -3.557   0.793  0.00  0.00    -0.042 I 
HETATM    5  C   UNK N   1       2.483  -2.971  -0.234  0.00  0.00     0.109 A 
HETATM    6  C   UNK N   1       1.407  -2.115  -0.628  0.00  0.00     0.042 A 
HETATM    7  I   UNK N   1      -0.383  -2.682  -1.620  0.00  0.00    -0.042 I 
HETATM    8  C   UNK N   1       1.540  -0.732  -0.466  0.00  0.00     0.028 A 
ENDROOT
BRANCH   5   9
HETATM    9  O   UNK N   1       2.493  -4.329  -0.360  0.00  0.00    -0.308 OA
BRANCH   9  10
HETATM   10  C   UNK N   1       1.526  -5.272  -0.208  0.00  0.00     0.077 A 
HETATM   11  C   UNK N   1       1.830  -6.588  -0.577  0.00  0.00     0.040 A 
HETATM   12  C   UNK N   1       0.882  -7.604  -0.436  0.00  0.00     0.040 A 
HETATM   13  C   UNK N   1      -0.385  -7.314   0.071  0.00  0.00     0.082 A 
HETATM   14  C   UNK N   1      -0.695  -6.004   0.463  0.00  0.00     0.042 A 
HETATM   15  I   UNK N   1      -2.615  -5.516   1.193  0.00  0.00    -0.042 I 
HETATM   16  C   UNK N   1       0.267  -4.994   0.343  0.00  0.00     0.058 A 
BRANCH  13  17
HETATM   17  O   UNK N   1      -1.299  -8.294   0.175  0.00  0.00    -0.359 OA
HETATM   18  H   UNK N   1      -2.209  -8.084   0.248  0.00  0.00     0.217 HD
ENDBRANCH  13  17
ENDBRANCH   9  10
ENDBRANCH   5   9
BRANCH   1  19
HETATM   19  C   UNK N   1       2.877   1.325   0.219  0.00  0.00     0.148 C 
BRANCH  19  20
HETATM   20  C   UNK N   1       1.649   2.202   0.182  0.00  0.00     0.143 C 
HETATM   21  O   UNK N   1       0.524   1.728   0.213  0.00  0.00    -0.650 OA
BRANCH  20  22
HETATM   22  O   UNK N   1       1.801   3.538   0.152  0.00  0.00    -0.776 OA
HETATM   23  H   UNK N   1       2.660   3.912   0.131  0.00  0.00     0.167 HD
ENDBRANCH  20  22
ENDBRANCH  19  20
ENDBRANCH   1  19
TORSDOF 6
