MODEL 1
REMARK VINA RESULT:      -5.0      0.000      0.000
REMARK  15 active torsions:
REMARK  status: ('A' for Active; 'I' for Inactive)
REMARK    1  A    between atoms: C_1  and  C_3 
REMARK    2  A    between atoms: C_2  and  C_4 
REMARK    3  A    between atoms: C_4  and  C_5 
REMARK    4  A    between atoms: C_6  and  C_7 
REMARK    5  A    between atoms: C_7  and  C_8 
REMARK    6  A    between atoms: C_9  and  C_10 
REMARK    7  A    between atoms: C_10  and  C_11 
REMARK    8  A    between atoms: C_12  and  C_13 
REMARK    9  A    between atoms: C_13  and  C_14 
REMARK   10  A    between atoms: C_15  and  C_16 
REMARK   11  A    between atoms: C_16  and  C_17 
REMARK   12  A    between atoms: C_18  and  C_19 
REMARK   13  A    between atoms: C_19  and  C_20 
REMARK   14  A    between atoms: C_20  and  C_21 
REMARK   15  A    between atoms: C_21  and  O_22 
ROOT
HETATM    1  C   UNK N   1      29.719  21.381  -6.480  0.00  0.00    -0.027 C 
HETATM    2  C   UNK N   1      30.454  20.391  -5.983  0.00  0.00    -0.027 C 
ENDROOT
BRANCH   2   3
HETATM    3  C   UNK N   1      31.249  20.580  -4.735  0.00  0.00     0.053 C 
BRANCH   3   4
HETATM    4  C   UNK N   1      30.419  21.349  -3.770  0.00  0.00    -0.027 C 
HETATM    5  C   UNK N   1      30.970  22.264  -2.980  0.00  0.00    -0.027 C 
BRANCH   5   6
HETATM    6  C   UNK N   1      30.081  23.103  -2.126  0.00  0.00     0.053 C 
BRANCH   6   7
HETATM    7  C   UNK N   1      28.667  23.125  -2.645  0.00  0.00    -0.027 C 
HETATM    8  C   UNK N   1      28.171  24.064  -3.470  0.00  0.00    -0.030 C 
BRANCH   8   9
HETATM    9  C   UNK N   1      28.953  25.262  -3.923  0.00  0.00     0.037 C 
BRANCH   9  10
HETATM   10  C   UNK N   1      29.622  25.044  -5.278  0.00  0.00     0.113 C 
BRANCH  10  11
HETATM   11  C   UNK N   1      31.036  25.538  -5.316  0.00  0.00     0.139 C 
HETATM   12  O   UNK N   1      31.757  25.410  -4.340  0.00  0.00    -0.650 OA
BRANCH  11  13
HETATM   13  O   UNK N   1      31.502  26.160  -6.413  0.00  0.00    -0.776 OA
HETATM   14  H   UNK N   1      31.059  26.267  -7.232  0.00  0.00     0.167 HD
ENDBRANCH  11  13
ENDBRANCH  10  11
ENDBRANCH   9  10
ENDBRANCH   8   9
ENDBRANCH   6   7
ENDBRANCH   5   6
ENDBRANCH   3   4
ENDBRANCH   2   3
BRANCH   1  15
HETATM   15  C   UNK N   1      28.938  21.159  -7.732  0.00  0.00     0.053 C 
BRANCH  15  16
HETATM   16  C   UNK N   1      27.542  21.661  -7.579  0.00  0.00    -0.027 C 
HETATM   17  C   UNK N   1      27.291  22.643  -6.713  0.00  0.00    -0.027 C 
BRANCH  17  18
HETATM   18  C   UNK N   1      25.899  23.140  -6.484  0.00  0.00     0.053 C 
BRANCH  18  19
HETATM   19  C   UNK N   1      25.884  24.574  -6.073  0.00  0.00    -0.027 C 
HETATM   20  C   UNK N   1      25.952  25.519  -7.006  0.00  0.00    -0.027 C 
BRANCH  20  21
HETATM   21  C   UNK N   1      25.945  26.962  -6.633  0.00  0.00     0.053 C 
BRANCH  21  22
HETATM   22  C   UNK N   1      25.033  27.171  -5.464  0.00  0.00    -0.027 C 
HETATM   23  C   UNK N   1      25.407  27.838  -4.367  0.00  0.00    -0.031 C 
BRANCH  23  24
HETATM   24  C   UNK N   1      26.780  28.408  -4.204  0.00  0.00     0.022 C 
HETATM   25  C   UNK N   1      26.702  29.920  -4.221  0.00  0.00     0.009 C 
ENDBRANCH  23  24
ENDBRANCH  21  22
ENDBRANCH  20  21
ENDBRANCH  18  19
ENDBRANCH  17  18
ENDBRANCH  15  16
ENDBRANCH   1  15
TORSDOF 15
ENDMDL
MODEL 2
REMARK VINA RESULT:      -5.0      2.101      3.440
REMARK  15 active torsions:
REMARK  status: ('A' for Active; 'I' for Inactive)
REMARK    1  A    between atoms: C_1  and  C_3 
REMARK    2  A    between atoms: C_2  and  C_4 
REMARK    3  A    between atoms: C_4  and  C_5 
REMARK    4  A    between atoms: C_6  and  C_7 
REMARK    5  A    between atoms: C_7  and  C_8 
REMARK    6  A    between atoms: C_9  and  C_10 
REMARK    7  A    between atoms: C_10  and  C_11 
REMARK    8  A    between atoms: C_12  and  C_13 
REMARK    9  A    between atoms: C_13  and  C_14 
REMARK   10  A    between atoms: C_15  and  C_16 
REMARK   11  A    between atoms: C_16  and  C_17 
REMARK   12  A    between atoms: C_18  and  C_19 
REMARK   13  A    between atoms: C_19  and  C_20 
REMARK   14  A    between atoms: C_20  and  C_21 
REMARK   15  A    between atoms: C_21  and  O_22 
ROOT
HETATM    1  C   UNK N   1      27.198  20.914  -8.722  0.00  0.00    -0.027 C 
HETATM    2  C   UNK N   1      28.140  20.461  -7.900  0.00  0.00    -0.027 C 
ENDROOT
BRANCH   2   3
HETATM    3  C   UNK N   1      28.996  19.300  -8.284  0.00  0.00     0.053 C 
BRANCH   3   4
HETATM    4  C   UNK N   1      30.335  19.488  -7.664  0.00  0.00    -0.027 C 
HETATM    5  C   UNK N   1      30.540  20.450  -6.772  0.00  0.00    -0.027 C 
BRANCH   5   6
HETATM    6  C   UNK N   1      31.859  20.515  -6.079  0.00  0.00     0.053 C 
BRANCH   6   7
HETATM    7  C   UNK N   1      31.758  20.069  -4.644  0.00  0.00    -0.027 C 
HETATM    8  C   UNK N   1      31.403  20.863  -3.620  0.00  0.00    -0.030 C 
BRANCH   8   9
HETATM    9  C   UNK N   1      31.129  22.331  -3.770  0.00  0.00     0.037 C 
BRANCH   9  10
HETATM   10  C   UNK N   1      29.656  22.675  -3.562  0.00  0.00     0.113 C 
BRANCH  10  11
HETATM   11  C   UNK N   1      29.323  22.970  -2.132  0.00  0.00     0.139 C 
HETATM   12  O   UNK N   1      28.163  23.137  -1.794  0.00  0.00    -0.650 OA
BRANCH  11  13
HETATM   13  O   UNK N   1      30.307  23.089  -1.224  0.00  0.00    -0.776 OA
HETATM   14  H   UNK N   1      30.591  22.440  -0.611  0.00  0.00     0.167 HD
ENDBRANCH  11  13
ENDBRANCH  10  11
ENDBRANCH   9  10
ENDBRANCH   8   9
ENDBRANCH   6   7
ENDBRANCH   5   6
ENDBRANCH   3   4
ENDBRANCH   2   3
BRANCH   1  15
HETATM   15  C   UNK N   1      26.357  22.074  -8.307  0.00  0.00     0.053 C 
BRANCH  15  16
HETATM   16  C   UNK N   1      26.808  22.610  -6.990  0.00  0.00    -0.027 C 
HETATM   17  C   UNK N   1      25.958  23.318  -6.247  0.00  0.00    -0.027 C 
BRANCH  17  18
HETATM   18  C   UNK N   1      26.381  23.923  -4.946  0.00  0.00     0.053 C 
BRANCH  18  19
HETATM   19  C   UNK N   1      26.303  25.413  -4.977  0.00  0.00    -0.027 C 
HETATM   20  C   UNK N   1      25.210  25.998  -5.458  0.00  0.00    -0.027 C 
BRANCH  20  21
HETATM   21  C   UNK N   1      25.100  27.483  -5.510  0.00  0.00     0.053 C 
BRANCH  21  22
HETATM   22  C   UNK N   1      25.392  28.052  -4.156  0.00  0.00    -0.027 C 
HETATM   23  C   UNK N   1      26.346  28.968  -3.949  0.00  0.00    -0.031 C 
BRANCH  23  24
HETATM   24  C   UNK N   1      27.219  29.480  -5.049  0.00  0.00     0.022 C 
HETATM   25  C   UNK N   1      28.657  29.093  -4.771  0.00  0.00     0.009 C 
ENDBRANCH  23  24
ENDBRANCH  21  22
ENDBRANCH  20  21
ENDBRANCH  18  19
ENDBRANCH  17  18
ENDBRANCH  15  16
ENDBRANCH   1  15
TORSDOF 15
ENDMDL
MODEL 3
REMARK VINA RESULT:      -4.8      2.080      6.955
REMARK  15 active torsions:
REMARK  status: ('A' for Active; 'I' for Inactive)
REMARK    1  A    between atoms: C_1  and  C_3 
REMARK    2  A    between atoms: C_2  and  C_4 
REMARK    3  A    between atoms: C_4  and  C_5 
REMARK    4  A    between atoms: C_6  and  C_7 
REMARK    5  A    between atoms: C_7  and  C_8 
REMARK    6  A    between atoms: C_9  and  C_10 
REMARK    7  A    between atoms: C_10  and  C_11 
REMARK    8  A    between atoms: C_12  and  C_13 
REMARK    9  A    between atoms: C_13  and  C_14 
REMARK   10  A    between atoms: C_15  and  C_16 
REMARK   11  A    between atoms: C_16  and  C_17 
REMARK   12  A    between atoms: C_18  and  C_19 
REMARK   13  A    between atoms: C_19  and  C_20 
REMARK   14  A    between atoms: C_20  and  C_21 
REMARK   15  A    between atoms: C_21  and  O_22 
ROOT
HETATM    1  C   UNK N   1      26.834  28.548  -5.259  0.00  0.00    -0.027 C 
HETATM    2  C   UNK N   1      25.719  28.041  -4.743  0.00  0.00    -0.027 C 
ENDROOT
BRANCH   2   3
HETATM    3  C   UNK N   1      24.819  27.178  -5.563  0.00  0.00     0.053 C 
BRANCH   3   4
HETATM    4  C   UNK N   1      25.520  25.893  -5.823  0.00  0.00    -0.027 C 
HETATM    5  C   UNK N   1      25.656  24.988  -4.861  0.00  0.00    -0.027 C 
BRANCH   5   6
HETATM    6  C   UNK N   1      26.247  23.662  -5.203  0.00  0.00     0.053 C 
BRANCH   6   7
HETATM    7  C   UNK N   1      27.527  23.806  -5.983  0.00  0.00    -0.027 C 
HETATM    8  C   UNK N   1      28.759  23.727  -5.450  0.00  0.00    -0.030 C 
BRANCH   8   9
HETATM    9  C   UNK N   1      29.014  23.557  -3.981  0.00  0.00     0.037 C 
BRANCH   9  10
HETATM   10  C   UNK N   1      29.856  22.322  -3.673  0.00  0.00     0.113 C 
BRANCH  10  11
HETATM   11  C   UNK N   1      30.720  22.493  -2.462  0.00  0.00     0.139 C 
HETATM   12  O   UNK N   1      31.845  22.020  -2.439  0.00  0.00    -0.650 OA
BRANCH  11  13
HETATM   13  O   UNK N   1      30.244  23.137  -1.382  0.00  0.00    -0.776 OA
HETATM   14  H   UNK N   1      29.618  23.834  -1.371  0.00  0.00     0.167 HD
ENDBRANCH  11  13
ENDBRANCH  10  11
ENDBRANCH   9  10
ENDBRANCH   8   9
ENDBRANCH   6   7
ENDBRANCH   5   6
ENDBRANCH   3   4
ENDBRANCH   2   3
BRANCH   1  15
HETATM   15  C   UNK N   1      27.710  29.409  -4.413  0.00  0.00     0.053 C 
BRANCH  15  16
HETATM   16  C   UNK N   1      28.736  28.589  -3.708  0.00  0.00    -0.027 C 
HETATM   17  C   UNK N   1      29.624  27.897  -4.421  0.00  0.00    -0.027 C 
BRANCH  17  18
HETATM   18  C   UNK N   1      30.636  27.016  -3.761  0.00  0.00     0.053 C 
BRANCH  18  19
HETATM   19  C   UNK N   1      31.494  26.313  -4.758  0.00  0.00    -0.027 C 
HETATM   20  C   UNK N   1      32.173  25.232  -4.385  0.00  0.00    -0.027 C 
BRANCH  20  21
HETATM   21  C   UNK N   1      33.044  24.506  -5.352  0.00  0.00     0.053 C 
BRANCH  21  22
HETATM   22  C   UNK N   1      32.199  23.908  -6.433  0.00  0.00    -0.027 C 
HETATM   23  C   UNK N   1      32.133  22.590  -6.653  0.00  0.00    -0.031 C 
BRANCH  23  24
HETATM   24  C   UNK N   1      32.922  21.604  -5.853  0.00  0.00     0.022 C 
HETATM   25  C   UNK N   1      32.148  20.306  -5.750  0.00  0.00     0.009 C 
ENDBRANCH  23  24
ENDBRANCH  21  22
ENDBRANCH  20  21
ENDBRANCH  18  19
ENDBRANCH  17  18
ENDBRANCH  15  16
ENDBRANCH   1  15
TORSDOF 15
ENDMDL
MODEL 4
REMARK VINA RESULT:      -4.8      2.315      5.497
REMARK  15 active torsions:
REMARK  status: ('A' for Active; 'I' for Inactive)
REMARK    1  A    between atoms: C_1  and  C_3 
REMARK    2  A    between atoms: C_2  and  C_4 
REMARK    3  A    between atoms: C_4  and  C_5 
REMARK    4  A    between atoms: C_6  and  C_7 
REMARK    5  A    between atoms: C_7  and  C_8 
REMARK    6  A    between atoms: C_9  and  C_10 
REMARK    7  A    between atoms: C_10  and  C_11 
REMARK    8  A    between atoms: C_12  and  C_13 
REMARK    9  A    between atoms: C_13  and  C_14 
REMARK   10  A    between atoms: C_15  and  C_16 
REMARK   11  A    between atoms: C_16  and  C_17 
REMARK   12  A    between atoms: C_18  and  C_19 
REMARK   13  A    between atoms: C_19  and  C_20 
REMARK   14  A    between atoms: C_20  and  C_21 
REMARK   15  A    between atoms: C_21  and  O_22 
ROOT
HETATM    1  C   UNK N   1      26.332  26.969  -3.182  0.00  0.00    -0.027 C 
HETATM    2  C   UNK N   1      26.366  25.900  -3.972  0.00  0.00    -0.027 C 
ENDROOT
BRANCH   2   3
HETATM    3  C   UNK N   1      26.750  24.562  -3.433  0.00  0.00     0.053 C 
BRANCH   3   4
HETATM    4  C   UNK N   1      27.673  23.920  -4.406  0.00  0.00    -0.027 C 
HETATM    5  C   UNK N   1      28.226  24.627  -5.385  0.00  0.00    -0.027 C 
BRANCH   5   6
HETATM    6  C   UNK N   1      29.247  23.973  -6.254  0.00  0.00     0.053 C 
BRANCH   6   7
HETATM    7  C   UNK N   1      28.998  22.494  -6.391  0.00  0.00    -0.027 C 
HETATM    8  C   UNK N   1      29.711  21.539  -5.770  0.00  0.00    -0.030 C 
BRANCH   8   9
HETATM    9  C   UNK N   1      30.905  21.828  -4.908  0.00  0.00     0.037 C 
BRANCH   9  10
HETATM   10  C   UNK N   1      30.607  21.660  -3.420  0.00  0.00     0.113 C 
BRANCH  10  11
HETATM   11  C   UNK N   1      30.752  22.936  -2.650  0.00  0.00     0.139 C 
HETATM   12  O   UNK N   1      30.477  22.970  -1.461  0.00  0.00    -0.650 OA
BRANCH  11  13
HETATM   13  O   UNK N   1      31.151  24.057  -3.275  0.00  0.00    -0.776 OA
HETATM   14  H   UNK N   1      31.798  24.128  -3.949  0.00  0.00     0.167 HD
ENDBRANCH  11  13
ENDBRANCH  10  11
ENDBRANCH   9  10
ENDBRANCH   8   9
ENDBRANCH   6   7
ENDBRANCH   5   6
ENDBRANCH   3   4
ENDBRANCH   2   3
BRANCH   1  15
HETATM   15  C   UNK N   1      25.947  28.293  -3.752  0.00  0.00     0.053 C 
BRANCH  15  16
HETATM   16  C   UNK N   1      26.338  28.383  -5.187  0.00  0.00    -0.027 C 
HETATM   17  C   UNK N   1      27.606  28.646  -5.504  0.00  0.00    -0.027 C 
BRANCH  17  18
HETATM   18  C   UNK N   1      28.035  28.802  -6.928  0.00  0.00     0.053 C 
BRANCH  18  19
HETATM   19  C   UNK N   1      27.760  27.573  -7.728  0.00  0.00    -0.027 C 
HETATM   20  C   UNK N   1      28.167  27.515  -8.993  0.00  0.00    -0.027 C 
BRANCH  20  21
HETATM   21  C   UNK N   1      27.905  26.306  -9.824  0.00  0.00     0.053 C 
BRANCH  21  22
HETATM   22  C   UNK N   1      26.945  25.407  -9.109  0.00  0.00    -0.027 C 
HETATM   23  C   UNK N   1      25.646  25.340  -9.423  0.00  0.00    -0.031 C 
BRANCH  23  24
HETATM   24  C   UNK N   1      25.038  26.180 -10.499  0.00  0.00     0.022 C 
HETATM   25  C   UNK N   1      24.877  25.349 -11.755  0.00  0.00     0.009 C 
ENDBRANCH  23  24
ENDBRANCH  21  22
ENDBRANCH  20  21
ENDBRANCH  18  19
ENDBRANCH  17  18
ENDBRANCH  15  16
ENDBRANCH   1  15
TORSDOF 15
ENDMDL
MODEL 5
REMARK VINA RESULT:      -4.8      3.044      7.155
REMARK  15 active torsions:
REMARK  status: ('A' for Active; 'I' for Inactive)
REMARK    1  A    between atoms: C_1  and  C_3 
REMARK    2  A    between atoms: C_2  and  C_4 
REMARK    3  A    between atoms: C_4  and  C_5 
REMARK    4  A    between atoms: C_6  and  C_7 
REMARK    5  A    between atoms: C_7  and  C_8 
REMARK    6  A    between atoms: C_9  and  C_10 
REMARK    7  A    between atoms: C_10  and  C_11 
REMARK    8  A    between atoms: C_12  and  C_13 
REMARK    9  A    between atoms: C_13  and  C_14 
REMARK   10  A    between atoms: C_15  and  C_16 
REMARK   11  A    between atoms: C_16  and  C_17 
REMARK   12  A    between atoms: C_18  and  C_19 
REMARK   13  A    between atoms: C_19  and  C_20 
REMARK   14  A    between atoms: C_20  and  C_21 
REMARK   15  A    between atoms: C_21  and  O_22 
ROOT
HETATM    1  C   UNK N   1      27.400  30.157  -4.841  0.00  0.00    -0.027 C 
HETATM    2  C   UNK N   1      27.666  29.394  -3.786  0.00  0.00    -0.027 C 
ENDROOT
BRANCH   2   3
HETATM    3  C   UNK N   1      26.566  28.740  -3.017  0.00  0.00     0.053 C 
BRANCH   3   4
HETATM    4  C   UNK N   1      25.684  28.034  -3.983  0.00  0.00    -0.027 C 
HETATM    5  C   UNK N   1      26.094  26.928  -4.593  0.00  0.00    -0.027 C 
BRANCH   5   6
HETATM    6  C   UNK N   1      25.128  26.181  -5.449  0.00  0.00     0.053 C 
BRANCH   6   7
HETATM    7  C   UNK N   1      25.658  25.983  -6.846  0.00  0.00    -0.027 C 
HETATM    8  C   UNK N   1      25.888  24.786  -7.412  0.00  0.00    -0.030 C 
BRANCH   8   9
HETATM    9  C   UNK N   1      25.714  23.482  -6.689  0.00  0.00     0.037 C 
BRANCH   9  10
HETATM   10  C   UNK N   1      26.243  22.294  -7.489  0.00  0.00     0.113 C 
BRANCH  10  11
HETATM   11  C   UNK N   1      25.196  21.662  -8.354  0.00  0.00     0.139 C 
HETATM   12  O   UNK N   1      25.520  20.940  -9.282  0.00  0.00    -0.650 OA
BRANCH  11  13
HETATM   13  O   UNK N   1      23.895  21.920  -8.131  0.00  0.00    -0.776 OA
HETATM   14  H   UNK N   1      23.173  21.696  -8.685  0.00  0.00     0.167 HD
ENDBRANCH  11  13
ENDBRANCH  10  11
ENDBRANCH   9  10
ENDBRANCH   8   9
ENDBRANCH   6   7
ENDBRANCH   5   6
ENDBRANCH   3   4
ENDBRANCH   2   3
BRANCH   1  15
HETATM   15  C   UNK N   1      28.522  30.799  -5.586  0.00  0.00     0.053 C 
BRANCH  15  16
HETATM   16  C   UNK N   1      28.927  29.965  -6.753  0.00  0.00    -0.027 C 
HETATM   17  C   UNK N   1      28.179  28.917  -7.099  0.00  0.00    -0.027 C 
BRANCH  17  18
HETATM   18  C   UNK N   1      28.575  28.018  -8.226  0.00  0.00     0.053 C 
BRANCH  18  19
HETATM   19  C   UNK N   1      29.141  26.729  -7.734  0.00  0.00    -0.027 C 
HETATM   20  C   UNK N   1      29.290  26.540  -6.426  0.00  0.00    -0.027 C 
BRANCH  20  21
HETATM   21  C   UNK N   1      29.857  25.268  -5.898  0.00  0.00     0.053 C 
BRANCH  21  22
HETATM   22  C   UNK N   1      28.844  24.595  -5.024  0.00  0.00    -0.027 C 
HETATM   23  C   UNK N   1      28.956  23.318  -4.640  0.00  0.00    -0.031 C 
BRANCH  23  24
HETATM   24  C   UNK N   1      30.090  22.447  -5.076  0.00  0.00     0.022 C 
HETATM   25  C   UNK N   1      29.658  21.619  -6.269  0.00  0.00     0.009 C 
ENDBRANCH  23  24
ENDBRANCH  21  22
ENDBRANCH  20  21
ENDBRANCH  18  19
ENDBRANCH  17  18
ENDBRANCH  15  16
ENDBRANCH   1  15
TORSDOF 15
ENDMDL
MODEL 6
REMARK VINA RESULT:      -4.7      2.300      5.356
REMARK  15 active torsions:
REMARK  status: ('A' for Active; 'I' for Inactive)
REMARK    1  A    between atoms: C_1  and  C_3 
REMARK    2  A    between atoms: C_2  and  C_4 
REMARK    3  A    between atoms: C_4  and  C_5 
REMARK    4  A    between atoms: C_6  and  C_7 
REMARK    5  A    between atoms: C_7  and  C_8 
REMARK    6  A    between atoms: C_9  and  C_10 
REMARK    7  A    between atoms: C_10  and  C_11 
REMARK    8  A    between atoms: C_12  and  C_13 
REMARK    9  A    between atoms: C_13  and  C_14 
REMARK   10  A    between atoms: C_15  and  C_16 
REMARK   11  A    between atoms: C_16  and  C_17 
REMARK   12  A    between atoms: C_18  and  C_19 
REMARK   13  A    between atoms: C_19  and  C_20 
REMARK   14  A    between atoms: C_20  and  C_21 
REMARK   15  A    between atoms: C_21  and  O_22 
ROOT
HETATM    1  C   UNK N   1      27.771  20.110  -7.815  0.00  0.00    -0.027 C 
HETATM    2  C   UNK N   1      26.945  20.722  -8.657  0.00  0.00    -0.027 C 
ENDROOT
BRANCH   2   3
HETATM    3  C   UNK N   1      25.626  21.243  -8.192  0.00  0.00     0.053 C 
BRANCH   3   4
HETATM    4  C   UNK N   1      25.817  22.644  -7.733  0.00  0.00    -0.027 C 
HETATM    5  C   UNK N   1      25.619  22.975  -6.463  0.00  0.00    -0.027 C 
BRANCH   5   6
HETATM    6  C   UNK N   1      25.952  24.360  -6.022  0.00  0.00     0.053 C 
BRANCH   6   7
HETATM    7  C   UNK N   1      25.791  25.355  -7.140  0.00  0.00    -0.027 C 
HETATM    8  C   UNK N   1      25.438  26.641  -6.973  0.00  0.00    -0.030 C 
BRANCH   8   9
HETATM    9  C   UNK N   1      25.084  27.235  -5.641  0.00  0.00     0.037 C 
BRANCH   9  10
HETATM   10  C   UNK N   1      26.251  27.989  -5.008  0.00  0.00     0.113 C 
BRANCH  10  11
HETATM   11  C   UNK N   1      25.987  28.385  -3.588  0.00  0.00     0.139 C 
HETATM   12  O   UNK N   1      25.723  27.535  -2.753  0.00  0.00    -0.650 OA
BRANCH  11  13
HETATM   13  O   UNK N   1      26.004  29.683  -3.238  0.00  0.00    -0.776 OA
HETATM   14  H   UNK N   1      26.414  30.058  -2.483  0.00  0.00     0.167 HD
ENDBRANCH  11  13
ENDBRANCH  10  11
ENDBRANCH   9  10
ENDBRANCH   8   9
ENDBRANCH   6   7
ENDBRANCH   5   6
ENDBRANCH   3   4
ENDBRANCH   2   3
BRANCH   1  15
HETATM   15  C   UNK N   1      29.081  19.598  -8.312  0.00  0.00     0.053 C 
BRANCH  15  16
HETATM   16  C   UNK N   1      30.074  19.522  -7.202  0.00  0.00    -0.027 C 
HETATM   17  C   UNK N   1      30.211  20.558  -6.375  0.00  0.00    -0.027 C 
BRANCH  17  18
HETATM   18  C   UNK N   1      31.232  20.552  -5.282  0.00  0.00     0.053 C 
BRANCH  18  19
HETATM   19  C   UNK N   1      30.773  21.323  -4.090  0.00  0.00    -0.027 C 
HETATM   20  C   UNK N   1      29.902  22.316  -4.253  0.00  0.00    -0.027 C 
BRANCH  20  21
HETATM   21  C   UNK N   1      29.426  23.112  -3.087  0.00  0.00     0.053 C 
BRANCH  21  22
HETATM   22  C   UNK N   1      28.665  24.305  -3.575  0.00  0.00    -0.027 C 
HETATM   23  C   UNK N   1      29.245  25.491  -3.793  0.00  0.00    -0.031 C 
BRANCH  23  24
HETATM   24  C   UNK N   1      30.698  25.732  -3.539  0.00  0.00     0.022 C 
HETATM   25  C   UNK N   1      31.009  27.199  -3.751  0.00  0.00     0.009 C 
ENDBRANCH  23  24
ENDBRANCH  21  22
ENDBRANCH  20  21
ENDBRANCH  18  19
ENDBRANCH  17  18
ENDBRANCH  15  16
ENDBRANCH   1  15
TORSDOF 15
ENDMDL
MODEL 7
REMARK VINA RESULT:      -4.6     11.067     13.929
REMARK  15 active torsions:
REMARK  status: ('A' for Active; 'I' for Inactive)
REMARK    1  A    between atoms: C_1  and  C_3 
REMARK    2  A    between atoms: C_2  and  C_4 
REMARK    3  A    between atoms: C_4  and  C_5 
REMARK    4  A    between atoms: C_6  and  C_7 
REMARK    5  A    between atoms: C_7  and  C_8 
REMARK    6  A    between atoms: C_9  and  C_10 
REMARK    7  A    between atoms: C_10  and  C_11 
REMARK    8  A    between atoms: C_12  and  C_13 
REMARK    9  A    between atoms: C_13  and  C_14 
REMARK   10  A    between atoms: C_15  and  C_16 
REMARK   11  A    between atoms: C_16  and  C_17 
REMARK   12  A    between atoms: C_18  and  C_19 
REMARK   13  A    between atoms: C_19  and  C_20 
REMARK   14  A    between atoms: C_20  and  C_21 
REMARK   15  A    between atoms: C_21  and  O_22 
ROOT
HETATM    1  C   UNK N   1      33.848  17.100   5.883  0.00  0.00    -0.027 C 
HETATM    2  C   UNK N   1      32.999  17.675   5.036  0.00  0.00    -0.027 C 
ENDROOT
BRANCH   2   3
HETATM    3  C   UNK N   1      32.880  17.195   3.628  0.00  0.00     0.053 C 
BRANCH   3   4
HETATM    4  C   UNK N   1      31.494  16.697   3.425  0.00  0.00    -0.027 C 
HETATM    5  C   UNK N   1      30.541  16.963   4.311  0.00  0.00    -0.027 C 
BRANCH   5   6
HETATM    6  C   UNK N   1      29.140  16.559   4.000  0.00  0.00     0.053 C 
BRANCH   6   7
HETATM    7  C   UNK N   1      28.994  16.105   2.571  0.00  0.00    -0.027 C 
HETATM    8  C   UNK N   1      28.838  14.827   2.188  0.00  0.00    -0.030 C 
BRANCH   8   9
HETATM    9  C   UNK N   1      28.863  13.669   3.143  0.00  0.00     0.037 C 
BRANCH   9  10
HETATM   10  C   UNK N   1      30.252  13.050   3.275  0.00  0.00     0.113 C 
BRANCH  10  11
HETATM   11  C   UNK N   1      30.635  12.777   4.697  0.00  0.00     0.139 C 
HETATM   12  O   UNK N   1      30.606  13.673   5.523  0.00  0.00    -0.650 OA
BRANCH  11  13
HETATM   13  O   UNK N   1      31.048  11.549   5.058  0.00  0.00    -0.776 OA
HETATM   14  H   UNK N   1      31.399  10.884   4.498  0.00  0.00     0.167 HD
ENDBRANCH  11  13
ENDBRANCH  10  11
ENDBRANCH   9  10
ENDBRANCH   8   9
ENDBRANCH   6   7
ENDBRANCH   5   6
ENDBRANCH   3   4
ENDBRANCH   2   3
BRANCH   1  15
HETATM   15  C   UNK N   1      33.945  17.606   7.283  0.00  0.00     0.053 C 
BRANCH  15  16
HETATM   16  C   UNK N   1      32.593  17.914   7.829  0.00  0.00    -0.027 C 
HETATM   17  C   UNK N   1      31.844  16.927   8.319  0.00  0.00    -0.027 C 
BRANCH  17  18
HETATM   18  C   UNK N   1      30.460  17.178   8.826  0.00  0.00     0.053 C 
BRANCH  18  19
HETATM   19  C   UNK N   1      29.625  17.899   7.821  0.00  0.00    -0.027 C 
HETATM   20  C   UNK N   1      28.392  17.466   7.569  0.00  0.00    -0.027 C 
BRANCH  20  21
HETATM   21  C   UNK N   1      27.531  18.157   6.568  0.00  0.00     0.053 C 
BRANCH  21  22
HETATM   22  C   UNK N   1      27.767  19.633   6.641  0.00  0.00    -0.027 C 
HETATM   23  C   UNK N   1      27.744  20.423   5.561  0.00  0.00    -0.031 C 
BRANCH  23  24
HETATM   24  C   UNK N   1      27.508  19.891   4.184  0.00  0.00     0.022 C 
HETATM   25  C   UNK N   1      26.094  20.223   3.752  0.00  0.00     0.009 C 
ENDBRANCH  23  24
ENDBRANCH  21  22
ENDBRANCH  20  21
ENDBRANCH  18  19
ENDBRANCH  17  18
ENDBRANCH  15  16
ENDBRANCH   1  15
TORSDOF 15
ENDMDL
MODEL 8
REMARK VINA RESULT:      -4.6      2.375      5.978
REMARK  15 active torsions:
REMARK  status: ('A' for Active; 'I' for Inactive)
REMARK    1  A    between atoms: C_1  and  C_3 
REMARK    2  A    between atoms: C_2  and  C_4 
REMARK    3  A    between atoms: C_4  and  C_5 
REMARK    4  A    between atoms: C_6  and  C_7 
REMARK    5  A    between atoms: C_7  and  C_8 
REMARK    6  A    between atoms: C_9  and  C_10 
REMARK    7  A    between atoms: C_10  and  C_11 
REMARK    8  A    between atoms: C_12  and  C_13 
REMARK    9  A    between atoms: C_13  and  C_14 
REMARK   10  A    between atoms: C_15  and  C_16 
REMARK   11  A    between atoms: C_16  and  C_17 
REMARK   12  A    between atoms: C_18  and  C_19 
REMARK   13  A    between atoms: C_19  and  C_20 
REMARK   14  A    between atoms: C_20  and  C_21 
REMARK   15  A    between atoms: C_21  and  O_22 
ROOT
HETATM    1  C   UNK N   1      28.303  28.817  -2.915  0.00  0.00    -0.027 C 
HETATM    2  C   UNK N   1      29.264  28.530  -3.788  0.00  0.00    -0.027 C 
ENDROOT
BRANCH   2   3
HETATM    3  C   UNK N   1      30.466  27.748  -3.374  0.00  0.00     0.053 C 
BRANCH   3   4
HETATM    4  C   UNK N   1      30.473  26.473  -4.138  0.00  0.00    -0.027 C 
HETATM    5  C   UNK N   1      30.306  25.310  -3.518  0.00  0.00    -0.027 C 
BRANCH   5   6
HETATM    6  C   UNK N   1      30.187  24.070  -4.339  0.00  0.00     0.053 C 
BRANCH   6   7
HETATM    7  C   UNK N   1      29.835  22.874  -3.494  0.00  0.00    -0.027 C 
HETATM    8  C   UNK N   1      30.614  21.789  -3.345  0.00  0.00    -0.030 C 
BRANCH   8   9
HETATM    9  C   UNK N   1      31.916  21.601  -4.068  0.00  0.00     0.037 C 
BRANCH   9  10
HETATM   10  C   UNK N   1      32.141  20.154  -4.500  0.00  0.00     0.113 C 
BRANCH  10  11
HETATM   11  C   UNK N   1      33.460  19.609  -4.046  0.00  0.00     0.139 C 
HETATM   12  O   UNK N   1      34.436  20.339  -3.979  0.00  0.00    -0.650 OA
BRANCH  11  13
HETATM   13  O   UNK N   1      33.582  18.304  -3.747  0.00  0.00    -0.776 OA
HETATM   14  H   UNK N   1      33.224  17.860  -3.004  0.00  0.00     0.167 HD
ENDBRANCH  11  13
ENDBRANCH  10  11
ENDBRANCH   9  10
ENDBRANCH   8   9
ENDBRANCH   6   7
ENDBRANCH   5   6
ENDBRANCH   3   4
ENDBRANCH   2   3
BRANCH   1  15
HETATM   15  C   UNK N   1      27.116  29.603  -3.360  0.00  0.00     0.053 C 
BRANCH  15  16
HETATM   16  C   UNK N   1      26.483  28.974  -4.554  0.00  0.00    -0.027 C 
HETATM   17  C   UNK N   1      25.532  28.056  -4.382  0.00  0.00    -0.027 C 
BRANCH  17  18
HETATM   18  C   UNK N   1      24.908  27.357  -5.547  0.00  0.00     0.053 C 
BRANCH  18  19
HETATM   19  C   UNK N   1      25.161  25.887  -5.512  0.00  0.00    -0.027 C 
HETATM   20  C   UNK N   1      26.258  25.430  -4.916  0.00  0.00    -0.027 C 
BRANCH  20  21
HETATM   21  C   UNK N   1      26.547  23.969  -4.866  0.00  0.00     0.053 C 
BRANCH  21  22
HETATM   22  C   UNK N   1      25.966  23.304  -6.075  0.00  0.00    -0.027 C 
HETATM   23  C   UNK N   1      26.720  22.862  -7.089  0.00  0.00    -0.031 C 
BRANCH  23  24
HETATM   24  C   UNK N   1      28.205  23.023  -7.112  0.00  0.00     0.022 C 
HETATM   25  C   UNK N   1      28.860  21.671  -6.914  0.00  0.00     0.009 C 
ENDBRANCH  23  24
ENDBRANCH  21  22
ENDBRANCH  20  21
ENDBRANCH  18  19
ENDBRANCH  17  18
ENDBRANCH  15  16
ENDBRANCH   1  15
TORSDOF 15
ENDMDL
MODEL 9
REMARK VINA RESULT:      -4.6      2.192      6.342
REMARK  15 active torsions:
REMARK  status: ('A' for Active; 'I' for Inactive)
REMARK    1  A    between atoms: C_1  and  C_3 
REMARK    2  A    between atoms: C_2  and  C_4 
REMARK    3  A    between atoms: C_4  and  C_5 
REMARK    4  A    between atoms: C_6  and  C_7 
REMARK    5  A    between atoms: C_7  and  C_8 
REMARK    6  A    between atoms: C_9  and  C_10 
REMARK    7  A    between atoms: C_10  and  C_11 
REMARK    8  A    between atoms: C_12  and  C_13 
REMARK    9  A    between atoms: C_13  and  C_14 
REMARK   10  A    between atoms: C_15  and  C_16 
REMARK   11  A    between atoms: C_16  and  C_17 
REMARK   12  A    between atoms: C_18  and  C_19 
REMARK   13  A    between atoms: C_19  and  C_20 
REMARK   14  A    between atoms: C_20  and  C_21 
REMARK   15  A    between atoms: C_21  and  O_22 
ROOT
HETATM    1  C   UNK N   1      30.229  25.427  -3.847  0.00  0.00    -0.027 C 
HETATM    2  C   UNK N   1      30.640  26.645  -3.508  0.00  0.00    -0.027 C 
ENDROOT
BRANCH   2   3
HETATM    3  C   UNK N   1      30.180  27.846  -4.265  0.00  0.00     0.053 C 
BRANCH   3   4
HETATM    4  C   UNK N   1      28.739  27.665  -4.587  0.00  0.00    -0.027 C 
HETATM    5  C   UNK N   1      28.242  28.101  -5.739  0.00  0.00    -0.027 C 
BRANCH   5   6
HETATM    6  C   UNK N   1      26.825  27.780  -6.076  0.00  0.00     0.053 C 
BRANCH   6   7
HETATM    7  C   UNK N   1      26.732  26.757  -7.177  0.00  0.00    -0.027 C 
HETATM    8  C   UNK N   1      26.201  25.530  -7.038  0.00  0.00    -0.030 C 
BRANCH   8   9
HETATM    9  C   UNK N   1      25.694  24.993  -5.731  0.00  0.00     0.037 C 
BRANCH   9  10
HETATM   10  C   UNK N   1      26.795  24.335  -4.903  0.00  0.00     0.113 C 
BRANCH  10  11
HETATM   11  C   UNK N   1      26.714  24.679  -3.447  0.00  0.00     0.139 C 
HETATM   12  O   UNK N   1      26.351  25.791  -3.099  0.00  0.00    -0.650 OA
BRANCH  11  13
HETATM   13  O   UNK N   1      27.077  23.775  -2.521  0.00  0.00    -0.776 OA
HETATM   14  H   UNK N   1      27.891  23.313  -2.472  0.00  0.00     0.167 HD
ENDBRANCH  11  13
ENDBRANCH  10  11
ENDBRANCH   9  10
ENDBRANCH   8   9
ENDBRANCH   6   7
ENDBRANCH   5   6
ENDBRANCH   3   4
ENDBRANCH   2   3
BRANCH   1  15
HETATM   15  C   UNK N   1      30.711  24.246  -3.072  0.00  0.00     0.053 C 
BRANCH  15  16
HETATM   16  C   UNK N   1      30.577  22.997  -3.875  0.00  0.00    -0.027 C 
HETATM   17  C   UNK N   1      31.255  21.909  -3.510  0.00  0.00    -0.027 C 
BRANCH  17  18
HETATM   18  C   UNK N   1      31.198  20.650  -4.315  0.00  0.00     0.053 C 
BRANCH  18  19
HETATM   19  C   UNK N   1      30.141  20.713  -5.366  0.00  0.00    -0.027 C 
HETATM   20  C   UNK N   1      30.464  20.453  -6.630  0.00  0.00    -0.027 C 
BRANCH  20  21
HETATM   21  C   UNK N   1      29.437  20.512  -7.708  0.00  0.00     0.053 C 
BRANCH  21  22
HETATM   22  C   UNK N   1      28.843  21.885  -7.757  0.00  0.00    -0.027 C 
HETATM   23  C   UNK N   1      27.531  22.100  -7.909  0.00  0.00    -0.031 C 
BRANCH  23  24
HETATM   24  C   UNK N   1      26.550  20.984  -8.071  0.00  0.00     0.022 C 
HETATM   25  C   UNK N   1      25.674  21.256  -9.276  0.00  0.00     0.009 C 
ENDBRANCH  23  24
ENDBRANCH  21  22
ENDBRANCH  20  21
ENDBRANCH  18  19
ENDBRANCH  17  18
ENDBRANCH  15  16
ENDBRANCH   1  15
TORSDOF 15
ENDMDL
