MODEL 1
REMARK VINA RESULT:      -8.1      0.000      0.000
REMARK  10 active torsions:
REMARK  status: ('A' for Active; 'I' for Inactive)
REMARK    1  A    between atoms: N_3  and  C_16 
REMARK    2  A    between atoms: N_6  and  C_7 
REMARK    3  A    between atoms: C_7  and  C_8 
REMARK    4  A    between atoms: C_8  and  C_9 
REMARK    5  A    between atoms: C_9  and  C_10 
REMARK    6  A    between atoms: C_16  and  C_17 
REMARK    7  A    between atoms: C_17  and  O_18 
REMARK    8  A    between atoms: O_18  and  C_19 
REMARK    9  A    between atoms: C_19  and  C_20 
REMARK   10  A    between atoms: C_19  and  C_27 
ROOT
HETATM    1  C   UNK N   1      35.729  13.366  12.764  0.00  0.00     0.199 C 
ENDROOT
BRANCH   1   2
HETATM    2  C   UNK N   1      35.748  14.846  12.396  0.00  0.00     0.298 C 
BRANCH   2   3
HETATM    3  N   UNK N   1      34.992  15.112  11.180  0.00  0.00     0.093 N 
HETATM    4  C   UNK N   1      35.422  14.194  10.126  0.00  0.00     0.302 C 
HETATM    5  C   UNK N   1      34.617  14.485   8.864  0.00  0.00     0.302 C 
HETATM    6  N   UNK N   1      34.876  15.853   8.415  0.00  0.00     0.091 N 
HETATM    7  C   UNK N   1      34.530  16.798   9.481  0.00  0.00     0.302 C 
HETATM    8  C   UNK N   1      35.311  16.472  10.754  0.00  0.00     0.302 C 
BRANCH   6   9
HETATM    9  C   UNK N   1      33.968  16.099   7.308  0.00  0.00     0.273 C 
BRANCH   9  10
HETATM   10  C   UNK N   1      33.066  17.277   7.622  0.00  0.00     0.035 C 
BRANCH  10  11
HETATM   11  C   UNK N   1      31.780  17.174   6.819  0.00  0.00     0.040 C 
BRANCH  11  12
HETATM   12  C   UNK N   1      30.591  17.491   7.661  0.00  0.00    -0.058 A 
HETATM   13  C   UNK N   1      29.308  17.094   7.261  0.00  0.00     0.007 A 
HETATM   14  C   UNK N   1      28.198  17.408   8.050  0.00  0.00     0.001 A 
HETATM   15  C   UNK N   1      28.368  18.124   9.238  0.00  0.00     0.000 A 
HETATM   16  C   UNK N   1      29.646  18.525   9.638  0.00  0.00     0.001 A 
HETATM   17  C   UNK N   1      30.756  18.211   8.848  0.00  0.00     0.007 A 
ENDBRANCH  11  12
ENDBRANCH  10  11
ENDBRANCH   9  10
ENDBRANCH   6   9
ENDBRANCH   2   3
ENDBRANCH   1   2
BRANCH   1  18
HETATM   18  O   UNK N   1      36.876  12.996  13.481  0.00  0.00    -0.375 OA
BRANCH  18  19
HETATM   19  C   UNK N   1      36.385  12.513  14.702  0.00  0.00     0.187 C 
BRANCH  19  20
HETATM   20  C   UNK N   1      37.027  11.166  15.020  0.00  0.00    -0.025 A 
HETATM   21  C   UNK N   1      36.505  10.269  15.961  0.00  0.00     0.013 A 
HETATM   22  C   UNK N   1      37.133   9.043  16.203  0.00  0.00     0.043 A 
HETATM   23  C   UNK N   1      38.294   8.706  15.506  0.00  0.00     0.116 A 
HETATM   24  C   UNK N   1      38.826   9.589  14.568  0.00  0.00     0.043 A 
HETATM   25  F   UNK N   1      38.904   7.519  15.739  0.00  0.00    -0.206 F 
HETATM   26  C   UNK N   1      38.195  10.813  14.324  0.00  0.00     0.013 A 
ENDBRANCH  19  20
BRANCH  19  27
HETATM   27  C   UNK N   1      36.364  13.624  15.745  0.00  0.00    -0.025 A 
HETATM   28  C   UNK N   1      35.487  13.500  16.833  0.00  0.00     0.013 A 
HETATM   29  C   UNK N   1      35.444  14.480  17.831  0.00  0.00     0.043 A 
HETATM   30  C   UNK N   1      36.285  15.592  17.754  0.00  0.00     0.116 A 
HETATM   31  C   UNK N   1      37.164  15.728  16.678  0.00  0.00     0.043 A 
HETATM   32  F   UNK N   1      36.250  16.538  18.724  0.00  0.00    -0.206 F 
HETATM   33  C   UNK N   1      37.201  14.748  15.681  0.00  0.00     0.013 A 
ENDBRANCH  19  27
ENDBRANCH  18  19
ENDBRANCH   1  18
TORSDOF 10
ENDMDL
MODEL 2
REMARK VINA RESULT:      -8.1      2.066      4.233
REMARK  10 active torsions:
REMARK  status: ('A' for Active; 'I' for Inactive)
REMARK    1  A    between atoms: N_3  and  C_16 
REMARK    2  A    between atoms: N_6  and  C_7 
REMARK    3  A    between atoms: C_7  and  C_8 
REMARK    4  A    between atoms: C_8  and  C_9 
REMARK    5  A    between atoms: C_9  and  C_10 
REMARK    6  A    between atoms: C_16  and  C_17 
REMARK    7  A    between atoms: C_17  and  O_18 
REMARK    8  A    between atoms: O_18  and  C_19 
REMARK    9  A    between atoms: C_19  and  C_20 
REMARK   10  A    between atoms: C_19  and  C_27 
ROOT
HETATM    1  C   UNK N   1      36.218  13.877  13.094  0.00  0.00     0.199 C 
ENDROOT
BRANCH   1   2
HETATM    2  C   UNK N   1      36.024  15.318  12.635  0.00  0.00     0.298 C 
BRANCH   2   3
HETATM    3  N   UNK N   1      35.077  15.413  11.532  0.00  0.00     0.093 N 
HETATM    4  C   UNK N   1      35.192  14.225  10.687  0.00  0.00     0.302 C 
HETATM    5  C   UNK N   1      34.193  14.340   9.541  0.00  0.00     0.302 C 
HETATM    6  N   UNK N   1      34.504  15.516   8.727  0.00  0.00     0.091 N 
HETATM    7  C   UNK N   1      34.477  16.719   9.563  0.00  0.00     0.302 C 
HETATM    8  C   UNK N   1      35.452  16.576  10.732  0.00  0.00     0.302 C 
BRANCH   6   9
HETATM    9  C   UNK N   1      33.429  15.639   7.758  0.00  0.00     0.273 C 
BRANCH   9  10
HETATM   10  C   UNK N   1      33.016  17.091   7.615  0.00  0.00     0.035 C 
BRANCH  10  11
HETATM   11  C   UNK N   1      31.749  17.191   6.783  0.00  0.00     0.040 C 
BRANCH  11  12
HETATM   12  C   UNK N   1      30.569  17.519   7.632  0.00  0.00    -0.058 A 
HETATM   13  C   UNK N   1      30.729  18.223   8.833  0.00  0.00     0.007 A 
HETATM   14  C   UNK N   1      29.618  18.513   9.630  0.00  0.00     0.001 A 
HETATM   15  C   UNK N   1      28.345  18.098   9.229  0.00  0.00     0.000 A 
HETATM   16  C   UNK N   1      28.183  17.392   8.033  0.00  0.00     0.001 A 
HETATM   17  C   UNK N   1      29.294  17.101   7.237  0.00  0.00     0.007 A 
ENDBRANCH  11  12
ENDBRANCH  10  11
ENDBRANCH   9  10
ENDBRANCH   6   9
ENDBRANCH   2   3
ENDBRANCH   1   2
BRANCH   1  18
HETATM   18  O   UNK N   1      35.303  13.525  14.096  0.00  0.00    -0.375 OA
BRANCH  18  19
HETATM   19  C   UNK N   1      35.849  12.373  14.679  0.00  0.00     0.187 C 
BRANCH  19  20
HETATM   20  C   UNK N   1      35.611  12.394  16.186  0.00  0.00    -0.025 A 
HETATM   21  C   UNK N   1      35.615  11.241  16.981  0.00  0.00     0.013 A 
HETATM   22  C   UNK N   1      35.401  11.324  18.361  0.00  0.00     0.043 A 
HETATM   23  C   UNK N   1      35.178  12.566  18.957  0.00  0.00     0.116 A 
HETATM   24  C   UNK N   1      35.170  13.723  18.178  0.00  0.00     0.043 A 
HETATM   25  F   UNK N   1      34.971  12.650  20.294  0.00  0.00    -0.206 F 
HETATM   26  C   UNK N   1      35.387  13.638  16.800  0.00  0.00     0.013 A 
ENDBRANCH  19  20
BRANCH  19  27
HETATM   27  C   UNK N   1      35.489  11.139  13.859  0.00  0.00    -0.025 A 
HETATM   28  C   UNK N   1      34.169  11.005  13.401  0.00  0.00     0.013 A 
HETATM   29  C   UNK N   1      33.791   9.904  12.625  0.00  0.00     0.043 A 
HETATM   30  C   UNK N   1      34.733   8.928  12.293  0.00  0.00     0.116 A 
HETATM   31  C   UNK N   1      36.049   9.049  12.740  0.00  0.00     0.043 A 
HETATM   32  F   UNK N   1      34.369   7.864  11.535  0.00  0.00    -0.206 F 
HETATM   33  C   UNK N   1      36.423  10.149  13.519  0.00  0.00     0.013 A 
ENDBRANCH  19  27
ENDBRANCH  18  19
ENDBRANCH   1  18
TORSDOF 10
ENDMDL
MODEL 3
REMARK VINA RESULT:      -8.1      0.925      4.319
REMARK  10 active torsions:
REMARK  status: ('A' for Active; 'I' for Inactive)
REMARK    1  A    between atoms: N_3  and  C_16 
REMARK    2  A    between atoms: N_6  and  C_7 
REMARK    3  A    between atoms: C_7  and  C_8 
REMARK    4  A    between atoms: C_8  and  C_9 
REMARK    5  A    between atoms: C_9  and  C_10 
REMARK    6  A    between atoms: C_16  and  C_17 
REMARK    7  A    between atoms: C_17  and  O_18 
REMARK    8  A    between atoms: O_18  and  C_19 
REMARK    9  A    between atoms: C_19  and  C_20 
REMARK   10  A    between atoms: C_19  and  C_27 
ROOT
HETATM    1  C   UNK N   1      35.535  12.842  12.316  0.00  0.00     0.199 C 
ENDROOT
BRANCH   1   2
HETATM    2  C   UNK N   1      36.706  13.772  12.013  0.00  0.00     0.298 C 
BRANCH   2   3
HETATM    3  N   UNK N   1      36.407  14.675  10.909  0.00  0.00     0.093 N 
HETATM    4  C   UNK N   1      35.582  15.781  11.392  0.00  0.00     0.302 C 
HETATM    5  C   UNK N   1      35.283  16.716  10.225  0.00  0.00     0.302 C 
HETATM    6  N   UNK N   1      34.533  15.999   9.194  0.00  0.00     0.091 N 
HETATM    7  C   UNK N   1      35.300  14.834   8.743  0.00  0.00     0.302 C 
HETATM    8  C   UNK N   1      35.629  13.924   9.928  0.00  0.00     0.302 C 
BRANCH   6   9
HETATM    9  C   UNK N   1      34.421  16.905   8.065  0.00  0.00     0.273 C 
BRANCH   9  10
HETATM   10  C   UNK N   1      33.179  17.764   8.203  0.00  0.00     0.035 C 
BRANCH  10  11
HETATM   11  C   UNK N   1      32.066  17.211   7.329  0.00  0.00     0.040 C 
BRANCH  11  12
HETATM   12  C   UNK N   1      30.724  17.512   7.907  0.00  0.00    -0.058 A 
HETATM   13  C   UNK N   1      29.560  17.031   7.294  0.00  0.00     0.007 A 
HETATM   14  C   UNK N   1      28.307  17.331   7.836  0.00  0.00     0.001 A 
HETATM   15  C   UNK N   1      28.215  18.116   8.989  0.00  0.00     0.000 A 
HETATM   16  C   UNK N   1      29.376  18.601   9.599  0.00  0.00     0.001 A 
HETATM   17  C   UNK N   1      30.629  18.302   9.057  0.00  0.00     0.007 A 
ENDBRANCH  11  12
ENDBRANCH  10  11
ENDBRANCH   9  10
ENDBRANCH   6   9
ENDBRANCH   2   3
ENDBRANCH   1   2
BRANCH   1  18
HETATM   18  O   UNK N   1      35.080  12.997  13.633  0.00  0.00    -0.375 OA
BRANCH  18  19
HETATM   19  C   UNK N   1      36.204  12.724  14.426  0.00  0.00     0.187 C 
BRANCH  19  20
HETATM   20  C   UNK N   1      36.294  13.740  15.561  0.00  0.00    -0.025 A 
HETATM   21  C   UNK N   1      37.136  14.859  15.526  0.00  0.00     0.013 A 
HETATM   22  C   UNK N   1      37.167  15.762  16.594  0.00  0.00     0.043 A 
HETATM   23  C   UNK N   1      36.356  15.549  17.710  0.00  0.00     0.116 A 
HETATM   24  C   UNK N   1      35.514  14.439  17.759  0.00  0.00     0.043 A 
HETATM   25  F   UNK N   1      36.385  16.423  18.746  0.00  0.00    -0.206 F 
HETATM   26  C   UNK N   1      35.481  13.540  16.689  0.00  0.00     0.013 A 
ENDBRANCH  19  20
BRANCH  19  27
HETATM   27  C   UNK N   1      36.302  11.231  14.717  0.00  0.00    -0.025 A 
HETATM   28  C   UNK N   1      37.577  10.656  14.823  0.00  0.00     0.013 A 
HETATM   29  C   UNK N   1      37.724   9.294  15.111  0.00  0.00     0.043 A 
HETATM   30  C   UNK N   1      36.596   8.496  15.304  0.00  0.00     0.116 A 
HETATM   31  C   UNK N   1      35.321   9.055  15.203  0.00  0.00     0.043 A 
HETATM   32  F   UNK N   1      36.737   7.178  15.590  0.00  0.00    -0.206 F 
HETATM   33  C   UNK N   1      35.178  10.415  14.911  0.00  0.00     0.013 A 
ENDBRANCH  19  27
ENDBRANCH  18  19
ENDBRANCH   1  18
TORSDOF 10
ENDMDL
MODEL 4
REMARK VINA RESULT:      -7.9      2.675      4.944
REMARK  10 active torsions:
REMARK  status: ('A' for Active; 'I' for Inactive)
REMARK    1  A    between atoms: N_3  and  C_16 
REMARK    2  A    between atoms: N_6  and  C_7 
REMARK    3  A    between atoms: C_7  and  C_8 
REMARK    4  A    between atoms: C_8  and  C_9 
REMARK    5  A    between atoms: C_9  and  C_10 
REMARK    6  A    between atoms: C_16  and  C_17 
REMARK    7  A    between atoms: C_17  and  O_18 
REMARK    8  A    between atoms: O_18  and  C_19 
REMARK    9  A    between atoms: C_19  and  C_20 
REMARK   10  A    between atoms: C_19  and  C_27 
ROOT
HETATM    1  C   UNK N   1      36.340  14.245  13.767  0.00  0.00     0.199 C 
ENDROOT
BRANCH   1   2
HETATM    2  C   UNK N   1      36.323  14.034  12.257  0.00  0.00     0.298 C 
BRANCH   2   3
HETATM    3  N   UNK N   1      35.344  14.890  11.601  0.00  0.00     0.093 N 
HETATM    4  C   UNK N   1      34.600  14.113  10.611  0.00  0.00     0.302 C 
HETATM    5  C   UNK N   1      33.579  15.025   9.938  0.00  0.00     0.302 C 
HETATM    6  N   UNK N   1      34.267  16.114   9.246  0.00  0.00     0.091 N 
HETATM    7  C   UNK N   1      35.088  16.867  10.198  0.00  0.00     0.302 C 
HETATM    8  C   UNK N   1      36.080  15.936  10.896  0.00  0.00     0.302 C 
BRANCH   6   9
HETATM    9  C   UNK N   1      33.231  17.012   8.765  0.00  0.00     0.273 C 
BRANCH   9  10
HETATM   10  C   UNK N   1      33.718  17.768   7.544  0.00  0.00     0.035 C 
BRANCH  10  11
HETATM   11  C   UNK N   1      34.448  16.822   6.605  0.00  0.00     0.040 C 
BRANCH  11  12
HETATM   12  C   UNK N   1      33.726  16.684   5.308  0.00  0.00    -0.058 A 
HETATM   13  C   UNK N   1      33.916  15.554   4.503  0.00  0.00     0.007 A 
HETATM   14  C   UNK N   1      33.245  15.441   3.282  0.00  0.00     0.001 A 
HETATM   15  C   UNK N   1      32.386  16.460   2.861  0.00  0.00     0.000 A 
HETATM   16  C   UNK N   1      32.198  17.592   3.661  0.00  0.00     0.001 A 
HETATM   17  C   UNK N   1      32.870  17.705   4.882  0.00  0.00     0.007 A 
ENDBRANCH  11  12
ENDBRANCH  10  11
ENDBRANCH   9  10
ENDBRANCH   6   9
ENDBRANCH   2   3
ENDBRANCH   1   2
BRANCH   1  18
HETATM   18  O   UNK N   1      35.267  13.594  14.392  0.00  0.00    -0.375 OA
BRANCH  18  19
HETATM   19  C   UNK N   1      35.818  12.399  14.876  0.00  0.00     0.187 C 
BRANCH  19  20
HETATM   20  C   UNK N   1      35.614  12.310  16.386  0.00  0.00    -0.025 A 
HETATM   21  C   UNK N   1      35.737  11.117  17.109  0.00  0.00     0.013 A 
HETATM   22  C   UNK N   1      35.548  11.099  18.495  0.00  0.00     0.043 A 
HETATM   23  C   UNK N   1      35.231  12.280  19.169  0.00  0.00     0.116 A 
HETATM   24  C   UNK N   1      35.104  13.475  18.462  0.00  0.00     0.043 A 
HETATM   25  F   UNK N   1      35.047  12.266  20.512  0.00  0.00    -0.206 F 
HETATM   26  C   UNK N   1      35.296  13.491  17.078  0.00  0.00     0.013 A 
ENDBRANCH  19  20
BRANCH  19  27
HETATM   27  C   UNK N   1      35.431  11.231  13.976  0.00  0.00    -0.025 A 
HETATM   28  C   UNK N   1      36.432  10.323  13.597  0.00  0.00     0.013 A 
HETATM   29  C   UNK N   1      36.127   9.220  12.791  0.00  0.00     0.043 A 
HETATM   30  C   UNK N   1      34.816   9.012  12.360  0.00  0.00     0.116 A 
HETATM   31  C   UNK N   1      33.810   9.906  12.730  0.00  0.00     0.043 A 
HETATM   32  F   UNK N   1      34.518   7.940  11.585  0.00  0.00    -0.206 F 
HETATM   33  C   UNK N   1      34.119  11.009  13.533  0.00  0.00     0.013 A 
ENDBRANCH  19  27
ENDBRANCH  18  19
ENDBRANCH   1  18
TORSDOF 10
ENDMDL
MODEL 5
REMARK VINA RESULT:      -7.9      1.437      2.241
REMARK  10 active torsions:
REMARK  status: ('A' for Active; 'I' for Inactive)
REMARK    1  A    between atoms: N_3  and  C_16 
REMARK    2  A    between atoms: N_6  and  C_7 
REMARK    3  A    between atoms: C_7  and  C_8 
REMARK    4  A    between atoms: C_8  and  C_9 
REMARK    5  A    between atoms: C_9  and  C_10 
REMARK    6  A    between atoms: C_16  and  C_17 
REMARK    7  A    between atoms: C_17  and  O_18 
REMARK    8  A    between atoms: O_18  and  C_19 
REMARK    9  A    between atoms: C_19  and  C_20 
REMARK   10  A    between atoms: C_19  and  C_27 
ROOT
HETATM    1  C   UNK N   1      35.839  13.486  13.258  0.00  0.00     0.199 C 
ENDROOT
BRANCH   1   2
HETATM    2  C   UNK N   1      36.111  14.921  12.822  0.00  0.00     0.298 C 
BRANCH   2   3
HETATM    3  N   UNK N   1      35.778  15.133  11.420  0.00  0.00     0.093 N 
HETATM    4  C   UNK N   1      35.381  16.526  11.217  0.00  0.00     0.302 C 
HETATM    5  C   UNK N   1      35.039  16.729   9.744  0.00  0.00     0.302 C 
HETATM    6  N   UNK N   1      33.915  15.871   9.373  0.00  0.00     0.091 N 
HETATM    7  C   UNK N   1      34.251  14.470   9.639  0.00  0.00     0.302 C 
HETATM    8  C   UNK N   1      34.631  14.285  11.109  0.00  0.00     0.302 C 
BRANCH   6   9
HETATM    9  C   UNK N   1      33.752  16.010   7.936  0.00  0.00     0.273 C 
BRANCH   9  10
HETATM   10  C   UNK N   1      33.039  17.308   7.613  0.00  0.00     0.035 C 
BRANCH  10  11
HETATM   11  C   UNK N   1      31.739  17.019   6.881  0.00  0.00     0.040 C 
BRANCH  11  12
HETATM   12  C   UNK N   1      30.559  17.445   7.687  0.00  0.00    -0.058 A 
HETATM   13  C   UNK N   1      30.731  18.170   8.874  0.00  0.00     0.007 A 
HETATM   14  C   UNK N   1      29.619  18.552   9.629  0.00  0.00     0.001 A 
HETATM   15  C   UNK N   1      28.334  18.208   9.202  0.00  0.00     0.000 A 
HETATM   16  C   UNK N   1      28.160  17.481   8.021  0.00  0.00     0.001 A 
HETATM   17  C   UNK N   1      29.272  17.098   7.265  0.00  0.00     0.007 A 
ENDBRANCH  11  12
ENDBRANCH  10  11
ENDBRANCH   9  10
ENDBRANCH   6   9
ENDBRANCH   2   3
ENDBRANCH   1   2
BRANCH   1  18
HETATM   18  O   UNK N   1      36.628  13.121  14.358  0.00  0.00    -0.375 OA
BRANCH  18  19
HETATM   19  C   UNK N   1      35.970  12.012  14.909  0.00  0.00     0.187 C 
BRANCH  19  20
HETATM   20  C   UNK N   1      36.642  10.726  14.439  0.00  0.00    -0.025 A 
HETATM   21  C   UNK N   1      38.025  10.510  14.515  0.00  0.00     0.013 A 
HETATM   22  C   UNK N   1      38.584   9.305  14.078  0.00  0.00     0.043 A 
HETATM   23  C   UNK N   1      37.762   8.305  13.557  0.00  0.00     0.116 A 
HETATM   24  C   UNK N   1      36.385   8.506  13.474  0.00  0.00     0.043 A 
HETATM   25  F   UNK N   1      38.301   7.136  13.132  0.00  0.00    -0.206 F 
HETATM   26  C   UNK N   1      35.827   9.710  13.915  0.00  0.00     0.013 A 
ENDBRANCH  19  20
BRANCH  19  27
HETATM   27  C   UNK N   1      35.689  12.240  16.390  0.00  0.00    -0.025 A 
HETATM   28  C   UNK N   1      35.460  13.553  16.830  0.00  0.00     0.013 A 
HETATM   29  C   UNK N   1      35.175  13.815  18.174  0.00  0.00     0.043 A 
HETATM   30  C   UNK N   1      35.110  12.765  19.092  0.00  0.00     0.116 A 
HETATM   31  C   UNK N   1      35.335  11.455  18.668  0.00  0.00     0.043 A 
HETATM   32  F   UNK N   1      34.828  13.018  20.394  0.00  0.00    -0.206 F 
HETATM   33  C   UNK N   1      35.623  11.196  17.325  0.00  0.00     0.013 A 
ENDBRANCH  19  27
ENDBRANCH  18  19
ENDBRANCH   1  18
TORSDOF 10
ENDMDL
MODEL 6
REMARK VINA RESULT:      -7.8      4.362     11.210
REMARK  10 active torsions:
REMARK  status: ('A' for Active; 'I' for Inactive)
REMARK    1  A    between atoms: N_3  and  C_16 
REMARK    2  A    between atoms: N_6  and  C_7 
REMARK    3  A    between atoms: C_7  and  C_8 
REMARK    4  A    between atoms: C_8  and  C_9 
REMARK    5  A    between atoms: C_9  and  C_10 
REMARK    6  A    between atoms: C_16  and  C_17 
REMARK    7  A    between atoms: C_17  and  O_18 
REMARK    8  A    between atoms: O_18  and  C_19 
REMARK    9  A    between atoms: C_19  and  C_20 
REMARK   10  A    between atoms: C_19  and  C_27 
ROOT
HETATM    1  C   UNK N   1      33.501  15.626   8.935  0.00  0.00     0.199 C 
ENDROOT
BRANCH   1   2
HETATM    2  C   UNK N   1      35.007  15.451   8.774  0.00  0.00     0.298 C 
BRANCH   2   3
HETATM    3  N   UNK N   1      35.645  15.067  10.026  0.00  0.00     0.093 N 
HETATM    4  C   UNK N   1      36.430  13.851   9.821  0.00  0.00     0.302 C 
HETATM    5  C   UNK N   1      37.092  13.466  11.141  0.00  0.00     0.302 C 
HETATM    6  N   UNK N   1      36.067  13.189  12.147  0.00  0.00     0.091 N 
HETATM    7  C   UNK N   1      35.210  14.365  12.319  0.00  0.00     0.302 C 
HETATM    8  C   UNK N   1      34.584  14.766  10.983  0.00  0.00     0.302 C 
BRANCH   6   9
HETATM    9  C   UNK N   1      36.771  12.981  13.401  0.00  0.00     0.273 C 
BRANCH   9  10
HETATM   10  C   UNK N   1      35.858  13.288  14.572  0.00  0.00     0.035 C 
BRANCH  10  11
HETATM   11  C   UNK N   1      35.445  11.998  15.261  0.00  0.00     0.040 C 
BRANCH  11  12
HETATM   12  C   UNK N   1      35.363  12.177  16.739  0.00  0.00    -0.058 A 
HETATM   13  C   UNK N   1      35.221  13.455  17.294  0.00  0.00     0.007 A 
HETATM   14  C   UNK N   1      35.161  13.614  18.682  0.00  0.00     0.001 A 
HETATM   15  C   UNK N   1      35.245  12.495  19.516  0.00  0.00     0.000 A 
HETATM   16  C   UNK N   1      35.391  11.219  18.964  0.00  0.00     0.001 A 
HETATM   17  C   UNK N   1      35.453  11.061  17.576  0.00  0.00     0.007 A 
ENDBRANCH  11  12
ENDBRANCH  10  11
ENDBRANCH   9  10
ENDBRANCH   6   9
ENDBRANCH   2   3
ENDBRANCH   1   2
BRANCH   1  18
HETATM   18  O   UNK N   1      33.041  16.780   8.284  0.00  0.00    -0.375 OA
BRANCH  18  19
HETATM   19  C   UNK N   1      32.010  16.324   7.451  0.00  0.00     0.187 C 
BRANCH  19  20
HETATM   20  C   UNK N   1      30.750  17.150   7.689  0.00  0.00    -0.025 A 
HETATM   21  C   UNK N   1      29.664  17.168   6.804  0.00  0.00     0.013 A 
HETATM   22  C   UNK N   1      28.530  17.938   7.081  0.00  0.00     0.043 A 
HETATM   23  C   UNK N   1      28.475  18.701   8.249  0.00  0.00     0.116 A 
HETATM   24  C   UNK N   1      29.548  18.694   9.139  0.00  0.00     0.043 A 
HETATM   25  F   UNK N   1      27.377  19.448   8.520  0.00  0.00    -0.206 F 
HETATM   26  C   UNK N   1      30.680  17.921   8.861  0.00  0.00     0.013 A 
ENDBRANCH  19  20
BRANCH  19  27
HETATM   27  C   UNK N   1      32.530  16.100   6.035  0.00  0.00    -0.025 A 
HETATM   28  C   UNK N   1      32.576  14.787   5.543  0.00  0.00     0.013 A 
HETATM   29  C   UNK N   1      33.022  14.527   4.243  0.00  0.00     0.043 A 
HETATM   30  C   UNK N   1      33.421  15.580   3.418  0.00  0.00     0.116 A 
HETATM   31  C   UNK N   1      33.378  16.892   3.893  0.00  0.00     0.043 A 
HETATM   32  F   UNK N   1      33.846  15.330   2.155  0.00  0.00    -0.206 F 
HETATM   33  C   UNK N   1      32.935  17.147   5.195  0.00  0.00     0.013 A 
ENDBRANCH  19  27
ENDBRANCH  18  19
ENDBRANCH   1  18
TORSDOF 10
ENDMDL
MODEL 7
REMARK VINA RESULT:      -7.6      7.437     13.028
REMARK  10 active torsions:
REMARK  status: ('A' for Active; 'I' for Inactive)
REMARK    1  A    between atoms: N_3  and  C_16 
REMARK    2  A    between atoms: N_6  and  C_7 
REMARK    3  A    between atoms: C_7  and  C_8 
REMARK    4  A    between atoms: C_8  and  C_9 
REMARK    5  A    between atoms: C_9  and  C_10 
REMARK    6  A    between atoms: C_16  and  C_17 
REMARK    7  A    between atoms: C_17  and  O_18 
REMARK    8  A    between atoms: O_18  and  C_19 
REMARK    9  A    between atoms: C_19  and  C_20 
REMARK   10  A    between atoms: C_19  and  C_27 
ROOT
HETATM    1  C   UNK N   1      26.938  16.082   3.041  0.00  0.00     0.199 C 
ENDROOT
BRANCH   1   2
HETATM    2  C   UNK N   1      27.896  14.908   3.218  0.00  0.00     0.298 C 
BRANCH   2   3
HETATM    3  N   UNK N   1      29.196  15.340   3.713  0.00  0.00     0.093 N 
HETATM    4  C   UNK N   1      29.807  16.255   2.750  0.00  0.00     0.302 C 
HETATM    5  C   UNK N   1      31.164  16.699   3.287  0.00  0.00     0.302 C 
HETATM    6  N   UNK N   1      32.041  15.538   3.439  0.00  0.00     0.091 N 
HETATM    7  C   UNK N   1      31.420  14.562   4.339  0.00  0.00     0.302 C 
HETATM    8  C   UNK N   1      30.043  14.155   3.812  0.00  0.00     0.302 C 
BRANCH   6   9
HETATM    9  C   UNK N   1      33.247  16.018   4.090  0.00  0.00     0.273 C 
BRANCH   9  10
HETATM   10  C   UNK N   1      32.995  17.371   4.728  0.00  0.00     0.035 C 
BRANCH  10  11
HETATM   11  C   UNK N   1      33.839  17.519   5.982  0.00  0.00     0.040 C 
BRANCH  11  12
HETATM   12  C   UNK N   1      33.265  16.737   7.115  0.00  0.00    -0.058 A 
HETATM   13  C   UNK N   1      33.943  15.624   7.628  0.00  0.00     0.007 A 
HETATM   14  C   UNK N   1      33.389  14.889   8.680  0.00  0.00     0.001 A 
HETATM   15  C   UNK N   1      32.155  15.263   9.219  0.00  0.00     0.000 A 
HETATM   16  C   UNK N   1      31.475  16.372   8.706  0.00  0.00     0.001 A 
HETATM   17  C   UNK N   1      32.028  17.106   7.653  0.00  0.00     0.007 A 
ENDBRANCH  11  12
ENDBRANCH  10  11
ENDBRANCH   9  10
ENDBRANCH   6   9
ENDBRANCH   2   3
ENDBRANCH   1   2
BRANCH   1  18
HETATM   18  O   UNK N   1      26.295  16.409   4.244  0.00  0.00    -0.375 OA
BRANCH  18  19
HETATM   19  C   UNK N   1      26.556  17.776   4.418  0.00  0.00     0.187 C 
BRANCH  19  20
HETATM   20  C   UNK N   1      25.358  18.595   3.947  0.00  0.00    -0.025 A 
HETATM   21  C   UNK N   1      24.032  18.260   4.249  0.00  0.00     0.013 A 
HETATM   22  C   UNK N   1      22.974  19.056   3.797  0.00  0.00     0.043 A 
HETATM   23  C   UNK N   1      23.237  20.194   3.034  0.00  0.00     0.116 A 
HETATM   24  C   UNK N   1      24.551  20.539   2.724  0.00  0.00     0.043 A 
HETATM   25  F   UNK N   1      22.213  20.967   2.595  0.00  0.00    -0.206 F 
HETATM   26  C   UNK N   1      25.607  19.744   3.180  0.00  0.00     0.013 A 
ENDBRANCH  19  20
BRANCH  19  27
HETATM   27  C   UNK N   1      27.173  18.030   5.789  0.00  0.00    -0.025 A 
HETATM   28  C   UNK N   1      27.446  16.926   6.611  0.00  0.00     0.013 A 
HETATM   29  C   UNK N   1      28.033  17.101   7.869  0.00  0.00     0.043 A 
HETATM   30  C   UNK N   1      28.359  18.382   8.315  0.00  0.00     0.116 A 
HETATM   31  C   UNK N   1      28.095  19.490   7.507  0.00  0.00     0.043 A 
HETATM   32  F   UNK N   1      28.934  18.552   9.531  0.00  0.00    -0.206 F 
HETATM   33  C   UNK N   1      27.505  19.312   6.252  0.00  0.00     0.013 A 
ENDBRANCH  19  27
ENDBRANCH  18  19
ENDBRANCH   1  18
TORSDOF 10
ENDMDL
MODEL 8
REMARK VINA RESULT:      -7.5      2.234      3.343
REMARK  10 active torsions:
REMARK  status: ('A' for Active; 'I' for Inactive)
REMARK    1  A    between atoms: N_3  and  C_16 
REMARK    2  A    between atoms: N_6  and  C_7 
REMARK    3  A    between atoms: C_7  and  C_8 
REMARK    4  A    between atoms: C_8  and  C_9 
REMARK    5  A    between atoms: C_9  and  C_10 
REMARK    6  A    between atoms: C_16  and  C_17 
REMARK    7  A    between atoms: C_17  and  O_18 
REMARK    8  A    between atoms: O_18  and  C_19 
REMARK    9  A    between atoms: C_19  and  C_20 
REMARK   10  A    between atoms: C_19  and  C_27 
ROOT
HETATM    1  C   UNK N   1      35.544  12.329  12.990  0.00  0.00     0.199 C 
ENDROOT
BRANCH   1   2
HETATM    2  C   UNK N   1      36.204  13.009  11.795  0.00  0.00     0.298 C 
BRANCH   2   3
HETATM    3  N   UNK N   1      35.402  14.116  11.291  0.00  0.00     0.093 N 
HETATM    4  C   UNK N   1      34.923  13.801   9.946  0.00  0.00     0.302 C 
HETATM    5  C   UNK N   1      34.084  14.969   9.438  0.00  0.00     0.302 C 
HETATM    6  N   UNK N   1      34.908  16.175   9.361  0.00  0.00     0.091 N 
HETATM    7  C   UNK N   1      35.471  16.475  10.681  0.00  0.00     0.302 C 
HETATM    8  C   UNK N   1      36.276  15.283  11.199  0.00  0.00     0.302 C 
BRANCH   6   9
HETATM    9  C   UNK N   1      34.010  17.264   9.018  0.00  0.00     0.273 C 
BRANCH   9  10
HETATM   10  C   UNK N   1      34.228  17.688   7.578  0.00  0.00     0.035 C 
BRANCH  10  11
HETATM   11  C   UNK N   1      32.912  17.647   6.820  0.00  0.00     0.040 C 
BRANCH  11  12
HETATM   12  C   UNK N   1      33.072  16.980   5.497  0.00  0.00    -0.058 A 
HETATM   13  C   UNK N   1      33.800  15.788   5.383  0.00  0.00     0.007 A 
HETATM   14  C   UNK N   1      33.956  15.178   4.135  0.00  0.00     0.001 A 
HETATM   15  C   UNK N   1      33.387  15.759   2.998  0.00  0.00     0.000 A 
HETATM   16  C   UNK N   1      32.664  16.951   3.109  0.00  0.00     0.001 A 
HETATM   17  C   UNK N   1      32.509  17.561   4.357  0.00  0.00     0.007 A 
ENDBRANCH  11  12
ENDBRANCH  10  11
ENDBRANCH   9  10
ENDBRANCH   6   9
ENDBRANCH   2   3
ENDBRANCH   1   2
BRANCH   1  18
HETATM   18  O   UNK N   1      36.306  12.479  14.157  0.00  0.00    -0.375 OA
BRANCH  18  19
HETATM   19  C   UNK N   1      35.928  11.396  14.963  0.00  0.00     0.187 C 
BRANCH  19  20
HETATM   20  C   UNK N   1      36.849  10.209  14.698  0.00  0.00    -0.025 A 
HETATM   21  C   UNK N   1      38.247  10.302  14.710  0.00  0.00     0.013 A 
HETATM   22  C   UNK N   1      39.039   9.176  14.470  0.00  0.00     0.043 A 
HETATM   23  C   UNK N   1      38.437   7.943  14.212  0.00  0.00     0.116 A 
HETATM   24  C   UNK N   1      37.047   7.835  14.195  0.00  0.00     0.043 A 
HETATM   25  F   UNK N   1      39.203   6.849  13.979  0.00  0.00    -0.206 F 
HETATM   26  C   UNK N   1      36.257   8.962  14.439  0.00  0.00     0.013 A 
ENDBRANCH  19  20
BRANCH  19  27
HETATM   27  C   UNK N   1      35.661  11.862  16.390  0.00  0.00    -0.025 A 
HETATM   28  C   UNK N   1      35.374  13.219  16.605  0.00  0.00     0.013 A 
HETATM   29  C   UNK N   1      35.099  13.695  17.891  0.00  0.00     0.043 A 
HETATM   30  C   UNK N   1      35.101  12.817  18.976  0.00  0.00     0.116 A 
HETATM   31  C   UNK N   1      35.383  11.464  18.777  0.00  0.00     0.043 A 
HETATM   32  F   UNK N   1      34.827  13.276  20.222  0.00  0.00    -0.206 F 
HETATM   33  C   UNK N   1      35.662  10.992  17.491  0.00  0.00     0.013 A 
ENDBRANCH  19  27
ENDBRANCH  18  19
ENDBRANCH   1  18
TORSDOF 10
ENDMDL
MODEL 9
REMARK VINA RESULT:      -7.5      4.345     10.672
REMARK  10 active torsions:
REMARK  status: ('A' for Active; 'I' for Inactive)
REMARK    1  A    between atoms: N_3  and  C_16 
REMARK    2  A    between atoms: N_6  and  C_7 
REMARK    3  A    between atoms: C_7  and  C_8 
REMARK    4  A    between atoms: C_8  and  C_9 
REMARK    5  A    between atoms: C_9  and  C_10 
REMARK    6  A    between atoms: C_16  and  C_17 
REMARK    7  A    between atoms: C_17  and  O_18 
REMARK    8  A    between atoms: O_18  and  C_19 
REMARK    9  A    between atoms: C_19  and  C_20 
REMARK   10  A    between atoms: C_19  and  C_27 
ROOT
HETATM    1  C   UNK N   1      33.024  15.611   9.275  0.00  0.00     0.199 C 
ENDROOT
BRANCH   1   2
HETATM    2  C   UNK N   1      34.248  14.705   9.182  0.00  0.00     0.298 C 
BRANCH   2   3
HETATM    3  N   UNK N   1      34.628  14.174  10.484  0.00  0.00     0.093 N 
HETATM    4  C   UNK N   1      35.483  15.138  11.176  0.00  0.00     0.302 C 
HETATM    5  C   UNK N   1      35.867  14.565  12.536  0.00  0.00     0.302 C 
HETATM    6  N   UNK N   1      36.623  13.326  12.357  0.00  0.00     0.091 N 
HETATM    7  C   UNK N   1      35.823  12.362  11.596  0.00  0.00     0.302 C 
HETATM    8  C   UNK N   1      35.408  12.961  10.251  0.00  0.00     0.302 C 
BRANCH   6   9
HETATM    9  C   UNK N   1      36.818  12.770  13.685  0.00  0.00     0.273 C 
BRANCH   9  10
HETATM   10  C   UNK N   1      35.620  13.076  14.562  0.00  0.00     0.035 C 
BRANCH  10  11
HETATM   11  C   UNK N   1      35.222  11.838  15.348  0.00  0.00     0.040 C 
BRANCH  11  12
HETATM   12  C   UNK N   1      35.240  12.100  16.816  0.00  0.00    -0.058 A 
HETATM   13  C   UNK N   1      35.255  11.039  17.729  0.00  0.00     0.007 A 
HETATM   14  C   UNK N   1      35.256  11.295  19.103  0.00  0.00     0.001 A 
HETATM   15  C   UNK N   1      35.238  12.614  19.566  0.00  0.00     0.000 A 
HETATM   16  C   UNK N   1      35.219  13.675  18.656  0.00  0.00     0.001 A 
HETATM   17  C   UNK N   1      35.217  13.418  17.282  0.00  0.00     0.007 A 
ENDBRANCH  11  12
ENDBRANCH  10  11
ENDBRANCH   9  10
ENDBRANCH   6   9
ENDBRANCH   2   3
ENDBRANCH   1   2
BRANCH   1  18
HETATM   18  O   UNK N   1      32.047  15.257   8.334  0.00  0.00    -0.375 OA
BRANCH  18  19
HETATM   19  C   UNK N   1      32.021  16.332   7.435  0.00  0.00     0.187 C 
BRANCH  19  20
HETATM   20  C   UNK N   1      32.410  15.850   6.041  0.00  0.00    -0.025 A 
HETATM   21  C   UNK N   1      33.113  16.641   5.122  0.00  0.00     0.013 A 
HETATM   22  C   UNK N   1      33.451  16.140   3.861  0.00  0.00     0.043 A 
HETATM   23  C   UNK N   1      33.084  14.841   3.507  0.00  0.00     0.116 A 
HETATM   24  C   UNK N   1      32.384  14.042   4.410  0.00  0.00     0.043 A 
HETATM   25  F   UNK N   1      33.411  14.353   2.285  0.00  0.00    -0.206 F 
HETATM   26  C   UNK N   1      32.050  14.544   5.672  0.00  0.00     0.013 A 
ENDBRANCH  19  20
BRANCH  19  27
HETATM   27  C   UNK N   1      30.762  17.168   7.639  0.00  0.00    -0.025 A 
HETATM   28  C   UNK N   1      30.696  18.009   8.760  0.00  0.00     0.013 A 
HETATM   29  C   UNK N   1      29.573  18.814   8.983  0.00  0.00     0.043 A 
HETATM   30  C   UNK N   1      28.508  18.790   8.081  0.00  0.00     0.116 A 
HETATM   31  C   UNK N   1      28.561  17.960   6.961  0.00  0.00     0.043 A 
HETATM   32  F   UNK N   1      27.422  19.576   8.292  0.00  0.00    -0.206 F 
HETATM   33  C   UNK N   1      29.682  17.154   6.744  0.00  0.00     0.013 A 
ENDBRANCH  19  27
ENDBRANCH  18  19
ENDBRANCH   1  18
TORSDOF 10
ENDMDL
