MODEL 1
REMARK VINA RESULT:      -8.1      0.000      0.000
REMARK  4 active torsions:
REMARK  status: ('A' for Active; 'I' for Inactive)
REMARK    1  A    between atoms: C_19  and  C_11 
REMARK    2  A    between atoms: C_20  and  C_16 
REMARK    3  A    between atoms: C_21  and  O_30 
REMARK    4  A    between atoms: C_24  and  O_32 
ROOT
HETATM    1  C   UNK N   1      26.009  15.041   2.169  0.00  0.00     0.012 C 
HETATM    2  C   UNK N   1      25.233  17.421   3.807  0.00  0.00     0.020 C 
HETATM    3  C   UNK N   1      29.265  17.891   5.632  0.00  0.00     0.026 C 
HETATM    4  C   UNK N   1      27.513  16.822   7.240  0.00  0.00     0.026 C 
HETATM    5  C   UNK N   1      31.915  12.269   3.501  0.00  0.00     0.049 C 
HETATM    6  C   UNK N   1      29.804  15.585   2.908  0.00  0.00     0.004 C 
HETATM    7  C   UNK N   1      28.436  15.651   2.203  0.00  0.00     0.007 C 
HETATM    8  C   UNK N   1      30.401  14.200   2.740  0.00  0.00     0.040 C 
HETATM    9  C   UNK N   1      31.037  15.472   5.758  0.00  0.00     0.072 C 
HETATM   10  C   UNK N   1      29.202  18.688   8.662  0.00  0.00     0.144 C 
HETATM   11  C   UNK N   1      27.267  15.047   3.017  0.00  0.00     0.011 C 
HETATM   12  C   UNK N   1      26.698  17.315   4.218  0.00  0.00     0.081 C 
HETATM   13  C   UNK N   1      31.115  15.629   7.297  0.00  0.00     0.163 C 
HETATM   14  C   UNK N   1      28.287  19.168   7.489  0.00  0.00     0.142 C 
HETATM   15  C   UNK N   1      31.587  14.159   5.209  0.00  0.00     0.159 A 
HETATM   16  C   UNK N   1      30.419  17.845   8.335  0.00  0.00     0.261 C 
HETATM   17  C   UNK N   1      27.059  15.775   4.371  0.00  0.00     0.132 C 
HETATM   18  C   UNK N   1      26.942  18.310   5.382  0.00  0.00     0.143 C 
HETATM   19  C   UNK N   1      27.983  18.048   6.449  0.00  0.00     0.040 C 
HETATM   20  C   UNK N   1      31.353  13.640   3.816  0.00  0.00     0.084 A 
HETATM   21  O   UNK N   1      31.524  18.233   8.687  0.00  0.00    -0.265 OA
HETATM   22  O   UNK N   1      26.413  19.412   5.338  0.00  0.00    -0.297 OA
HETATM   23  O   UNK N   1      30.251  16.646   7.697  0.00  0.00    -0.311 OA
HETATM   24  O   UNK N   1      32.427  14.491   4.119  0.00  0.00    -0.369 OA
ENDROOT
BRANCH  13  25
HETATM   25  C   UNK N   1      32.512  15.777   7.871  0.00  0.00    -0.052 C 
HETATM   26  C   UNK N   1      33.495  16.591   7.082  0.00  0.00     0.046 C 
HETATM   27  C   UNK N   1      32.872  15.215   9.048  0.00  0.00     0.035 C 
BRANCH  27  28
HETATM   28  C   UNK N   1      34.267  15.247   9.539  0.00  0.00     0.039 A 
HETATM   29  C   UNK N   1      34.694  16.092  10.579  0.00  0.00     0.081 A 
HETATM   30  S   UNK N   1      36.287  15.688  10.821  0.00  0.00    -0.087 SA
HETATM   31  C   UNK N   1      36.397  14.482   9.706  0.00  0.00     0.047 A 
HETATM   32  C   UNK N   1      37.569  13.593   9.484  0.00  0.00     0.076 C 
HETATM   33  N   UNK N   1      35.214  14.355   9.068  0.00  0.00    -0.354 N 
ATOM     34  HN  UNK N   1      35.038  13.680   8.324  1.00  0.00     0.166 HD
ENDBRANCH  27  28
ENDBRANCH  13  25
BRANCH  14  35
HETATM   35  O   UNK N   1      27.096  19.623   8.059  0.00  0.00    -0.394 OA
HETATM   36  H   UNK N   1      26.848  20.553   8.178  0.00  0.00     0.210 HD
ENDBRANCH  14  35
BRANCH  17  37
HETATM   37  O   UNK N   1      28.226  15.540   5.083  0.00  0.00    -0.394 OA
HETATM   38  H   UNK N   1      28.899  16.233   5.170  0.00  0.00     0.210 HD
ENDBRANCH  17  37
TORSDOF 4
ENDMDL
MODEL 2
REMARK VINA RESULT:      -7.8      5.234     10.070
REMARK  4 active torsions:
REMARK  status: ('A' for Active; 'I' for Inactive)
REMARK    1  A    between atoms: C_19  and  C_11 
REMARK    2  A    between atoms: C_20  and  C_16 
REMARK    3  A    between atoms: C_21  and  O_30 
REMARK    4  A    between atoms: C_24  and  O_32 
ROOT
HETATM    1  C   UNK N   1      36.513   6.857  12.341  0.00  0.00     0.012 C 
HETATM    2  C   UNK N   1      37.172   8.839  14.483  0.00  0.00     0.020 C 
HETATM    3  C   UNK N   1      34.806  12.122  12.629  0.00  0.00     0.026 C 
HETATM    4  C   UNK N   1      37.379  12.371  12.284  0.00  0.00     0.026 C 
HETATM    5  C   UNK N   1      33.516   9.212   6.881  0.00  0.00     0.049 C 
HETATM    6  C   UNK N   1      33.742   9.168  10.850  0.00  0.00     0.004 C 
HETATM    7  C   UNK N   1      34.423   8.070  11.688  0.00  0.00     0.007 C 
HETATM    8  C   UNK N   1      33.653   8.728   9.401  0.00  0.00     0.040 C 
HETATM    9  C   UNK N   1      34.301  11.989   9.674  0.00  0.00     0.072 C 
HETATM   10  C   UNK N   1      36.168  14.937  12.829  0.00  0.00     0.144 C 
HETATM   11  C   UNK N   1      35.968   8.060  11.595  0.00  0.00     0.011 C 
HETATM   12  C   UNK N   1      36.274   9.715  13.614  0.00  0.00     0.081 C 
HETATM   13  C   UNK N   1      34.990  13.367   9.509  0.00  0.00     0.163 C 
HETATM   14  C   UNK N   1      36.111  13.784  13.883  0.00  0.00     0.142 C 
HETATM   15  C   UNK N   1      34.027  11.240   8.373  0.00  0.00     0.159 A 
HETATM   16  C   UNK N   1      35.329  14.815  11.573  0.00  0.00     0.261 C 
HETATM   17  C   UNK N   1      36.591   9.391  12.092  0.00  0.00     0.132 C 
HETATM   18  C   UNK N   1      36.355  11.167  14.153  0.00  0.00     0.143 C 
HETATM   19  C   UNK N   1      36.184  12.365  13.245  0.00  0.00     0.040 C 
HETATM   20  C   UNK N   1      33.659   9.784   8.277  0.00  0.00     0.084 A 
HETATM   21  O   UNK N   1      34.516  15.692  11.313  0.00  0.00    -0.265 OA
HETATM   22  O   UNK N   1      36.374  11.347  15.363  0.00  0.00    -0.297 OA
HETATM   23  O   UNK N   1      35.532  13.755  10.733  0.00  0.00    -0.311 OA
HETATM   24  O   UNK N   1      32.687  10.785   8.437  0.00  0.00    -0.369 OA
ENDROOT
BRANCH  13  25
HETATM   25  C   UNK N   1      34.145  14.450   8.865  0.00  0.00    -0.052 C 
HETATM   26  C   UNK N   1      34.865  15.498   8.068  0.00  0.00     0.046 C 
HETATM   27  C   UNK N   1      32.798  14.481   8.984  0.00  0.00     0.035 C 
BRANCH  27  28
HETATM   28  C   UNK N   1      31.990  15.609   8.469  0.00  0.00     0.039 A 
HETATM   29  C   UNK N   1      31.518  15.672   7.146  0.00  0.00     0.081 A 
HETATM   30  S   UNK N   1      30.598  17.055   7.094  0.00  0.00    -0.087 SA
HETATM   31  C   UNK N   1      30.757  17.504   8.669  0.00  0.00     0.047 A 
HETATM   32  C   UNK N   1      30.063  18.638   9.336  0.00  0.00     0.076 C 
HETATM   33  N   UNK N   1      31.558  16.623   9.306  0.00  0.00    -0.354 N 
ATOM     34  HN  UNK N   1      31.815  16.695  10.291  1.00  0.00     0.166 HD
ENDBRANCH  27  28
ENDBRANCH  13  25
BRANCH  14  35
HETATM   35  O   UNK N   1      37.188  13.970  14.752  0.00  0.00    -0.394 OA
HETATM   36  H   UNK N   1      37.540  13.305  15.364  0.00  0.00     0.210 HD
ENDBRANCH  14  35
BRANCH  17  37
HETATM   37  O   UNK N   1      36.128  10.352  11.205  0.00  0.00    -0.394 OA
HETATM   38  H   UNK N   1      36.460  10.384  10.294  0.00  0.00     0.210 HD
ENDBRANCH  17  37
TORSDOF 4
ENDMDL
MODEL 3
REMARK VINA RESULT:      -7.4      1.626      4.792
REMARK  4 active torsions:
REMARK  status: ('A' for Active; 'I' for Inactive)
REMARK    1  A    between atoms: C_19  and  C_11 
REMARK    2  A    between atoms: C_20  and  C_16 
REMARK    3  A    between atoms: C_21  and  O_30 
REMARK    4  A    between atoms: C_24  and  O_32 
ROOT
HETATM    1  C   UNK N   1      26.210  16.595   3.235  0.00  0.00     0.012 C 
HETATM    2  C   UNK N   1      28.039  14.885   1.598  0.00  0.00     0.020 C 
HETATM    3  C   UNK N   1      31.072  14.465   4.828  0.00  0.00     0.026 C 
HETATM    4  C   UNK N   1      31.766  16.148   2.961  0.00  0.00     0.026 C 
HETATM    5  C   UNK N   1      28.604  18.894   9.008  0.00  0.00     0.049 C 
HETATM    6  C   UNK N   1      28.186  15.826   6.514  0.00  0.00     0.004 C 
HETATM    7  C   UNK N   1      27.131  15.729   5.396  0.00  0.00     0.007 C 
HETATM    8  C   UNK N   1      27.890  17.024   7.396  0.00  0.00     0.040 C 
HETATM    9  C   UNK N   1      31.166  16.589   6.946  0.00  0.00     0.072 C 
HETATM   10  C   UNK N   1      34.034  14.570   3.809  0.00  0.00     0.144 C 
HETATM   11  C   UNK N   1      27.380  16.676   4.197  0.00  0.00     0.011 C 
HETATM   12  C   UNK N   1      28.844  14.925   2.893  0.00  0.00     0.081 C 
HETATM   13  C   UNK N   1      32.647  16.864   6.582  0.00  0.00     0.163 C 
HETATM   14  C   UNK N   1      32.783  13.893   3.161  0.00  0.00     0.142 C 
HETATM   15  C   UNK N   1      30.522  17.617   7.871  0.00  0.00     0.159 A 
HETATM   16  C   UNK N   1      33.909  15.133   5.211  0.00  0.00     0.261 C 
HETATM   17  C   UNK N   1      28.734  16.390   3.498  0.00  0.00     0.132 C 
HETATM   18  C   UNK N   1      30.226  14.277   2.618  0.00  0.00     0.143 C 
HETATM   19  C   UNK N   1      31.468  14.702   3.370  0.00  0.00     0.040 C 
HETATM   20  C   UNK N   1      29.044  17.746   8.121  0.00  0.00     0.084 A 
HETATM   21  O   UNK N   1      34.665  14.729   6.084  0.00  0.00    -0.265 OA
HETATM   22  O   UNK N   1      30.280  13.280   1.912  0.00  0.00    -0.297 OA
HETATM   23  O   UNK N   1      32.988  16.114   5.459  0.00  0.00    -0.311 OA
HETATM   24  O   UNK N   1      29.853  16.891   8.886  0.00  0.00    -0.369 OA
ENDROOT
BRANCH  13  25
HETATM   25  C   UNK N   1      33.641  16.716   7.719  0.00  0.00    -0.052 C 
HETATM   26  C   UNK N   1      34.611  17.841   7.933  0.00  0.00     0.046 C 
HETATM   27  C   UNK N   1      33.661  15.628   8.523  0.00  0.00     0.035 C 
BRANCH  27  28
HETATM   28  C   UNK N   1      34.714  15.424   9.542  0.00  0.00     0.039 A 
HETATM   29  C   UNK N   1      34.546  15.768  10.896  0.00  0.00     0.081 A 
HETATM   30  S   UNK N   1      35.945  15.261  11.634  0.00  0.00    -0.087 SA
HETATM   31  C   UNK N   1      36.682  14.604  10.318  0.00  0.00     0.047 A 
HETATM   32  C   UNK N   1      37.965  13.850  10.311  0.00  0.00     0.076 C 
HETATM   33  N   UNK N   1      35.896  14.775   9.233  0.00  0.00    -0.354 N 
ATOM     34  HN  UNK N   1      36.143  14.460   8.295  1.00  0.00     0.166 HD
ENDBRANCH  27  28
ENDBRANCH  13  25
BRANCH  14  35
HETATM   35  O   UNK N   1      33.049  13.765   1.796  0.00  0.00    -0.394 OA
HETATM   36  H   UNK N   1      33.593  13.071   1.390  0.00  0.00     0.210 HD
ENDBRANCH  14  35
BRANCH  17  37
HETATM   37  O   UNK N   1      29.695  16.674   4.459  0.00  0.00    -0.394 OA
HETATM   38  H   UNK N   1      29.437  17.002   5.334  0.00  0.00     0.210 HD
ENDBRANCH  17  37
TORSDOF 4
ENDMDL
MODEL 4
REMARK VINA RESULT:      -7.1      3.733      8.645
REMARK  4 active torsions:
REMARK  status: ('A' for Active; 'I' for Inactive)
REMARK    1  A    between atoms: C_19  and  C_11 
REMARK    2  A    between atoms: C_20  and  C_16 
REMARK    3  A    between atoms: C_21  and  O_30 
REMARK    4  A    between atoms: C_24  and  O_32 
ROOT
HETATM    1  C   UNK N   1      37.194   8.906   9.484  0.00  0.00     0.012 C 
HETATM    2  C   UNK N   1      37.656  10.939  11.630  0.00  0.00     0.020 C 
HETATM    3  C   UNK N   1      34.455  13.673  10.185  0.00  0.00     0.026 C 
HETATM    4  C   UNK N   1      36.861  14.477   9.581  0.00  0.00     0.026 C 
HETATM    5  C   UNK N   1      33.168  10.673   4.482  0.00  0.00     0.049 C 
HETATM    6  C   UNK N   1      33.846  10.596   8.399  0.00  0.00     0.004 C 
HETATM    7  C   UNK N   1      34.834   9.653   9.110  0.00  0.00     0.007 C 
HETATM    8  C   UNK N   1      33.689  10.178   6.949  0.00  0.00     0.040 C 
HETATM    9  C   UNK N   1      33.658  13.495   7.297  0.00  0.00     0.072 C 
HETATM   10  C   UNK N   1      35.204  16.711  10.365  0.00  0.00     0.144 C 
HETATM   11  C   UNK N   1      36.326   9.979   8.854  0.00  0.00     0.011 C 
HETATM   12  C   UNK N   1      36.501  11.619  10.901  0.00  0.00     0.081 C 
HETATM   13  C   UNK N   1      34.016  14.993   7.122  0.00  0.00     0.163 C 
HETATM   14  C   UNK N   1      35.511  15.550  11.366  0.00  0.00     0.142 C 
HETATM   15  C   UNK N   1      33.404  12.732   6.001  0.00  0.00     0.159 A 
HETATM   16  C   UNK N   1      34.273  16.437   9.201  0.00  0.00     0.261 C 
HETATM   17  C   UNK N   1      36.705  11.402   9.340  0.00  0.00     0.132 C 
HETATM   18  C   UNK N   1      36.333  13.042  11.492  0.00  0.00     0.143 C 
HETATM   19  C   UNK N   1      35.811  14.194  10.661  0.00  0.00     0.040 C 
HETATM   20  C   UNK N   1      33.344  11.233   5.880  0.00  0.00     0.084 A 
HETATM   21  O   UNK N   1      33.268  17.123   9.067  0.00  0.00    -0.265 OA
HETATM   22  O   UNK N   1      36.451  13.197  12.700  0.00  0.00    -0.297 OA
HETATM   23  O   UNK N   1      34.599  15.462   8.298  0.00  0.00    -0.311 OA
HETATM   24  O   UNK N   1      32.207  11.998   6.187  0.00  0.00    -0.369 OA
ENDROOT
BRANCH  13  25
HETATM   25  C   UNK N   1      32.894  15.881   6.620  0.00  0.00    -0.052 C 
HETATM   26  C   UNK N   1      33.283  17.091   5.822  0.00  0.00     0.046 C 
HETATM   27  C   UNK N   1      31.592  15.607   6.862  0.00  0.00     0.035 C 
BRANCH  27  28
HETATM   28  C   UNK N   1      30.509  16.543   6.489  0.00  0.00     0.039 A 
HETATM   29  C   UNK N   1      29.875  16.517   5.234  0.00  0.00     0.081 A 
HETATM   30  S   UNK N   1      28.687  17.674   5.342  0.00  0.00    -0.087 SA
HETATM   31  C   UNK N   1      28.941  18.130   6.902  0.00  0.00     0.047 A 
HETATM   32  C   UNK N   1      28.113  19.085   7.687  0.00  0.00     0.076 C 
HETATM   33  N   UNK N   1      29.981  17.433   7.407  0.00  0.00    -0.354 N 
ATOM     34  HN  UNK N   1      30.337  17.548   8.356  1.00  0.00     0.166 HD
ENDBRANCH  27  28
ENDBRANCH  13  25
BRANCH  14  35
HETATM   35  O   UNK N   1      36.616  15.946  12.124  0.00  0.00    -0.394 OA
HETATM   36  H   UNK N   1      37.537  15.946  11.820  0.00  0.00     0.210 HD
ENDBRANCH  14  35
BRANCH  17  37
HETATM   37  O   UNK N   1      35.952  12.259   8.551  0.00  0.00    -0.394 OA
HETATM   38  H   UNK N   1      35.961  13.215   8.713  0.00  0.00     0.210 HD
ENDBRANCH  17  37
TORSDOF 4
ENDMDL
MODEL 5
REMARK VINA RESULT:      -7.1      5.341     10.165
REMARK  4 active torsions:
REMARK  status: ('A' for Active; 'I' for Inactive)
REMARK    1  A    between atoms: C_19  and  C_11 
REMARK    2  A    between atoms: C_20  and  C_16 
REMARK    3  A    between atoms: C_21  and  O_30 
REMARK    4  A    between atoms: C_24  and  O_32 
ROOT
HETATM    1  C   UNK N   1      36.930   7.297  13.361  0.00  0.00     0.012 C 
HETATM    2  C   UNK N   1      37.239   9.681  15.142  0.00  0.00     0.020 C 
HETATM    3  C   UNK N   1      34.948  12.393  12.457  0.00  0.00     0.026 C 
HETATM    4  C   UNK N   1      37.528  12.753  12.344  0.00  0.00     0.026 C 
HETATM    5  C   UNK N   1      34.477   8.390   7.267  0.00  0.00     0.049 C 
HETATM    6  C   UNK N   1      34.242   9.095  11.173  0.00  0.00     0.004 C 
HETATM    7  C   UNK N   1      34.874   8.220  12.272  0.00  0.00     0.007 C 
HETATM    8  C   UNK N   1      34.345   8.390   9.833  0.00  0.00     0.040 C 
HETATM    9  C   UNK N   1      34.796  11.682   9.545  0.00  0.00     0.072 C 
HETATM   10  C   UNK N   1      36.138  15.285  12.258  0.00  0.00     0.144 C 
HETATM   11  C   UNK N   1      36.418   8.301  12.345  0.00  0.00     0.011 C 
HETATM   12  C   UNK N   1      36.406  10.317  14.033  0.00  0.00     0.081 C 
HETATM   13  C   UNK N   1      35.431  13.052   9.194  0.00  0.00     0.163 C 
HETATM   14  C   UNK N   1      36.015  14.344  13.500  0.00  0.00     0.142 C 
HETATM   15  C   UNK N   1      34.712  10.689   8.391  0.00  0.00     0.159 A 
HETATM   16  C   UNK N   1      35.458  14.875  10.967  0.00  0.00     0.261 C 
HETATM   17  C   UNK N   1      36.914   9.741  12.642  0.00  0.00     0.132 C 
HETATM   18  C   UNK N   1      36.353  11.846  14.290  0.00  0.00     0.143 C 
HETATM   19  C   UNK N   1      36.231  12.841  13.156  0.00  0.00     0.040 C 
HETATM   20  C   UNK N   1      34.429   9.219   8.536  0.00  0.00     0.084 A 
HETATM   21  O   UNK N   1      34.639  15.630  10.460  0.00  0.00    -0.265 OA
HETATM   22  O   UNK N   1      36.223  12.246  15.438  0.00  0.00    -0.297 OA
HETATM   23  O   UNK N   1      35.808  13.695  10.371  0.00  0.00    -0.311 OA
HETATM   24  O   UNK N   1      33.398  10.161   8.399  0.00  0.00    -0.369 OA
ENDROOT
BRANCH  13  25
HETATM   25  C   UNK N   1      34.616  13.935   8.269  0.00  0.00    -0.052 C 
HETATM   26  C   UNK N   1      33.124  13.784   8.316  0.00  0.00     0.046 C 
HETATM   27  C   UNK N   1      35.191  14.834   7.437  0.00  0.00     0.035 C 
BRANCH  27  28
HETATM   28  C   UNK N   1      34.405  15.597   6.442  0.00  0.00     0.039 A 
HETATM   29  C   UNK N   1      33.902  16.887   6.691  0.00  0.00     0.081 A 
HETATM   30  S   UNK N   1      33.194  17.343   5.258  0.00  0.00    -0.087 SA
HETATM   31  C   UNK N   1      33.558  16.002   4.377  0.00  0.00     0.047 A 
HETATM   32  C   UNK N   1      33.301  15.806   2.924  0.00  0.00     0.076 C 
HETATM   33  N   UNK N   1      34.216  15.119   5.158  0.00  0.00    -0.354 N 
ATOM     34  HN  UNK N   1      34.538  14.206   4.838  1.00  0.00     0.166 HD
ENDBRANCH  27  28
ENDBRANCH  13  25
BRANCH  14  35
HETATM   35  O   UNK N   1      36.973  14.762  14.426  0.00  0.00    -0.394 OA
HETATM   36  H   UNK N   1      36.797  15.295  15.218  0.00  0.00     0.210 HD
ENDBRANCH  14  35
BRANCH  17  37
HETATM   37  O   UNK N   1      36.510  10.487  11.544  0.00  0.00    -0.394 OA
HETATM   38  H   UNK N   1      36.013  11.311  11.663  0.00  0.00     0.210 HD
ENDBRANCH  17  37
TORSDOF 4
ENDMDL
MODEL 6
REMARK VINA RESULT:      -7.1      3.906      5.814
REMARK  4 active torsions:
REMARK  status: ('A' for Active; 'I' for Inactive)
REMARK    1  A    between atoms: C_19  and  C_11 
REMARK    2  A    between atoms: C_20  and  C_16 
REMARK    3  A    between atoms: C_21  and  O_30 
REMARK    4  A    between atoms: C_24  and  O_32 
ROOT
HETATM    1  C   UNK N   1      30.904  14.232   3.422  0.00  0.00     0.012 C 
HETATM    2  C   UNK N   1      31.925  16.910   4.279  0.00  0.00     0.020 C 
HETATM    3  C   UNK N   1      34.789  15.233   7.245  0.00  0.00     0.026 C 
HETATM    4  C   UNK N   1      32.644  16.246   8.327  0.00  0.00     0.026 C 
HETATM    5  C   UNK N   1      32.732   8.994   7.105  0.00  0.00     0.049 C 
HETATM    6  C   UNK N   1      33.783  12.371   5.290  0.00  0.00     0.004 C 
HETATM    7  C   UNK N   1      32.986  13.060   4.166  0.00  0.00     0.007 C 
HETATM    8  C   UNK N   1      33.199  10.999   5.567  0.00  0.00     0.040 C 
HETATM    9  C   UNK N   1      34.213  12.508   8.363  0.00  0.00     0.072 C 
HETATM   10  C   UNK N   1      34.983  16.889   9.899  0.00  0.00     0.144 C 
HETATM   11  C   UNK N   1      31.663  13.715   4.629  0.00  0.00     0.011 C 
HETATM   12  C   UNK N   1      32.794  16.026   5.170  0.00  0.00     0.081 C 
HETATM   13  C   UNK N   1      34.206  13.113   9.791  0.00  0.00     0.163 C 
HETATM   14  C   UNK N   1      34.846  17.388   8.424  0.00  0.00     0.142 C 
HETATM   15  C   UNK N   1      33.692  11.078   8.261  0.00  0.00     0.159 A 
HETATM   16  C   UNK N   1      35.230  15.414  10.146  0.00  0.00     0.261 C 
HETATM   17  C   UNK N   1      31.899  14.821   5.691  0.00  0.00     0.132 C 
HETATM   18  C   UNK N   1      33.550  16.945   6.164  0.00  0.00     0.143 C 
HETATM   19  C   UNK N   1      33.943  16.471   7.546  0.00  0.00     0.040 C 
HETATM   20  C   UNK N   1      33.314  10.388   6.978  0.00  0.00     0.084 A 
HETATM   21  O   UNK N   1      36.220  15.074  10.779  0.00  0.00    -0.265 OA
HETATM   22  O   UNK N   1      33.999  18.009   5.760  0.00  0.00    -0.297 OA
HETATM   23  O   UNK N   1      34.316  14.499   9.699  0.00  0.00    -0.311 OA
HETATM   24  O   UNK N   1      34.625  10.358   7.476  0.00  0.00    -0.369 OA
ENDROOT
BRANCH  13  25
HETATM   25  C   UNK N   1      35.194  12.501  10.766  0.00  0.00    -0.052 C 
HETATM   26  C   UNK N   1      36.485  11.986  10.203  0.00  0.00     0.046 C 
HETATM   27  C   UNK N   1      34.943  12.423  12.093  0.00  0.00     0.035 C 
BRANCH  27  28
HETATM   28  C   UNK N   1      35.845  11.707  13.022  0.00  0.00     0.039 A 
HETATM   29  C   UNK N   1      36.892  12.343  13.715  0.00  0.00     0.081 A 
HETATM   30  S   UNK N   1      37.532  11.156  14.686  0.00  0.00    -0.087 SA
HETATM   31  C   UNK N   1      36.504   9.938  14.281  0.00  0.00     0.047 A 
HETATM   32  C   UNK N   1      36.455   8.585  14.898  0.00  0.00     0.076 C 
HETATM   33  N   UNK N   1      35.634  10.379  13.347  0.00  0.00    -0.354 N 
ATOM     34  HN  UNK N   1      34.904   9.801  12.931  1.00  0.00     0.166 HD
ENDBRANCH  27  28
ENDBRANCH  13  25
BRANCH  14  35
HETATM   35  O   UNK N   1      34.307  18.675   8.476  0.00  0.00    -0.394 OA
HETATM   36  H   UNK N   1      33.770  19.090   7.782  0.00  0.00     0.210 HD
ENDBRANCH  14  35
BRANCH  17  37
HETATM   37  O   UNK N   1      32.437  14.154   6.783  0.00  0.00    -0.394 OA
HETATM   38  H   UNK N   1      31.888  13.951   7.556  0.00  0.00     0.210 HD
ENDBRANCH  17  37
TORSDOF 4
ENDMDL
MODEL 7
REMARK VINA RESULT:      -7.0      5.911     10.218
REMARK  4 active torsions:
REMARK  status: ('A' for Active; 'I' for Inactive)
REMARK    1  A    between atoms: C_19  and  C_11 
REMARK    2  A    between atoms: C_20  and  C_16 
REMARK    3  A    between atoms: C_21  and  O_30 
REMARK    4  A    between atoms: C_24  and  O_32 
ROOT
HETATM    1  C   UNK N   1      35.490   5.435  11.602  0.00  0.00     0.012 C 
HETATM    2  C   UNK N   1      36.007   6.886  14.167  0.00  0.00     0.020 C 
HETATM    3  C   UNK N   1      34.292  10.729  12.718  0.00  0.00     0.026 C 
HETATM    4  C   UNK N   1      36.898  10.707  12.772  0.00  0.00     0.026 C 
HETATM    5  C   UNK N   1      33.615   9.122   6.383  0.00  0.00     0.049 C 
HETATM    6  C   UNK N   1      33.224   8.316  10.257  0.00  0.00     0.004 C 
HETATM    7  C   UNK N   1      33.656   7.004  10.938  0.00  0.00     0.007 C 
HETATM    8  C   UNK N   1      33.316   8.167   8.750  0.00  0.00     0.040 C 
HETATM    9  C   UNK N   1      34.235  11.211   9.757  0.00  0.00     0.072 C 
HETATM   10  C   UNK N   1      35.879  13.262  13.659  0.00  0.00     0.144 C 
HETATM   11  C   UNK N   1      35.188   6.815  11.048  0.00  0.00     0.011 C 
HETATM   12  C   UNK N   1      35.344   8.015  13.382  0.00  0.00     0.081 C 
HETATM   13  C   UNK N   1      35.074  12.497   9.966  0.00  0.00     0.163 C 
HETATM   14  C   UNK N   1      35.547  11.950  14.442  0.00  0.00     0.142 C 
HETATM   15  C   UNK N   1      34.090  10.757   8.308  0.00  0.00     0.159 A 
HETATM   16  C   UNK N   1      35.235  13.482  12.305  0.00  0.00     0.261 C 
HETATM   17  C   UNK N   1      35.857   7.940  11.880  0.00  0.00     0.132 C 
HETATM   18  C   UNK N   1      35.485   9.319  14.209  0.00  0.00     0.143 C 
HETATM   19  C   UNK N   1      35.576  10.676  13.546  0.00  0.00     0.040 C 
HETATM   20  C   UNK N   1      33.598   9.403   7.873  0.00  0.00     0.084 A 
HETATM   21  O   UNK N   1      34.563  14.488  12.123  0.00  0.00    -0.265 OA
HETATM   22  O   UNK N   1      35.337   9.268  15.422  0.00  0.00    -0.297 OA
HETATM   23  O   UNK N   1      35.458  12.578  11.303  0.00  0.00    -0.311 OA
HETATM   24  O   UNK N   1      32.718  10.472   8.103  0.00  0.00    -0.369 OA
ENDROOT
BRANCH  13  25
HETATM   25  C   UNK N   1      34.450  13.779   9.448  0.00  0.00    -0.052 C 
HETATM   26  C   UNK N   1      32.952  13.857   9.436  0.00  0.00     0.046 C 
HETATM   27  C   UNK N   1      35.196  14.822   9.018  0.00  0.00     0.035 C 
BRANCH  27  28
HETATM   28  C   UNK N   1      34.589  16.016   8.389  0.00  0.00     0.039 A 
HETATM   29  C   UNK N   1      34.434  17.241   9.062  0.00  0.00     0.081 A 
HETATM   30  S   UNK N   1      33.808  18.271   7.919  0.00  0.00    -0.087 SA
HETATM   31  C   UNK N   1      33.791  17.229   6.646  0.00  0.00     0.047 A 
HETATM   32  C   UNK N   1      33.437  17.563   5.239  0.00  0.00     0.076 C 
HETATM   33  N   UNK N   1      34.237  16.021   7.051  0.00  0.00    -0.354 N 
ATOM     34  HN  UNK N   1      34.308  15.206   6.441  1.00  0.00     0.166 HD
ENDBRANCH  27  28
ENDBRANCH  13  25
BRANCH  14  35
HETATM   35  O   UNK N   1      36.491  11.834  15.464  0.00  0.00    -0.394 OA
HETATM   36  H   UNK N   1      37.420  11.580  15.348  0.00  0.00     0.210 HD
ENDBRANCH  14  35
BRANCH  17  37
HETATM   37  O   UNK N   1      35.633   9.100  11.152  0.00  0.00    -0.394 OA
HETATM   38  H   UNK N   1      34.731   9.420  10.999  0.00  0.00     0.210 HD
ENDBRANCH  17  37
TORSDOF 4
ENDMDL
MODEL 8
REMARK VINA RESULT:      -6.9      8.625     11.033
REMARK  4 active torsions:
REMARK  status: ('A' for Active; 'I' for Inactive)
REMARK    1  A    between atoms: C_19  and  C_11 
REMARK    2  A    between atoms: C_20  and  C_16 
REMARK    3  A    between atoms: C_21  and  O_30 
REMARK    4  A    between atoms: C_24  and  O_32 
ROOT
HETATM    1  C   UNK N   1      39.077  10.158   6.690  0.00  0.00     0.012 C 
HETATM    2  C   UNK N   1      38.976  13.100   7.226  0.00  0.00     0.020 C 
HETATM    3  C   UNK N   1      37.799  12.615  11.491  0.00  0.00     0.026 C 
HETATM    4  C   UNK N   1      35.825  13.323   9.941  0.00  0.00     0.026 C 
HETATM    5  C   UNK N   1      36.600   6.155  11.401  0.00  0.00     0.049 C 
HETATM    6  C   UNK N   1      38.846   9.308  10.494  0.00  0.00     0.004 C 
HETATM    7  C   UNK N   1      39.440   9.604   9.104  0.00  0.00     0.007 C 
HETATM    8  C   UNK N   1      38.250   7.913  10.512  0.00  0.00     0.040 C 
HETATM    9  C   UNK N   1      36.424  10.069  12.284  0.00  0.00     0.072 C 
HETATM   10  C   UNK N   1      35.687  14.712  12.471  0.00  0.00     0.144 C 
HETATM   11  C   UNK N   1      38.399  10.034   8.042  0.00  0.00     0.011 C 
HETATM   12  C   UNK N   1      38.610  12.591   8.617  0.00  0.00     0.081 C 
HETATM   13  C   UNK N   1      35.219  10.898  12.797  0.00  0.00     0.163 C 
HETATM   14  C   UNK N   1      36.910  14.905  11.516  0.00  0.00     0.142 C 
HETATM   15  C   UNK N   1      36.185   8.566  12.189  0.00  0.00     0.159 A 
HETATM   16  C   UNK N   1      35.534  13.390  13.196  0.00  0.00     0.261 C 
HETATM   17  C   UNK N   1      37.654  11.332   8.447  0.00  0.00     0.132 C 
HETATM   18  C   UNK N   1      38.179  13.808   9.475  0.00  0.00     0.143 C 
HETATM   19  C   UNK N   1      37.167  13.678  10.592  0.00  0.00     0.040 C 
HETATM   20  C   UNK N   1      37.066   7.597  11.447  0.00  0.00     0.084 A 
HETATM   21  O   UNK N   1      35.476  13.385  14.418  0.00  0.00    -0.265 OA
HETATM   22  O   UNK N   1      38.801  14.856   9.367  0.00  0.00    -0.297 OA
HETATM   23  O   UNK N   1      35.415  12.238  12.468  0.00  0.00    -0.311 OA
HETATM   24  O   UNK N   1      37.301   7.934  12.789  0.00  0.00    -0.369 OA
ENDROOT
BRANCH  13  25
HETATM   25  C   UNK N   1      34.852  10.691  14.254  0.00  0.00    -0.052 C 
HETATM   26  C   UNK N   1      33.404  10.826  14.623  0.00  0.00     0.046 C 
HETATM   27  C   UNK N   1      35.776  10.389  15.195  0.00  0.00     0.035 C 
BRANCH  27  28
HETATM   28  C   UNK N   1      35.439  10.321  16.634  0.00  0.00     0.039 A 
HETATM   29  C   UNK N   1      35.139   9.115  17.294  0.00  0.00     0.081 A 
HETATM   30  S   UNK N   1      34.933   9.549  18.885  0.00  0.00    -0.087 SA
HETATM   31  C   UNK N   1      35.256  11.155  18.736  0.00  0.00     0.047 A 
HETATM   32  C   UNK N   1      35.359  12.138  19.848  0.00  0.00     0.076 C 
HETATM   33  N   UNK N   1      35.508  11.442  17.441  0.00  0.00    -0.354 N 
ATOM     34  HN  UNK N   1      35.725  12.377  17.097  1.00  0.00     0.166 HD
ENDBRANCH  27  28
ENDBRANCH  13  25
BRANCH  14  35
HETATM   35  O   UNK N   1      36.649  16.037  10.741  0.00  0.00    -0.394 OA
HETATM   36  H   UNK N   1      37.250  16.420  10.083  0.00  0.00     0.210 HD
ENDBRANCH  14  35
BRANCH  17  37
HETATM   37  O   UNK N   1      36.957  10.997   9.599  0.00  0.00    -0.394 OA
HETATM   38  H   UNK N   1      37.335  10.376  10.241  0.00  0.00     0.210 HD
ENDBRANCH  17  37
TORSDOF 4
ENDMDL
MODEL 9
REMARK VINA RESULT:      -6.8      4.100      9.023
REMARK  4 active torsions:
REMARK  status: ('A' for Active; 'I' for Inactive)
REMARK    1  A    between atoms: C_19  and  C_11 
REMARK    2  A    between atoms: C_20  and  C_16 
REMARK    3  A    between atoms: C_21  and  O_30 
REMARK    4  A    between atoms: C_24  and  O_32 
ROOT
HETATM    1  C   UNK N   1      39.505   9.870   6.480  0.00  0.00     0.012 C 
HETATM    2  C   UNK N   1      39.396  10.317   9.436  0.00  0.00     0.020 C 
HETATM    3  C   UNK N   1      35.696  12.786   9.257  0.00  0.00     0.026 C 
HETATM    4  C   UNK N   1      37.866  14.187   9.615  0.00  0.00     0.026 C 
HETATM    5  C   UNK N   1      35.364  13.498   2.733  0.00  0.00     0.049 C 
HETATM    6  C   UNK N   1      35.895  11.274   5.985  0.00  0.00     0.004 C 
HETATM    7  C   UNK N   1      37.051  10.279   6.201  0.00  0.00     0.007 C 
HETATM    8  C   UNK N   1      35.895  11.758   4.548  0.00  0.00     0.040 C 
HETATM    9  C   UNK N   1      35.071  14.188   6.678  0.00  0.00     0.072 C 
HETATM   10  C   UNK N   1      35.701  15.224  11.225  0.00  0.00     0.144 C 
HETATM   11  C   UNK N   1      38.432  10.942   6.422  0.00  0.00     0.011 C 
HETATM   12  C   UNK N   1      38.140  11.084   9.031  0.00  0.00     0.081 C 
HETATM   13  C   UNK N   1      35.073  15.542   7.433  0.00  0.00     0.163 C 
HETATM   14  C   UNK N   1      36.237  13.771  11.441  0.00  0.00     0.142 C 
HETATM   15  C   UNK N   1      35.052  14.292   5.157  0.00  0.00     0.159 A 
HETATM   16  C   UNK N   1      34.905  15.525   9.971  0.00  0.00     0.261 C 
HETATM   17  C   UNK N   1      38.448  11.855   7.676  0.00  0.00     0.132 C 
HETATM   18  C   UNK N   1      37.620  11.844  10.279  0.00  0.00     0.143 C 
HETATM   19  C   UNK N   1      36.873  13.154  10.160  0.00  0.00     0.040 C 
HETATM   20  C   UNK N   1      35.351  13.161   4.211  0.00  0.00     0.084 A 
HETATM   21  O   UNK N   1      33.773  15.977  10.079  0.00  0.00    -0.265 OA
HETATM   22  O   UNK N   1      37.654  11.284  11.366  0.00  0.00    -0.297 OA
HETATM   23  O   UNK N   1      35.485  15.331   8.747  0.00  0.00    -0.311 OA
HETATM   24  O   UNK N   1      34.056  13.396   4.698  0.00  0.00    -0.369 OA
ENDROOT
BRANCH  13  25
HETATM   25  C   UNK N   1      33.793  16.350   7.334  0.00  0.00    -0.052 C 
HETATM   26  C   UNK N   1      33.924  17.844   7.316  0.00  0.00     0.046 C 
HETATM   27  C   UNK N   1      32.575  15.765   7.256  0.00  0.00     0.035 C 
BRANCH  27  28
HETATM   28  C   UNK N   1      31.323  16.552   7.296  0.00  0.00     0.039 A 
HETATM   29  C   UNK N   1      30.468  16.688   6.187  0.00  0.00     0.081 A 
HETATM   30  S   UNK N   1      29.176  17.563   6.758  0.00  0.00    -0.087 SA
HETATM   31  C   UNK N   1      29.661  17.707   8.324  0.00  0.00     0.047 A 
HETATM   32  C   UNK N   1      28.876  18.304   9.438  0.00  0.00     0.076 C 
HETATM   33  N   UNK N   1      30.864  17.113   8.475  0.00  0.00    -0.354 N 
ATOM     34  HN  UNK N   1      31.376  17.080   9.356  1.00  0.00     0.166 HD
ENDBRANCH  27  28
ENDBRANCH  13  25
BRANCH  14  35
HETATM   35  O   UNK N   1      37.188  13.834  12.462  0.00  0.00    -0.394 OA
HETATM   36  H   UNK N   1      37.844  13.149  12.663  0.00  0.00     0.210 HD
ENDBRANCH  14  35
BRANCH  17  37
HETATM   37  O   UNK N   1      37.543  12.867   7.388  0.00  0.00    -0.394 OA
HETATM   38  H   UNK N   1      37.290  13.510   8.068  0.00  0.00     0.210 HD
ENDBRANCH  17  37
TORSDOF 4
ENDMDL
