REMARK  15 active torsions:
REMARK  status: ('A' for Active; 'I' for Inactive)
REMARK    1  A    between atoms: C_1  and  C_3 
REMARK    2  A    between atoms: C_2  and  C_4 
REMARK    3  A    between atoms: C_4  and  C_5 
REMARK    4  A    between atoms: C_6  and  C_7 
REMARK    5  A    between atoms: C_7  and  C_8 
REMARK    6  A    between atoms: C_9  and  C_10 
REMARK    7  A    between atoms: C_10  and  C_11 
REMARK    8  A    between atoms: C_12  and  C_13 
REMARK    9  A    between atoms: C_13  and  C_14 
REMARK   10  A    between atoms: C_15  and  C_16 
REMARK   11  A    between atoms: C_16  and  C_17 
REMARK   12  A    between atoms: C_18  and  C_19 
REMARK   13  A    between atoms: C_19  and  C_20 
REMARK   14  A    between atoms: C_20  and  C_21 
REMARK   15  A    between atoms: C_21  and  O_22 
ROOT
HETATM    1  C   UNK N   1      18.336 -14.638   0.484  0.00  0.00    -0.027 C 
HETATM    2  C   UNK N   1      17.810 -15.644  -0.208  0.00  0.00    -0.027 C 
ENDROOT
BRANCH   2   3
HETATM    3  C   UNK N   1      16.908 -16.635   0.448  0.00  0.00     0.053 C 
BRANCH   3   4
HETATM    4  C   UNK N   1      15.592 -16.591  -0.243  0.00  0.00    -0.027 C 
HETATM    5  C   UNK N   1      14.476 -16.358   0.438  0.00  0.00    -0.027 C 
BRANCH   5   6
HETATM    6  C   UNK N   1      13.199 -16.190  -0.314  0.00  0.00     0.053 C 
BRANCH   6   7
HETATM    7  C   UNK N   1      12.552 -14.861  -0.025  0.00  0.00    -0.027 C 
HETATM    8  C   UNK N   1      13.160 -13.670  -0.161  0.00  0.00    -0.030 C 
BRANCH   8   9
HETATM    9  C   UNK N   1      14.601 -13.518  -0.553  0.00  0.00     0.037 C 
BRANCH   9  10
HETATM   10  C   UNK N   1      15.010 -12.057  -0.722  0.00  0.00     0.113 C 
BRANCH  10  11
HETATM   11  C   UNK N   1      14.876 -11.265   0.542  0.00  0.00     0.139 C 
HETATM   12  O   UNK N   1      13.772 -11.031   1.006  0.00  0.00    -0.650 OA
BRANCH  11  13
HETATM   13  O   UNK N   1      15.972 -10.777   1.149  0.00  0.00    -0.776 OA
HETATM   14  H   UNK N   1      16.648 -11.268   1.573  0.00  0.00     0.167 HD
ENDBRANCH  11  13
ENDBRANCH  10  11
ENDBRANCH   9  10
ENDBRANCH   8   9
ENDBRANCH   6   7
ENDBRANCH   5   6
ENDBRANCH   3   4
ENDBRANCH   2   3
BRANCH   1  15
HETATM   15  C   UNK N   1      19.237 -13.666  -0.201  0.00  0.00     0.053 C 
BRANCH  15  16
HETATM   16  C   UNK N   1      18.896 -12.267   0.185  0.00  0.00    -0.027 C 
HETATM   17  C   UNK N   1      19.619 -11.259  -0.303  0.00  0.00    -0.027 C 
BRANCH  17  18
HETATM   18  C   UNK N   1      19.351  -9.844   0.099  0.00  0.00     0.053 C 
BRANCH  18  19
HETATM   19  C   UNK N   1      18.070  -9.338  -0.475  0.00  0.00    -0.027 C 
HETATM   20  C   UNK N   1      17.651  -8.117  -0.155  0.00  0.00    -0.027 C 
BRANCH  20  21
HETATM   21  C   UNK N   1      16.374  -7.580  -0.704  0.00  0.00     0.053 C 
BRANCH  21  22
HETATM   22  C   UNK N   1      15.451  -7.238   0.424  0.00  0.00    -0.027 C 
HETATM   23  C   UNK N   1      14.155  -7.571   0.423  0.00  0.00    -0.031 C 
BRANCH  23  24
HETATM   24  C   UNK N   1      13.513  -8.289  -0.720  0.00  0.00     0.022 C 
HETATM   25  C   UNK N   1      12.045  -8.507  -0.416  0.00  0.00     0.009 C 
ENDBRANCH  23  24
ENDBRANCH  21  22
ENDBRANCH  20  21
ENDBRANCH  18  19
ENDBRANCH  17  18
ENDBRANCH  15  16
ENDBRANCH   1  15
TORSDOF 15
