MODEL 1
REMARK VINA RESULT:      -5.1      0.000      0.000
REMARK  6 active torsions:
REMARK  status: ('A' for Active; 'I' for Inactive)
REMARK    1  A    between atoms: C_2  and  O_1 
REMARK    2  A    between atoms: C_3  and  O_4 
REMARK    3  A    between atoms: C_5  and  O_6 
REMARK    4  A    between atoms: C_7  and  O_8 
REMARK    5  A    between atoms: C_9  and  O_10 
REMARK    6  A    between atoms: C_11  and  O_12 
ROOT
HETATM    1  C   UNK N   1      20.336  18.081   1.019  0.00  0.00     0.180 A 
HETATM    2  C   UNK N   1      20.159  17.188   2.240  0.00  0.00     0.180 A 
HETATM    3  C   UNK N   1      20.390  17.754   3.636  0.00  0.00     0.180 A 
HETATM    4  C   UNK N   1      20.799  19.210   3.810  0.00  0.00     0.180 A 
HETATM    5  C   UNK N   1      20.977  20.103   2.589  0.00  0.00     0.180 A 
HETATM    6  C   UNK N   1      20.745  19.538   1.194  0.00  0.00     0.180 A 
ENDROOT
BRANCH   1   7
HETATM    7  O   UNK N   1      20.125  17.566  -0.260  0.00  0.00    -0.390 OA
HETATM    8  H   UNK N   1      20.846  17.118  -0.728  0.00  0.00     0.210 HD
ENDBRANCH   1   7
BRANCH   2   9
HETATM    9  O   UNK N   1      19.784  15.854   2.082  0.00  0.00    -0.390 OA
HETATM   10  H   UNK N   1      19.426  15.359   2.836  0.00  0.00     0.210 HD
ENDBRANCH   2   9
BRANCH   6  11
HETATM   11  O   UNK N   1      20.909  20.357   0.075  0.00  0.00    -0.390 OA
HETATM   12  H   UNK N   1      20.720  21.306   0.138  0.00  0.00     0.210 HD
ENDBRANCH   6  11
BRANCH   3  13
HETATM   13  O   UNK N   1      20.228  16.937   4.756  0.00  0.00    -0.390 OA
HETATM   14  H   UNK N   1      21.002  16.534   5.180  0.00  0.00     0.210 HD
ENDBRANCH   3  13
BRANCH   5  15
HETATM   15  O   UNK N   1      21.351  21.436   2.748  0.00  0.00    -0.390 OA
HETATM   16  H   UNK N   1      22.232  21.655   3.089  0.00  0.00     0.210 HD
ENDBRANCH   5  15
BRANCH   4  17
HETATM   17  O   UNK N   1      21.011  19.726   5.088  0.00  0.00    -0.390 OA
HETATM   18  H   UNK N   1      20.884  19.161   5.866  0.00  0.00     0.210 HD
ENDBRANCH   4  17
TORSDOF 6
ENDMDL
MODEL 2
REMARK VINA RESULT:      -5.1      0.038      3.292
REMARK  6 active torsions:
REMARK  status: ('A' for Active; 'I' for Inactive)
REMARK    1  A    between atoms: C_2  and  O_1 
REMARK    2  A    between atoms: C_3  and  O_4 
REMARK    3  A    between atoms: C_5  and  O_6 
REMARK    4  A    between atoms: C_7  and  O_8 
REMARK    5  A    between atoms: C_9  and  O_10 
REMARK    6  A    between atoms: C_11  and  O_12 
ROOT
HETATM    1  C   UNK N   1      20.727  19.516   1.169  0.00  0.00     0.180 A 
HETATM    2  C   UNK N   1      20.957  20.094   2.559  0.00  0.00     0.180 A 
HETATM    3  C   UNK N   1      20.774  19.214   3.789  0.00  0.00     0.180 A 
HETATM    4  C   UNK N   1      20.362  17.757   3.630  0.00  0.00     0.180 A 
HETATM    5  C   UNK N   1      20.131  17.179   2.240  0.00  0.00     0.180 A 
HETATM    6  C   UNK N   1      20.314  18.057   1.010  0.00  0.00     0.180 A 
ENDROOT
BRANCH   1   7
HETATM    7  O   UNK N   1      20.894  20.319   0.041  0.00  0.00    -0.390 OA
HETATM    8  H   UNK N   1      21.785  20.534  -0.274  0.00  0.00     0.210 HD
ENDBRANCH   1   7
BRANCH   2   9
HETATM    9  O   UNK N   1      21.335  21.429   2.706  0.00  0.00    -0.390 OA
HETATM   10  H   UNK N   1      21.273  21.856   3.575  0.00  0.00     0.210 HD
ENDBRANCH   2   9
BRANCH   6  11
HETATM   11  O   UNK N   1      20.103  17.526  -0.263  0.00  0.00    -0.390 OA
HETATM   12  H   UNK N   1      20.817  17.542  -0.919  0.00  0.00     0.210 HD
ENDBRANCH   6  11
BRANCH   3  13
HETATM   13  O   UNK N   1      20.985  19.744   5.064  0.00  0.00    -0.390 OA
HETATM   14  H   UNK N   1      20.359  19.552   5.779  0.00  0.00     0.210 HD
ENDBRANCH   3  13
BRANCH   5  15
HETATM   15  O   UNK N   1      19.754  15.845   2.094  0.00  0.00    -0.390 OA
HETATM   16  H   UNK N   1      18.962  15.619   1.581  0.00  0.00     0.210 HD
ENDBRANCH   5  15
BRANCH   4  17
HETATM   17  O   UNK N   1      20.195  16.954   4.757  0.00  0.00    -0.390 OA
HETATM   18  H   UNK N   1      19.899  16.036   4.659  0.00  0.00     0.210 HD
ENDBRANCH   4  17
TORSDOF 6
ENDMDL
MODEL 3
REMARK VINA RESULT:      -5.1      0.077      2.327
REMARK  6 active torsions:
REMARK  status: ('A' for Active; 'I' for Inactive)
REMARK    1  A    between atoms: C_2  and  O_1 
REMARK    2  A    between atoms: C_3  and  O_4 
REMARK    3  A    between atoms: C_5  and  O_6 
REMARK    4  A    between atoms: C_7  and  O_8 
REMARK    5  A    between atoms: C_9  and  O_10 
REMARK    6  A    between atoms: C_11  and  O_12 
ROOT
HETATM    1  C   UNK N   1      20.700  19.598   1.154  0.00  0.00     0.180 A 
HETATM    2  C   UNK N   1      20.315  18.135   0.979  0.00  0.00     0.180 A 
HETATM    3  C   UNK N   1      20.165  17.237   2.201  0.00  0.00     0.180 A 
HETATM    4  C   UNK N   1      20.399  17.801   3.596  0.00  0.00     0.180 A 
HETATM    5  C   UNK N   1      20.784  19.264   3.770  0.00  0.00     0.180 A 
HETATM    6  C   UNK N   1      20.934  20.162   2.550  0.00  0.00     0.180 A 
ENDROOT
BRANCH   1   7
HETATM    7  O   UNK N   1      20.838  20.423   0.037  0.00  0.00    -0.390 OA
HETATM    8  H   UNK N   1      20.325  21.242  -0.027  0.00  0.00     0.210 HD
ENDBRANCH   1   7
BRANCH   2   9
HETATM    9  O   UNK N   1      20.100  17.616  -0.297  0.00  0.00    -0.390 OA
HETATM   10  H   UNK N   1      19.488  16.874  -0.422  0.00  0.00     0.210 HD
ENDBRANCH   2   9
BRANCH   6  11
HETATM   11  O   UNK N   1      21.287  21.503   2.710  0.00  0.00    -0.390 OA
HETATM   12  H   UNK N   1      20.604  22.191   2.679  0.00  0.00     0.210 HD
ENDBRANCH   6  11
BRANCH   3  13
HETATM   13  O   UNK N   1      19.812  15.896   2.042  0.00  0.00    -0.390 OA
HETATM   14  H   UNK N   1      19.554  15.367   2.813  0.00  0.00     0.210 HD
ENDBRANCH   3  13
BRANCH   5  15
HETATM   15  O   UNK N   1      20.999  19.782   5.047  0.00  0.00    -0.390 OA
HETATM   16  H   UNK N   1      20.320  20.333   5.467  0.00  0.00     0.210 HD
ENDBRANCH   5  15
BRANCH   4  17
HETATM   17  O   UNK N   1      20.261  16.978   4.713  0.00  0.00    -0.390 OA
HETATM   18  H   UNK N   1      20.041  16.041   4.600  0.00  0.00     0.210 HD
ENDBRANCH   4  17
TORSDOF 6
ENDMDL
MODEL 4
REMARK VINA RESULT:      -5.0      0.156      4.032
REMARK  6 active torsions:
REMARK  status: ('A' for Active; 'I' for Inactive)
REMARK    1  A    between atoms: C_2  and  O_1 
REMARK    2  A    between atoms: C_3  and  O_4 
REMARK    3  A    between atoms: C_5  and  O_6 
REMARK    4  A    between atoms: C_7  and  O_8 
REMARK    5  A    between atoms: C_9  and  O_10 
REMARK    6  A    between atoms: C_11  and  O_12 
ROOT
HETATM    1  C   UNK N   1      20.549  17.747   3.590  0.00  0.00     0.180 A 
HETATM    2  C   UNK N   1      20.847  19.229   3.771  0.00  0.00     0.180 A 
HETATM    3  C   UNK N   1      20.914  20.145   2.555  0.00  0.00     0.180 A 
HETATM    4  C   UNK N   1      20.683  19.580   1.160  0.00  0.00     0.180 A 
HETATM    5  C   UNK N   1      20.385  18.097   0.980  0.00  0.00     0.180 A 
HETATM    6  C   UNK N   1      20.319  17.181   2.194  0.00  0.00     0.180 A 
ENDROOT
BRANCH   1   7
HETATM    7  O   UNK N   1      20.488  16.906   4.702  0.00  0.00    -0.390 OA
HETATM    8  H   UNK N   1      19.760  16.993   5.335  0.00  0.00     0.210 HD
ENDBRANCH   1   7
BRANCH   2   9
HETATM    9  O   UNK N   1      21.059  19.750   5.047  0.00  0.00    -0.390 OA
HETATM   10  H   UNK N   1      20.545  19.415   5.798  0.00  0.00     0.210 HD
ENDBRANCH   2   9
BRANCH   6  11
HETATM   11  O   UNK N   1      20.045  15.822   2.028  0.00  0.00    -0.390 OA
HETATM   12  H   UNK N   1      20.710  15.240   1.627  0.00  0.00     0.210 HD
ENDBRANCH   6  11
BRANCH   3  13
HETATM   13  O   UNK N   1      21.187  21.505   2.719  0.00  0.00    -0.390 OA
HETATM   14  H   UNK N   1      20.664  22.033   3.342  0.00  0.00     0.210 HD
ENDBRANCH   3  13
BRANCH   5  15
HETATM   15  O   UNK N   1      20.174  17.578  -0.297  0.00  0.00    -0.390 OA
HETATM   16  H   UNK N   1      19.403  17.015  -0.470  0.00  0.00     0.210 HD
ENDBRANCH   5  15
BRANCH   4  17
HETATM   17  O   UNK N   1      20.745  20.419   0.049  0.00  0.00    -0.390 OA
HETATM   18  H   UNK N   1      21.365  21.164   0.038  0.00  0.00     0.210 HD
ENDBRANCH   4  17
TORSDOF 6
ENDMDL
MODEL 5
REMARK VINA RESULT:      -5.0      0.157      3.290
REMARK  6 active torsions:
REMARK  status: ('A' for Active; 'I' for Inactive)
REMARK    1  A    between atoms: C_2  and  O_1 
REMARK    2  A    between atoms: C_3  and  O_4 
REMARK    3  A    between atoms: C_5  and  O_6 
REMARK    4  A    between atoms: C_7  and  O_8 
REMARK    5  A    between atoms: C_9  and  O_10 
REMARK    6  A    between atoms: C_11  and  O_12 
ROOT
HETATM    1  C   UNK N   1      20.387  18.097   0.981  0.00  0.00     0.180 A 
HETATM    2  C   UNK N   1      20.684  19.580   1.160  0.00  0.00     0.180 A 
HETATM    3  C   UNK N   1      20.915  20.146   2.556  0.00  0.00     0.180 A 
HETATM    4  C   UNK N   1      20.848  19.231   3.771  0.00  0.00     0.180 A 
HETATM    5  C   UNK N   1      20.551  17.748   3.591  0.00  0.00     0.180 A 
HETATM    6  C   UNK N   1      20.321  17.181   2.197  0.00  0.00     0.180 A 
ENDROOT
BRANCH   1   7
HETATM    7  O   UNK N   1      20.175  17.576  -0.296  0.00  0.00    -0.390 OA
HETATM    8  H   UNK N   1      20.890  17.109  -0.754  0.00  0.00     0.210 HD
ENDBRANCH   1   7
BRANCH   2   9
HETATM    9  O   UNK N   1      20.745  20.420   0.049  0.00  0.00    -0.390 OA
HETATM   10  H   UNK N   1      19.987  20.983  -0.175  0.00  0.00     0.210 HD
ENDBRANCH   2   9
BRANCH   6  11
HETATM   11  O   UNK N   1      20.048  15.822   2.033  0.00  0.00    -0.390 OA
HETATM   12  H   UNK N   1      20.249  15.198   2.748  0.00  0.00     0.210 HD
ENDBRANCH   6  11
BRANCH   3  13
HETATM   13  O   UNK N   1      21.187  21.505   2.722  0.00  0.00    -0.390 OA
HETATM   14  H   UNK N   1      20.460  22.147   2.745  0.00  0.00     0.210 HD
ENDBRANCH   3  13
BRANCH   5  15
HETATM   15  O   UNK N   1      20.491  16.908   4.703  0.00  0.00    -0.390 OA
HETATM   16  H   UNK N   1      19.993  16.077   4.656  0.00  0.00     0.210 HD
ENDBRANCH   5  15
BRANCH   4  17
HETATM   17  O   UNK N   1      21.060  19.750   5.047  0.00  0.00    -0.390 OA
HETATM   18  H   UNK N   1      20.895  20.690   5.222  0.00  0.00     0.210 HD
ENDBRANCH   4  17
TORSDOF 6
ENDMDL
MODEL 6
REMARK VINA RESULT:      -5.0     14.042     14.721
REMARK  6 active torsions:
REMARK  status: ('A' for Active; 'I' for Inactive)
REMARK    1  A    between atoms: C_2  and  O_1 
REMARK    2  A    between atoms: C_3  and  O_4 
REMARK    3  A    between atoms: C_5  and  O_6 
REMARK    4  A    between atoms: C_7  and  O_8 
REMARK    5  A    between atoms: C_9  and  O_10 
REMARK    6  A    between atoms: C_11  and  O_12 
ROOT
HETATM    1  C   UNK N   1      33.158  15.883   7.149  0.00  0.00     0.180 A 
HETATM    2  C   UNK N   1      33.016  15.071   8.430  0.00  0.00     0.180 A 
HETATM    3  C   UNK N   1      33.653  15.568   9.721  0.00  0.00     0.180 A 
HETATM    4  C   UNK N   1      34.432  16.877   9.732  0.00  0.00     0.180 A 
HETATM    5  C   UNK N   1      34.574  17.689   8.452  0.00  0.00     0.180 A 
HETATM    6  C   UNK N   1      33.937  17.192   7.161  0.00  0.00     0.180 A 
ENDROOT
BRANCH   1   7
HETATM    7  O   UNK N   1      32.576  15.429   5.965  0.00  0.00    -0.390 OA
HETATM    8  H   UNK N   1      31.742  15.814   5.657  0.00  0.00     0.210 HD
ENDBRANCH   1   7
BRANCH   2   9
HETATM    9  O   UNK N   1      32.303  13.872   8.422  0.00  0.00    -0.390 OA
HETATM   10  H   UNK N   1      31.385  13.852   8.733  0.00  0.00     0.210 HD
ENDBRANCH   2   9
BRANCH   6  11
HETATM   11  O   UNK N   1      34.068  17.937   5.987  0.00  0.00    -0.390 OA
HETATM   12  H   UNK N   1      33.615  18.790   5.902  0.00  0.00     0.210 HD
ENDBRANCH   6  11
BRANCH   3  13
HETATM   13  O   UNK N   1      33.523  14.825  10.895  0.00  0.00    -0.390 OA
HETATM   14  H   UNK N   1      34.186  14.153  11.120  0.00  0.00     0.210 HD
ENDBRANCH   3  13
BRANCH   5  15
HETATM   15  O   UNK N   1      35.287  18.887   8.461  0.00  0.00    -0.390 OA
HETATM   16  H   UNK N   1      36.256  18.875   8.424  0.00  0.00     0.210 HD
ENDBRANCH   5  15
BRANCH   4  17
HETATM   17  O   UNK N   1      35.014  17.331  10.915  0.00  0.00    -0.390 OA
HETATM   18  H   UNK N   1      35.947  17.595  10.926  0.00  0.00     0.210 HD
ENDBRANCH   4  17
TORSDOF 6
ENDMDL
MODEL 7
REMARK VINA RESULT:      -5.0     14.041     15.069
REMARK  6 active torsions:
REMARK  status: ('A' for Active; 'I' for Inactive)
REMARK    1  A    between atoms: C_2  and  O_1 
REMARK    2  A    between atoms: C_3  and  O_4 
REMARK    3  A    between atoms: C_5  and  O_6 
REMARK    4  A    between atoms: C_7  and  O_8 
REMARK    5  A    between atoms: C_9  and  O_10 
REMARK    6  A    between atoms: C_11  and  O_12 
ROOT
HETATM    1  C   UNK N   1      34.435  16.880   9.731  0.00  0.00     0.180 A 
HETATM    2  C   UNK N   1      33.654  15.573   9.717  0.00  0.00     0.180 A 
HETATM    3  C   UNK N   1      33.016  15.081   8.423  0.00  0.00     0.180 A 
HETATM    4  C   UNK N   1      33.160  15.895   7.145  0.00  0.00     0.180 A 
HETATM    5  C   UNK N   1      33.941  17.203   7.158  0.00  0.00     0.180 A 
HETATM    6  C   UNK N   1      34.578  17.695   8.451  0.00  0.00     0.180 A 
ENDROOT
BRANCH   1   7
HETATM    7  O   UNK N   1      35.019  17.333  10.914  0.00  0.00    -0.390 OA
HETATM    8  H   UNK N   1      35.483  18.183  10.930  0.00  0.00     0.210 HD
ENDBRANCH   1   7
BRANCH   2   9
HETATM    9  O   UNK N   1      33.521  14.825  10.887  0.00  0.00    -0.390 OA
HETATM   10  H   UNK N   1      34.117  14.078  11.054  0.00  0.00     0.210 HD
ENDBRANCH   2   9
BRANCH   6  11
HETATM   11  O   UNK N   1      35.293  18.894   8.463  0.00  0.00    -0.390 OA
HETATM   12  H   UNK N   1      34.863  19.717   8.184  0.00  0.00     0.210 HD
ENDBRANCH   6  11
BRANCH   3  13
HETATM   13  O   UNK N   1      32.301  13.882   8.409  0.00  0.00    -0.390 OA
HETATM   14  H   UNK N   1      31.380  13.870   8.103  0.00  0.00     0.210 HD
ENDBRANCH   3  13
BRANCH   5  15
HETATM   15  O   UNK N   1      34.073  17.949   5.988  0.00  0.00    -0.390 OA
HETATM   16  H   UNK N   1      34.306  17.509   5.156  0.00  0.00     0.210 HD
ENDBRANCH   5  15
BRANCH   4  17
HETATM   17  O   UNK N   1      32.576  15.443   5.962  0.00  0.00    -0.390 OA
HETATM   18  H   UNK N   1      32.822  15.846   5.115  0.00  0.00     0.210 HD
ENDBRANCH   4  17
TORSDOF 6
ENDMDL
MODEL 8
REMARK VINA RESULT:      -5.0     14.038     15.062
REMARK  6 active torsions:
REMARK  status: ('A' for Active; 'I' for Inactive)
REMARK    1  A    between atoms: C_2  and  O_1 
REMARK    2  A    between atoms: C_3  and  O_4 
REMARK    3  A    between atoms: C_5  and  O_6 
REMARK    4  A    between atoms: C_7  and  O_8 
REMARK    5  A    between atoms: C_9  and  O_10 
REMARK    6  A    between atoms: C_11  and  O_12 
ROOT
HETATM    1  C   UNK N   1      34.576  17.699   8.453  0.00  0.00     0.180 A 
HETATM    2  C   UNK N   1      34.433  16.883   9.731  0.00  0.00     0.180 A 
HETATM    3  C   UNK N   1      33.650  15.576   9.716  0.00  0.00     0.180 A 
HETATM    4  C   UNK N   1      33.012  15.084   8.423  0.00  0.00     0.180 A 
HETATM    5  C   UNK N   1      33.156  15.900   7.145  0.00  0.00     0.180 A 
HETATM    6  C   UNK N   1      33.938  17.207   7.160  0.00  0.00     0.180 A 
ENDROOT
BRANCH   1   7
HETATM    7  O   UNK N   1      35.292  18.896   8.465  0.00  0.00    -0.390 OA
HETATM    8  H   UNK N   1      36.240  18.892   8.664  0.00  0.00     0.210 HD
ENDBRANCH   1   7
BRANCH   2   9
HETATM    9  O   UNK N   1      35.016  17.331  10.916  0.00  0.00    -0.390 OA
HETATM   10  H   UNK N   1      34.532  17.257  11.753  0.00  0.00     0.210 HD
ENDBRANCH   2   9
BRANCH   6  11
HETATM   11  O   UNK N   1      34.069  17.954   5.989  0.00  0.00    -0.390 OA
HETATM   12  H   UNK N   1      34.936  18.305   5.732  0.00  0.00     0.210 HD
ENDBRANCH   6  11
BRANCH   3  13
HETATM   13  O   UNK N   1      33.518  14.827  10.886  0.00  0.00    -0.390 OA
HETATM   14  H   UNK N   1      34.142  14.109  11.077  0.00  0.00     0.210 HD
ENDBRANCH   3  13
BRANCH   5  15
HETATM   15  O   UNK N   1      32.572  15.451   5.961  0.00  0.00    -0.390 OA
HETATM   16  H   UNK N   1      31.836  15.945   5.566  0.00  0.00     0.210 HD
ENDBRANCH   5  15
BRANCH   4  17
HETATM   17  O   UNK N   1      32.297  13.888   8.411  0.00  0.00    -0.390 OA
HETATM   18  H   UNK N   1      31.495  13.797   8.948  0.00  0.00     0.210 HD
ENDBRANCH   4  17
TORSDOF 6
ENDMDL
MODEL 9
REMARK VINA RESULT:      -5.0     14.039     15.418
REMARK  6 active torsions:
REMARK  status: ('A' for Active; 'I' for Inactive)
REMARK    1  A    between atoms: C_2  and  O_1 
REMARK    2  A    between atoms: C_3  and  O_4 
REMARK    3  A    between atoms: C_5  and  O_6 
REMARK    4  A    between atoms: C_7  and  O_8 
REMARK    5  A    between atoms: C_9  and  O_10 
REMARK    6  A    between atoms: C_11  and  O_12 
ROOT
HETATM    1  C   UNK N   1      34.433  16.882   9.730  0.00  0.00     0.180 A 
HETATM    2  C   UNK N   1      34.577  17.697   8.452  0.00  0.00     0.180 A 
HETATM    3  C   UNK N   1      33.939  17.203   7.159  0.00  0.00     0.180 A 
HETATM    4  C   UNK N   1      33.158  15.896   7.145  0.00  0.00     0.180 A 
HETATM    5  C   UNK N   1      33.014  15.081   8.423  0.00  0.00     0.180 A 
HETATM    6  C   UNK N   1      33.652  15.574   9.715  0.00  0.00     0.180 A 
ENDROOT
BRANCH   1   7
HETATM    7  O   UNK N   1      35.017  17.331  10.915  0.00  0.00    -0.390 OA
HETATM    8  H   UNK N   1      34.497  17.356  11.732  0.00  0.00     0.210 HD
ENDBRANCH   1   7
BRANCH   2   9
HETATM    9  O   UNK N   1      35.292  18.894   8.463  0.00  0.00    -0.390 OA
HETATM   10  H   UNK N   1      36.246  18.887   8.641  0.00  0.00     0.210 HD
ENDBRANCH   2   9
BRANCH   6  11
HETATM   11  O   UNK N   1      33.520  14.826  10.887  0.00  0.00    -0.390 OA
HETATM   12  H   UNK N   1      33.304  13.882  10.837  0.00  0.00     0.210 HD
ENDBRANCH   6  11
BRANCH   3  13
HETATM   13  O   UNK N   1      34.070  17.949   5.986  0.00  0.00    -0.390 OA
HETATM   14  H   UNK N   1      34.810  17.779   5.382  0.00  0.00     0.210 HD
ENDBRANCH   3  13
BRANCH   5  15
HETATM   15  O   UNK N   1      32.299  13.884   8.411  0.00  0.00    -0.390 OA
HETATM   16  H   UNK N   1      31.847  13.582   9.214  0.00  0.00     0.210 HD
ENDBRANCH   5  15
BRANCH   4  17
HETATM   17  O   UNK N   1      32.575  15.446   5.961  0.00  0.00    -0.390 OA
HETATM   18  H   UNK N   1      32.759  14.550   5.639  0.00  0.00     0.210 HD
ENDBRANCH   4  17
TORSDOF 6
ENDMDL
