MODEL 1
REMARK VINA RESULT:      -4.2      0.000      0.000
REMARK  7 active torsions:
REMARK  status: ('A' for Active; 'I' for Inactive)
REMARK    1  A    between atoms: O_1  and  C_2 
REMARK    2  A    between atoms: C_2  and  C_3 
REMARK    3  A    between atoms: C_3  and  C_5 
REMARK    4  A    between atoms: C_5  and  O_6 
REMARK    5  A    between atoms: O_6  and  P_7 
REMARK    6  A    between atoms: P_7  and  O_8 
REMARK    7  A    between atoms: P_7  and  O_9 
ROOT
HETATM    1  O   UNK N   1      19.816  19.274   2.531  0.00  0.00    -0.290 OA
ENDROOT
BRANCH   1   2
HETATM    2  C   UNK N   1      19.907  17.994   3.096  0.00  0.00     0.261 C 
BRANCH   2   3
HETATM    3  C   UNK N   1      20.438  16.990   2.123  0.00  0.00     0.174 C 
HETATM    4  O   UNK N   1      21.355  16.241   2.438  0.00  0.00    -0.293 OA
BRANCH   3   5
HETATM    5  C   UNK N   1      19.811  16.900   0.766  0.00  0.00     0.244 C 
BRANCH   5   6
HETATM    6  O   UNK N   1      20.336  17.860  -0.101  0.00  0.00    -0.394 OA
HETATM    7  H   UNK N   1      19.788  18.265  -0.791  0.00  0.00     0.209 HD
ENDBRANCH   5   6
ENDBRANCH   3   5
ENDBRANCH   2   3
ENDBRANCH   1   2
BRANCH   1   8
HETATM    8  P   UNK N   1      21.396  19.982   2.722  0.00  0.00     0.391 P 
HETATM    9  O   UNK N   1      21.076  20.399   1.258  0.00  0.00    -0.632 OA
BRANCH   8  10
HETATM   10  O   UNK N   1      21.635  21.701   2.749  0.00  0.00    -0.307 OA
HETATM   11  H   UNK N   1      21.489  22.252   3.534  0.00  0.00     0.222 HD
ENDBRANCH   8  10
BRANCH   8  12
HETATM   12  O   UNK N   1      20.260  20.764   3.776  0.00  0.00    -0.307 OA
HETATM   13  H   UNK N   1      19.681  20.294   4.398  0.00  0.00     0.222 HD
ENDBRANCH   8  12
ENDBRANCH   1   8
TORSDOF 7
ENDMDL
MODEL 2
REMARK VINA RESULT:      -4.2     15.622     16.423
REMARK  7 active torsions:
REMARK  status: ('A' for Active; 'I' for Inactive)
REMARK    1  A    between atoms: O_1  and  C_2 
REMARK    2  A    between atoms: C_2  and  C_3 
REMARK    3  A    between atoms: C_3  and  C_5 
REMARK    4  A    between atoms: C_5  and  O_6 
REMARK    5  A    between atoms: O_6  and  P_7 
REMARK    6  A    between atoms: P_7  and  O_8 
REMARK    7  A    between atoms: P_7  and  O_9 
ROOT
HETATM    1  O   UNK N   1      34.223  16.374   9.698  0.00  0.00    -0.290 OA
ENDROOT
BRANCH   1   2
HETATM    2  C   UNK N   1      34.769  15.960   8.474  0.00  0.00     0.261 C 
BRANCH   2   3
HETATM    3  C   UNK N   1      34.478  16.931   7.375  0.00  0.00     0.174 C 
HETATM    4  O   UNK N   1      34.647  16.617   6.204  0.00  0.00    -0.293 OA
BRANCH   3   5
HETATM    5  C   UNK N   1      33.951  18.287   7.733  0.00  0.00     0.244 C 
BRANCH   5   6
HETATM    6  O   UNK N   1      34.937  19.073   8.334  0.00  0.00    -0.394 OA
HETATM    7  H   UNK N   1      35.306  18.837   9.200  0.00  0.00     0.209 HD
ENDBRANCH   5   6
ENDBRANCH   3   5
ENDBRANCH   2   3
ENDBRANCH   1   2
BRANCH   1   8
HETATM    8  P   UNK N   1      35.312  15.778  10.920  0.00  0.00     0.391 P 
HETATM    9  O   UNK N   1      35.743  14.903   9.709  0.00  0.00    -0.632 OA
BRANCH   8  10
HETATM   10  O   UNK N   1      37.024  16.051  10.836  0.00  0.00    -0.307 OA
HETATM   11  H   UNK N   1      37.432  16.745  10.295  0.00  0.00     0.222 HD
ENDBRANCH   8  10
BRANCH   8  12
HETATM   12  O   UNK N   1      35.673  17.436  10.555  0.00  0.00    -0.307 OA
HETATM   13  H   UNK N   1      35.354  17.902   9.766  0.00  0.00     0.222 HD
ENDBRANCH   8  12
ENDBRANCH   1   8
TORSDOF 7
ENDMDL
MODEL 3
REMARK VINA RESULT:      -4.1     15.312     16.244
REMARK  7 active torsions:
REMARK  status: ('A' for Active; 'I' for Inactive)
REMARK    1  A    between atoms: O_1  and  C_2 
REMARK    2  A    between atoms: C_2  and  C_3 
REMARK    3  A    between atoms: C_3  and  C_5 
REMARK    4  A    between atoms: C_5  and  O_6 
REMARK    5  A    between atoms: O_6  and  P_7 
REMARK    6  A    between atoms: P_7  and  O_8 
REMARK    7  A    between atoms: P_7  and  O_9 
ROOT
HETATM    1  O   UNK N   1      34.476  16.501  10.391  0.00  0.00    -0.290 OA
ENDROOT
BRANCH   1   2
HETATM    2  C   UNK N   1      34.949  16.763   9.097  0.00  0.00     0.261 C 
BRANCH   2   3
HETATM    3  C   UNK N   1      34.341  18.002   8.520  0.00  0.00     0.174 C 
HETATM    4  O   UNK N   1      35.020  19.005   8.343  0.00  0.00    -0.293 OA
BRANCH   3   5
HETATM    5  C   UNK N   1      32.892  17.984   8.141  0.00  0.00     0.244 C 
BRANCH   5   6
HETATM    6  O   UNK N   1      32.136  17.248   9.055  0.00  0.00    -0.394 OA
HETATM    7  H   UNK N   1      31.456  16.624   8.756  0.00  0.00     0.209 HD
ENDBRANCH   5   6
ENDBRANCH   3   5
ENDBRANCH   2   3
ENDBRANCH   1   2
BRANCH   1   8
HETATM    8  P   UNK N   1      34.817  14.817  10.681  0.00  0.00     0.391 P 
HETATM    9  O   UNK N   1      35.688  15.475  11.789  0.00  0.00    -0.632 OA
BRANCH   8  10
HETATM   10  O   UNK N   1      34.286  14.008  12.122  0.00  0.00    -0.307 OA
HETATM   11  H   UNK N   1      33.551  14.319  12.674  0.00  0.00     0.222 HD
ENDBRANCH   8  10
BRANCH   8  12
HETATM   12  O   UNK N   1      33.149  15.157  11.021  0.00  0.00    -0.307 OA
HETATM   13  H   UNK N   1      32.696  15.975  10.762  0.00  0.00     0.222 HD
ENDBRANCH   8  12
ENDBRANCH   1   8
TORSDOF 7
ENDMDL
MODEL 4
REMARK VINA RESULT:      -4.0     17.358     18.355
REMARK  7 active torsions:
REMARK  status: ('A' for Active; 'I' for Inactive)
REMARK    1  A    between atoms: O_1  and  C_2 
REMARK    2  A    between atoms: C_2  and  C_3 
REMARK    3  A    between atoms: C_3  and  C_5 
REMARK    4  A    between atoms: C_5  and  O_6 
REMARK    5  A    between atoms: O_6  and  P_7 
REMARK    6  A    between atoms: P_7  and  O_8 
REMARK    7  A    between atoms: P_7  and  O_9 
ROOT
HETATM    1  O   UNK N   1      35.935  14.062  11.650  0.00  0.00    -0.290 OA
ENDROOT
BRANCH   1   2
HETATM    2  C   UNK N   1      35.880  15.439  11.912  0.00  0.00     0.261 C 
BRANCH   2   3
HETATM    3  C   UNK N   1      35.219  16.193  10.802  0.00  0.00     0.174 C 
HETATM    4  O   UNK N   1      35.631  17.296  10.466  0.00  0.00    -0.293 OA
BRANCH   3   5
HETATM    5  C   UNK N   1      34.059  15.563  10.095  0.00  0.00     0.244 C 
BRANCH   5   6
HETATM    6  O   UNK N   1      33.153  15.006  10.999  0.00  0.00    -0.394 OA
HETATM    7  H   UNK N   1      32.968  14.054  11.001  0.00  0.00     0.209 HD
ENDBRANCH   5   6
ENDBRANCH   3   5
ENDBRANCH   2   3
ENDBRANCH   1   2
BRANCH   1   8
HETATM    8  P   UNK N   1      36.109  13.298  13.205  0.00  0.00     0.391 P 
HETATM    9  O   UNK N   1      36.326  14.787  13.598  0.00  0.00    -0.632 OA
BRANCH   8  10
HETATM   10  O   UNK N   1      34.953  13.534  14.478  0.00  0.00    -0.307 OA
HETATM   11  H   UNK N   1      34.787  12.886  15.181  0.00  0.00     0.222 HD
ENDBRANCH   8  10
BRANCH   8  12
HETATM   12  O   UNK N   1      34.482  13.114  12.627  0.00  0.00    -0.307 OA
HETATM   13  H   UNK N   1      34.248  12.960  11.698  0.00  0.00     0.222 HD
ENDBRANCH   8  12
ENDBRANCH   1   8
TORSDOF 7
ENDMDL
MODEL 5
REMARK VINA RESULT:      -4.0     15.809     16.577
REMARK  7 active torsions:
REMARK  status: ('A' for Active; 'I' for Inactive)
REMARK    1  A    between atoms: O_1  and  C_2 
REMARK    2  A    between atoms: C_2  and  C_3 
REMARK    3  A    between atoms: C_3  and  C_5 
REMARK    4  A    between atoms: C_5  and  O_6 
REMARK    5  A    between atoms: O_6  and  P_7 
REMARK    6  A    between atoms: P_7  and  O_8 
REMARK    7  A    between atoms: P_7  and  O_9 
ROOT
HETATM    1  O   UNK N   1      35.138  17.539   9.462  0.00  0.00    -0.290 OA
ENDROOT
BRANCH   1   2
HETATM    2  C   UNK N   1      34.653  16.357  10.043  0.00  0.00     0.261 C 
BRANCH   2   3
HETATM    3  C   UNK N   1      35.676  15.702  10.914  0.00  0.00     0.174 C 
HETATM    4  O   UNK N   1      36.840  16.085  10.905  0.00  0.00    -0.293 OA
BRANCH   3   5
HETATM    5  C   UNK N   1      35.247  14.586  11.816  0.00  0.00     0.244 C 
BRANCH   5   6
HETATM    6  O   UNK N   1      33.892  14.291  11.651  0.00  0.00    -0.394 OA
HETATM    7  H   UNK N   1      33.514  13.466  11.991  0.00  0.00     0.209 HD
ENDBRANCH   5   6
ENDBRANCH   3   5
ENDBRANCH   2   3
ENDBRANCH   1   2
BRANCH   1   8
HETATM    8  P   UNK N   1      33.972  17.972   8.242  0.00  0.00     0.391 P 
HETATM    9  O   UNK N   1      34.924  19.199   8.169  0.00  0.00    -0.632 OA
BRANCH   8  10
HETATM   10  O   UNK N   1      34.388  18.039   6.558  0.00  0.00    -0.307 OA
HETATM   11  H   UNK N   1      35.032  18.663   6.188  0.00  0.00     0.222 HD
ENDBRANCH   8  10
BRANCH   8  12
HETATM   12  O   UNK N   1      34.857  16.561   7.750  0.00  0.00    -0.307 OA
HETATM   13  H   UNK N   1      34.637  15.657   8.024  0.00  0.00     0.222 HD
ENDBRANCH   8  12
ENDBRANCH   1   8
TORSDOF 7
ENDMDL
MODEL 6
REMARK VINA RESULT:      -3.9      1.548      1.961
REMARK  7 active torsions:
REMARK  status: ('A' for Active; 'I' for Inactive)
REMARK    1  A    between atoms: O_1  and  C_2 
REMARK    2  A    between atoms: C_2  and  C_3 
REMARK    3  A    between atoms: C_3  and  C_5 
REMARK    4  A    between atoms: C_5  and  O_6 
REMARK    5  A    between atoms: O_6  and  P_7 
REMARK    6  A    between atoms: P_7  and  O_8 
REMARK    7  A    between atoms: P_7  and  O_9 
ROOT
HETATM    1  O   UNK N   1      21.075  18.976   2.071  0.00  0.00    -0.290 OA
ENDROOT
BRANCH   1   2
HETATM    2  C   UNK N   1      19.865  18.305   2.305  0.00  0.00     0.261 C 
BRANCH   2   3
HETATM    3  C   UNK N   1      20.078  16.852   2.591  0.00  0.00     0.174 C 
HETATM    4  O   UNK N   1      19.764  16.378   3.675  0.00  0.00    -0.293 OA
BRANCH   3   5
HETATM    5  C   UNK N   1      20.660  15.984   1.518  0.00  0.00     0.244 C 
BRANCH   5   6
HETATM    6  O   UNK N   1      20.457  16.536   0.251  0.00  0.00    -0.394 OA
HETATM    7  H   UNK N   1      19.676  17.079   0.061  0.00  0.00     0.209 HD
ENDBRANCH   5   6
ENDBRANCH   3   5
ENDBRANCH   2   3
ENDBRANCH   1   2
BRANCH   1   8
HETATM    8  P   UNK N   1      20.628  20.538   1.442  0.00  0.00     0.391 P 
HETATM    9  O   UNK N   1      22.133  20.780   1.753  0.00  0.00    -0.632 OA
BRANCH   8  10
HETATM   10  O   UNK N   1      21.245  21.130  -0.068  0.00  0.00    -0.307 OA
HETATM   11  H   UNK N   1      20.811  21.821  -0.593  0.00  0.00     0.222 HD
ENDBRANCH   8  10
BRANCH   8  12
HETATM   12  O   UNK N   1      20.512  19.336   0.195  0.00  0.00    -0.307 OA
HETATM   13  H   UNK N   1      21.154  19.236  -0.526  0.00  0.00     0.222 HD
ENDBRANCH   8  12
ENDBRANCH   1   8
TORSDOF 7
ENDMDL
MODEL 7
REMARK VINA RESULT:      -3.8      2.436      4.096
REMARK  7 active torsions:
REMARK  status: ('A' for Active; 'I' for Inactive)
REMARK    1  A    between atoms: O_1  and  C_2 
REMARK    2  A    between atoms: C_2  and  C_3 
REMARK    3  A    between atoms: C_3  and  C_5 
REMARK    4  A    between atoms: C_5  and  O_6 
REMARK    5  A    between atoms: O_6  and  P_7 
REMARK    6  A    between atoms: P_7  and  O_8 
REMARK    7  A    between atoms: P_7  and  O_9 
ROOT
HETATM    1  O   UNK N   1      20.683  18.607   3.012  0.00  0.00    -0.290 OA
ENDROOT
BRANCH   1   2
HETATM    2  C   UNK N   1      20.525  18.854   1.640  0.00  0.00     0.261 C 
BRANCH   2   3
HETATM    3  C   UNK N   1      20.936  20.244   1.272  0.00  0.00     0.174 C 
HETATM    4  O   UNK N   1      21.068  20.565   0.097  0.00  0.00    -0.293 OA
BRANCH   3   5
HETATM    5  C   UNK N   1      21.157  21.244   2.365  0.00  0.00     0.244 C 
BRANCH   5   6
HETATM    6  O   UNK N   1      22.462  21.178   2.857  0.00  0.00    -0.394 OA
HETATM    7  H   UNK N   1      23.193  21.622   2.400  0.00  0.00     0.209 HD
ENDBRANCH   5   6
ENDBRANCH   3   5
ENDBRANCH   2   3
ENDBRANCH   1   2
BRANCH   1   8
HETATM    8  P   UNK N   1      20.174  16.958   3.251  0.00  0.00     0.391 P 
HETATM    9  O   UNK N   1      20.688  17.304   4.678  0.00  0.00    -0.632 OA
BRANCH   8  10
HETATM   10  O   UNK N   1      18.820  16.552   4.259  0.00  0.00    -0.307 OA
HETATM   11  H   UNK N   1      18.307  17.207   4.760  0.00  0.00     0.222 HD
ENDBRANCH   8  10
BRANCH   8  12
HETATM   12  O   UNK N   1      18.801  17.963   2.905  0.00  0.00    -0.307 OA
HETATM   13  H   UNK N   1      18.776  18.625   2.196  0.00  0.00     0.222 HD
ENDBRANCH   8  12
ENDBRANCH   1   8
TORSDOF 7
ENDMDL
MODEL 8
REMARK VINA RESULT:      -3.7      2.183      3.485
REMARK  7 active torsions:
REMARK  status: ('A' for Active; 'I' for Inactive)
REMARK    1  A    between atoms: O_1  and  C_2 
REMARK    2  A    between atoms: C_2  and  C_3 
REMARK    3  A    between atoms: C_3  and  C_5 
REMARK    4  A    between atoms: C_5  and  O_6 
REMARK    5  A    between atoms: O_6  and  P_7 
REMARK    6  A    between atoms: P_7  and  O_8 
REMARK    7  A    between atoms: P_7  and  O_9 
ROOT
HETATM    1  O   UNK N   1      21.610  19.145   2.724  0.00  0.00    -0.290 OA
ENDROOT
BRANCH   1   2
HETATM    2  C   UNK N   1      21.197  19.237   4.061  0.00  0.00     0.261 C 
BRANCH   2   3
HETATM    3  C   UNK N   1      20.801  17.906   4.617  0.00  0.00     0.174 C 
HETATM    4  O   UNK N   1      20.124  17.130   3.954  0.00  0.00    -0.293 OA
BRANCH   3   5
HETATM    5  C   UNK N   1      21.269  17.529   5.989  0.00  0.00     0.244 C 
BRANCH   5   6
HETATM    6  O   UNK N   1      21.242  18.625   6.854  0.00  0.00    -0.394 OA
HETATM    7  H   UNK N   1      20.415  18.915   7.268  0.00  0.00     0.209 HD
ENDBRANCH   5   6
ENDBRANCH   3   5
ENDBRANCH   2   3
ENDBRANCH   1   2
BRANCH   1   8
HETATM    8  P   UNK N   1      20.693  20.354   1.868  0.00  0.00     0.391 P 
HETATM    9  O   UNK N   1      22.136  20.727   1.423  0.00  0.00    -0.632 OA
BRANCH   8  10
HETATM   10  O   UNK N   1      20.574  20.361   0.137  0.00  0.00    -0.307 OA
HETATM   11  H   UNK N   1      19.747  20.204  -0.346  0.00  0.00     0.222 HD
ENDBRANCH   8  10
BRANCH   8  12
HETATM   12  O   UNK N   1      20.321  18.775   1.252  0.00  0.00    -0.307 OA
HETATM   13  H   UNK N   1      19.474  18.536   0.843  0.00  0.00     0.222 HD
ENDBRANCH   8  12
ENDBRANCH   1   8
TORSDOF 7
ENDMDL
MODEL 9
REMARK VINA RESULT:      -3.6      1.164      2.076
REMARK  7 active torsions:
REMARK  status: ('A' for Active; 'I' for Inactive)
REMARK    1  A    between atoms: O_1  and  C_2 
REMARK    2  A    between atoms: C_2  and  C_3 
REMARK    3  A    between atoms: C_3  and  C_5 
REMARK    4  A    between atoms: C_5  and  O_6 
REMARK    5  A    between atoms: O_6  and  P_7 
REMARK    6  A    between atoms: P_7  and  O_8 
REMARK    7  A    between atoms: P_7  and  O_9 
ROOT
HETATM    1  O   UNK N   1      21.049  18.770   2.392  0.00  0.00    -0.290 OA
ENDROOT
BRANCH   1   2
HETATM    2  C   UNK N   1      19.908  18.109   1.911  0.00  0.00     0.261 C 
BRANCH   2   3
HETATM    3  C   UNK N   1      20.254  17.057   0.907  0.00  0.00     0.174 C 
HETATM    4  O   UNK N   1      20.349  17.336  -0.282  0.00  0.00    -0.293 OA
BRANCH   3   5
HETATM    5  C   UNK N   1      20.507  15.660   1.385  0.00  0.00     0.244 C 
BRANCH   5   6
HETATM    6  O   UNK N   1      21.550  15.061   0.676  0.00  0.00    -0.394 OA
HETATM    7  H   UNK N   1      21.377  14.534  -0.120  0.00  0.00     0.209 HD
ENDBRANCH   5   6
ENDBRANCH   3   5
ENDBRANCH   2   3
ENDBRANCH   1   2
BRANCH   1   8
HETATM    8  P   UNK N   1      20.535  20.400   2.731  0.00  0.00     0.391 P 
HETATM    9  O   UNK N   1      21.358  20.092   4.014  0.00  0.00    -0.632 OA
BRANCH   8  10
HETATM   10  O   UNK N   1      21.660  21.721   2.796  0.00  0.00    -0.307 OA
HETATM   11  H   UNK N   1      22.586  21.654   2.515  0.00  0.00     0.222 HD
ENDBRANCH   8  10
BRANCH   8  12
HETATM   12  O   UNK N   1      21.615  20.384   1.371  0.00  0.00    -0.307 OA
HETATM   13  H   UNK N   1      22.339  21.017   1.242  0.00  0.00     0.222 HD
ENDBRANCH   8  12
ENDBRANCH   1   8
TORSDOF 7
ENDMDL
