MODEL 1
REMARK VINA RESULT:      -6.5      0.000      0.000
REMARK  11 active torsions:
REMARK  status: ('A' for Active; 'I' for Inactive)
REMARK    1  A    between atoms: C_1  and  O_4 
REMARK    2  A    between atoms: C_2  and  C_5 
REMARK    3  A    between atoms: O_4  and  C_7 
REMARK    4  A    between atoms: C_7  and  C_11 
REMARK    5  A    between atoms: C_8  and  N_12 
REMARK    6  A    between atoms: C_11  and  C_13 
REMARK    7  A    between atoms: C_11  and  O_14 
REMARK       I    between atoms: N_12  and  C_15 
REMARK    8  A    between atoms: C_13  and  N_16 
REMARK       I    between atoms: C_15  and  N_17 
REMARK    9  A    between atoms: N_16  and  C_19 
REMARK   10  A    between atoms: N_17  and  C_20 
REMARK   11  A    between atoms: N_17  and  C_23 
ROOT
HETATM    1  C   UNK N   1      27.963  19.400   6.489  0.00  0.00     0.082 A 
HETATM    2  C   UNK N   1      28.088  18.707   5.255  0.00  0.00     0.045 A 
HETATM    3  C   UNK N   1      27.041  20.448   6.605  0.00  0.00     0.040 A 
HETATM    4  C   UNK N   1      26.232  20.812   5.530  0.00  0.00     0.032 A 
HETATM    5  C   UNK N   1      26.361  20.155   4.311  0.00  0.00     0.037 A 
HETATM    6  C   UNK N   1      27.270  19.096   4.186  0.00  0.00     0.047 A 
ENDROOT
BRANCH   1   7
HETATM    7  O   UNK N   1      28.698  19.084   7.577  0.00  0.00    -0.348 OA
BRANCH   7   8
HETATM    8  C   UNK N   1      28.159  18.469   8.693  0.00  0.00     0.209 C 
BRANCH   8   9
HETATM    9  C   UNK N   1      29.182  17.597   9.432  0.00  0.00     0.159 C 
BRANCH   9  10
HETATM   10  C   UNK N   1      30.357  17.237   8.523  0.00  0.00     0.148 C 
BRANCH  10  11
HETATM   11  N   UNK N   1      31.656  17.598   9.099  0.00  0.00    -0.411 N 
HETATM   12  H   UNK N   1      31.742  18.127   9.968  0.00  0.00     0.154 HD
BRANCH  11  13
HETATM   13  C   UNK N   1      32.824  17.141   8.333  0.00  0.00     0.014 C 
HETATM   14  C   UNK N   1      32.332  16.576   7.017  0.00  0.00     0.037 C 
HETATM   15  C   UNK N   1      33.806  18.264   8.016  0.00  0.00     0.037 C 
HETATM   16  C   UNK N   1      33.534  16.023   9.072  0.00  0.00     0.037 C 
ENDBRANCH  11  13
ENDBRANCH  10  11
ENDBRANCH   9  10
BRANCH   9  17
HETATM   17  O   UNK N   1      29.644  18.275  10.561  0.00  0.00    -0.392 OA
HETATM   18  H   UNK N   1      30.383  18.190  11.183  0.00  0.00     0.210 HD
ENDBRANCH   9  17
ENDBRANCH   8   9
ENDBRANCH   7   8
ENDBRANCH   1   7
BRANCH   2  19
HETATM   19  C   UNK N   1      29.069  17.605   5.030  0.00  0.00     0.158 C 
HETATM   20  C   UNK N   1      28.686  16.183   5.297  0.00  0.00     0.097 C 
HETATM   21  O   UNK N   1      30.185  17.836   4.596  0.00  0.00    -0.293 OA
ENDBRANCH   2  19
BRANCH   5  22
HETATM   22  N   UNK N   1      25.508  20.495   3.233  0.00  0.00    -0.309 N 
HETATM   23  C   UNK N   1      24.173  20.217   3.125  0.00  0.00     0.322 C 
HETATM   24  N   UNK N   1      23.551  19.208   3.828  0.00  0.00    -0.335 N 
HETATM   25  O   UNK N   1      23.520  20.877   2.330  0.00  0.00    -0.247 OA
HETATM   26  H   UNK N   1      25.919  20.983   2.482  0.00  0.00     0.170 HD
BRANCH  24  27
HETATM   27  C   UNK N   1      22.128  18.999   3.638  0.00  0.00     0.123 C 
HETATM   28  C   UNK N   1      21.446  18.719   4.966  0.00  0.00     0.026 C 
ENDBRANCH  24  27
BRANCH  24  29
HETATM   29  C   UNK N   1      24.293  18.208   4.576  0.00  0.00     0.123 C 
HETATM   30  C   UNK N   1      24.408  16.889   3.827  0.00  0.00     0.026 C 
ENDBRANCH  24  29
ENDBRANCH   5  22
TORSDOF 11
ENDMDL
MODEL 2
REMARK VINA RESULT:      -6.5      2.909      8.955
REMARK  11 active torsions:
REMARK  status: ('A' for Active; 'I' for Inactive)
REMARK    1  A    between atoms: C_1  and  O_4 
REMARK    2  A    between atoms: C_2  and  C_5 
REMARK    3  A    between atoms: O_4  and  C_7 
REMARK    4  A    between atoms: C_7  and  C_11 
REMARK    5  A    between atoms: C_8  and  N_12 
REMARK    6  A    between atoms: C_11  and  C_13 
REMARK    7  A    between atoms: C_11  and  O_14 
REMARK       I    between atoms: N_12  and  C_15 
REMARK    8  A    between atoms: C_13  and  N_16 
REMARK       I    between atoms: C_15  and  N_17 
REMARK    9  A    between atoms: N_16  and  C_19 
REMARK   10  A    between atoms: N_17  and  C_20 
REMARK   11  A    between atoms: N_17  and  C_23 
ROOT
HETATM    1  C   UNK N   1      31.206  17.270   6.384  0.00  0.00     0.082 A 
HETATM    2  C   UNK N   1      32.577  17.147   6.033  0.00  0.00     0.045 A 
HETATM    3  C   UNK N   1      30.850  17.490   7.721  0.00  0.00     0.040 A 
HETATM    4  C   UNK N   1      31.823  17.607   8.711  0.00  0.00     0.032 A 
HETATM    5  C   UNK N   1      33.168  17.466   8.382  0.00  0.00     0.037 A 
HETATM    6  C   UNK N   1      33.538  17.259   7.047  0.00  0.00     0.047 A 
ENDROOT
BRANCH   1   7
HETATM    7  O   UNK N   1      30.213  17.191   5.472  0.00  0.00    -0.348 OA
BRANCH   7   8
HETATM    8  C   UNK N   1      29.781  15.992   4.936  0.00  0.00     0.209 C 
BRANCH   8   9
HETATM    9  C   UNK N   1      29.203  16.156   3.525  0.00  0.00     0.159 C 
BRANCH   9  10
HETATM   10  C   UNK N   1      27.946  17.025   3.543  0.00  0.00     0.148 C 
BRANCH  10  11
HETATM   11  N   UNK N   1      28.237  18.446   3.759  0.00  0.00    -0.411 N 
HETATM   12  H   UNK N   1      29.089  18.889   3.415  0.00  0.00     0.154 HD
BRANCH  11  13
HETATM   13  C   UNK N   1      27.209  19.183   4.510  0.00  0.00     0.014 C 
HETATM   14  C   UNK N   1      26.087  18.222   4.838  0.00  0.00     0.037 C 
HETATM   15  C   UNK N   1      27.727  19.756   5.824  0.00  0.00     0.037 C 
HETATM   16  C   UNK N   1      26.626  20.291   3.653  0.00  0.00     0.037 C 
ENDBRANCH  11  13
ENDBRANCH  10  11
ENDBRANCH   9  10
BRANCH   9  17
HETATM   17  O   UNK N   1      30.165  16.727   2.690  0.00  0.00    -0.392 OA
HETATM   18  H   UNK N   1      31.125  16.864   2.708  0.00  0.00     0.210 HD
ENDBRANCH   9  17
ENDBRANCH   8   9
ENDBRANCH   7   8
ENDBRANCH   1   7
BRANCH   2  19
HETATM   19  C   UNK N   1      33.046  16.873   4.644  0.00  0.00     0.158 C 
HETATM   20  C   UNK N   1      33.761  15.598   4.322  0.00  0.00     0.097 C 
HETATM   21  O   UNK N   1      32.830  17.663   3.740  0.00  0.00    -0.293 OA
ENDBRANCH   2  19
BRANCH   5  22
HETATM   22  N   UNK N   1      34.159  17.629   9.382  0.00  0.00    -0.309 N 
HETATM   23  C   UNK N   1      34.940  16.648   9.928  0.00  0.00     0.322 C 
HETATM   24  N   UNK N   1      34.601  15.312   9.910  0.00  0.00    -0.335 N 
HETATM   25  O   UNK N   1      35.967  16.992  10.494  0.00  0.00    -0.247 OA
HETATM   26  H   UNK N   1      34.299  18.542   9.719  0.00  0.00     0.170 HD
BRANCH  24  27
HETATM   27  C   UNK N   1      35.504  14.354  10.518  0.00  0.00     0.123 C 
HETATM   28  C   UNK N   1      34.979  13.905  11.871  0.00  0.00     0.026 C 
ENDBRANCH  24  27
BRANCH  24  29
HETATM   29  C   UNK N   1      33.284  14.848   9.509  0.00  0.00     0.123 C 
HETATM   30  C   UNK N   1      33.350  13.761   8.447  0.00  0.00     0.026 C 
ENDBRANCH  24  29
ENDBRANCH   5  22
TORSDOF 11
ENDMDL
MODEL 3
REMARK VINA RESULT:      -6.4      2.335      3.988
REMARK  11 active torsions:
REMARK  status: ('A' for Active; 'I' for Inactive)
REMARK    1  A    between atoms: C_1  and  O_4 
REMARK    2  A    between atoms: C_2  and  C_5 
REMARK    3  A    between atoms: O_4  and  C_7 
REMARK    4  A    between atoms: C_7  and  C_11 
REMARK    5  A    between atoms: C_8  and  N_12 
REMARK    6  A    between atoms: C_11  and  C_13 
REMARK    7  A    between atoms: C_11  and  O_14 
REMARK       I    between atoms: N_12  and  C_15 
REMARK    8  A    between atoms: C_13  and  N_16 
REMARK       I    between atoms: C_15  and  N_17 
REMARK    9  A    between atoms: N_16  and  C_19 
REMARK   10  A    between atoms: N_17  and  C_20 
REMARK   11  A    between atoms: N_17  and  C_23 
ROOT
HETATM    1  C   UNK N   1      30.749  17.194   6.951  0.00  0.00     0.082 A 
HETATM    2  C   UNK N   1      30.328  16.897   5.627  0.00  0.00     0.045 A 
HETATM    3  C   UNK N   1      29.793  17.477   7.935  0.00  0.00     0.040 A 
HETATM    4  C   UNK N   1      28.432  17.456   7.638  0.00  0.00     0.032 A 
HETATM    5  C   UNK N   1      28.009  17.187   6.340  0.00  0.00     0.037 A 
HETATM    6  C   UNK N   1      28.954  16.890   5.350  0.00  0.00     0.047 A 
ENDROOT
BRANCH   1   7
HETATM    7  O   UNK N   1      32.050  17.209   7.313  0.00  0.00    -0.348 OA
BRANCH   7   8
HETATM    8  C   UNK N   1      32.571  18.134   8.199  0.00  0.00     0.209 C 
BRANCH   8   9
HETATM    9  C   UNK N   1      34.093  18.270   8.076  0.00  0.00     0.159 C 
BRANCH   9  10
HETATM   10  C   UNK N   1      34.809  17.406   9.113  0.00  0.00     0.148 C 
BRANCH  10  11
HETATM   11  N   UNK N   1      33.896  16.529   9.854  0.00  0.00    -0.411 N 
HETATM   12  H   UNK N   1      33.124  16.891  10.415  0.00  0.00     0.154 HD
BRANCH  11  13
HETATM   13  C   UNK N   1      34.175  15.091   9.727  0.00  0.00     0.014 C 
HETATM   14  C   UNK N   1      32.948  14.423   9.144  0.00  0.00     0.037 C 
HETATM   15  C   UNK N   1      35.349  14.792   8.800  0.00  0.00     0.037 C 
HETATM   16  C   UNK N   1      34.422  14.480  11.093  0.00  0.00     0.037 C 
ENDBRANCH  11  13
ENDBRANCH  10  11
ENDBRANCH   9  10
BRANCH   9  17
HETATM   17  O   UNK N   1      34.493  17.900   6.790  0.00  0.00    -0.392 OA
HETATM   18  H   UNK N   1      35.176  17.336   6.398  0.00  0.00     0.210 HD
ENDBRANCH   9  17
ENDBRANCH   8   9
ENDBRANCH   7   8
ENDBRANCH   1   7
BRANCH   2  19
HETATM   19  C   UNK N   1      31.275  16.622   4.509  0.00  0.00     0.158 C 
HETATM   20  C   UNK N   1      32.194  17.694   4.012  0.00  0.00     0.097 C 
HETATM   21  O   UNK N   1      31.343  15.516   3.999  0.00  0.00    -0.293 OA
ENDBRANCH   2  19
BRANCH   5  22
HETATM   22  N   UNK N   1      26.624  17.122   6.049  0.00  0.00    -0.309 N 
HETATM   23  C   UNK N   1      25.899  18.016   5.310  0.00  0.00     0.322 C 
HETATM   24  N   UNK N   1      26.295  19.319   5.097  0.00  0.00    -0.335 N 
HETATM   25  O   UNK N   1      24.829  17.639   4.857  0.00  0.00    -0.247 OA
HETATM   26  H   UNK N   1      26.132  16.354   6.417  0.00  0.00     0.170 HD
BRANCH  24  27
HETATM   27  C   UNK N   1      25.450  20.184   4.295  0.00  0.00     0.123 C 
HETATM   28  C   UNK N   1      26.115  20.504   2.968  0.00  0.00     0.026 C 
ENDBRANCH  24  27
BRANCH  24  29
HETATM   29  C   UNK N   1      27.400  19.926   5.818  0.00  0.00     0.123 C 
HETATM   30  C   UNK N   1      27.008  21.233   6.491  0.00  0.00     0.026 C 
ENDBRANCH  24  29
ENDBRANCH   5  22
TORSDOF 11
ENDMDL
MODEL 4
REMARK VINA RESULT:      -6.4      2.735      8.930
REMARK  11 active torsions:
REMARK  status: ('A' for Active; 'I' for Inactive)
REMARK    1  A    between atoms: C_1  and  O_4 
REMARK    2  A    between atoms: C_2  and  C_5 
REMARK    3  A    between atoms: O_4  and  C_7 
REMARK    4  A    between atoms: C_7  and  C_11 
REMARK    5  A    between atoms: C_8  and  N_12 
REMARK    6  A    between atoms: C_11  and  C_13 
REMARK    7  A    between atoms: C_11  and  O_14 
REMARK       I    between atoms: N_12  and  C_15 
REMARK    8  A    between atoms: C_13  and  N_16 
REMARK       I    between atoms: C_15  and  N_17 
REMARK    9  A    between atoms: N_16  and  C_19 
REMARK   10  A    between atoms: N_17  and  C_20 
REMARK   11  A    between atoms: N_17  and  C_23 
ROOT
HETATM    1  C   UNK N   1      31.222  17.322   6.345  0.00  0.00     0.082 A 
HETATM    2  C   UNK N   1      30.816  17.495   7.695  0.00  0.00     0.045 A 
HETATM    3  C   UNK N   1      32.587  17.280   6.032  0.00  0.00     0.040 A 
HETATM    4  C   UNK N   1      33.554  17.390   7.028  0.00  0.00     0.032 A 
HETATM    5  C   UNK N   1      33.169  17.583   8.351  0.00  0.00     0.037 A 
HETATM    6  C   UNK N   1      31.807  17.613   8.679  0.00  0.00     0.047 A 
ENDROOT
BRANCH   1   7
HETATM    7  O   UNK N   1      30.339  17.184   5.333  0.00  0.00    -0.348 OA
BRANCH   7   8
HETATM    8  C   UNK N   1      30.187  16.005   4.625  0.00  0.00     0.209 C 
BRANCH   8   9
HETATM    9  C   UNK N   1      29.433  16.207   3.306  0.00  0.00     0.159 C 
BRANCH   9  10
HETATM   10  C   UNK N   1      28.119  16.953   3.531  0.00  0.00     0.148 C 
BRANCH  10  11
HETATM   11  N   UNK N   1      28.306  18.395   3.722  0.00  0.00    -0.411 N 
HETATM   12  H   UNK N   1      29.111  18.897   3.347  0.00  0.00     0.154 HD
BRANCH  11  13
HETATM   13  C   UNK N   1      27.247  19.063   4.493  0.00  0.00     0.014 C 
HETATM   14  C   UNK N   1      26.326  17.997   5.048  0.00  0.00     0.037 C 
HETATM   15  C   UNK N   1      27.784  19.869   5.670  0.00  0.00     0.037 C 
HETATM   16  C   UNK N   1      26.418  19.954   3.587  0.00  0.00     0.037 C 
ENDBRANCH  11  13
ENDBRANCH  10  11
ENDBRANCH   9  10
BRANCH   9  17
HETATM   17  O   UNK N   1      30.237  16.918   2.413  0.00  0.00    -0.392 OA
HETATM   18  H   UNK N   1      31.091  17.377   2.442  0.00  0.00     0.210 HD
ENDBRANCH   9  17
ENDBRANCH   8   9
ENDBRANCH   7   8
ENDBRANCH   1   7
BRANCH   2  19
HETATM   19  C   UNK N   1      29.388  17.590   8.116  0.00  0.00     0.158 C 
HETATM   20  C   UNK N   1      28.973  18.559   9.178  0.00  0.00     0.097 C 
HETATM   21  O   UNK N   1      28.530  16.906   7.584  0.00  0.00    -0.293 OA
ENDBRANCH   2  19
BRANCH   5  22
HETATM   22  N   UNK N   1      34.151  17.651   9.369  0.00  0.00    -0.309 N 
HETATM   23  C   UNK N   1      34.889  16.612   9.866  0.00  0.00     0.322 C 
HETATM   24  N   UNK N   1      34.501  15.293   9.768  0.00  0.00    -0.335 N 
HETATM   25  O   UNK N   1      35.920  16.885  10.463  0.00  0.00    -0.247 OA
HETATM   26  H   UNK N   1      34.320  18.538   9.760  0.00  0.00     0.170 HD
BRANCH  24  27
HETATM   27  C   UNK N   1      35.360  14.268  10.330  0.00  0.00     0.123 C 
HETATM   28  C   UNK N   1      34.874  13.857  11.709  0.00  0.00     0.026 C 
ENDBRANCH  24  27
BRANCH  24  29
HETATM   29  C   UNK N   1      33.174  14.902   9.327  0.00  0.00     0.123 C 
HETATM   30  C   UNK N   1      33.213  13.845   8.234  0.00  0.00     0.026 C 
ENDBRANCH  24  29
ENDBRANCH   5  22
TORSDOF 11
ENDMDL
MODEL 5
REMARK VINA RESULT:      -6.2      2.721      8.665
REMARK  11 active torsions:
REMARK  status: ('A' for Active; 'I' for Inactive)
REMARK    1  A    between atoms: C_1  and  O_4 
REMARK    2  A    between atoms: C_2  and  C_5 
REMARK    3  A    between atoms: O_4  and  C_7 
REMARK    4  A    between atoms: C_7  and  C_11 
REMARK    5  A    between atoms: C_8  and  N_12 
REMARK    6  A    between atoms: C_11  and  C_13 
REMARK    7  A    between atoms: C_11  and  O_14 
REMARK       I    between atoms: N_12  and  C_15 
REMARK    8  A    between atoms: C_13  and  N_16 
REMARK       I    between atoms: C_15  and  N_17 
REMARK    9  A    between atoms: N_16  and  C_19 
REMARK   10  A    between atoms: N_17  and  C_20 
REMARK   11  A    between atoms: N_17  and  C_23 
ROOT
HETATM    1  C   UNK N   1      23.796  19.835   3.670  0.00  0.00     0.082 A 
HETATM    2  C   UNK N   1      24.005  18.702   4.501  0.00  0.00     0.045 A 
HETATM    3  C   UNK N   1      24.894  20.475   3.080  0.00  0.00     0.040 A 
HETATM    4  C   UNK N   1      26.190  20.006   3.284  0.00  0.00     0.032 A 
HETATM    5  C   UNK N   1      26.410  18.911   4.114  0.00  0.00     0.037 A 
HETATM    6  C   UNK N   1      25.319  18.254   4.699  0.00  0.00     0.047 A 
ENDROOT
BRANCH   1   7
HETATM    7  O   UNK N   1      22.566  20.327   3.410  0.00  0.00    -0.348 OA
BRANCH   7   8
HETATM    8  C   UNK N   1      21.842  19.981   2.283  0.00  0.00     0.209 C 
BRANCH   8   9
HETATM    9  C   UNK N   1      20.335  19.910   2.554  0.00  0.00     0.159 C 
BRANCH   9  10
HETATM   10  C   UNK N   1      19.846  18.462   2.564  0.00  0.00     0.148 C 
BRANCH  10  11
HETATM   11  N   UNK N   1      20.935  17.492   2.715  0.00  0.00    -0.411 N 
HETATM   12  H   UNK N   1      21.852  17.751   3.081  0.00  0.00     0.154 HD
BRANCH  11  13
HETATM   13  C   UNK N   1      20.608  16.121   2.298  0.00  0.00     0.014 C 
HETATM   14  C   UNK N   1      21.903  15.349   2.161  0.00  0.00     0.037 C 
HETATM   15  C   UNK N   1      19.734  15.384   3.307  0.00  0.00     0.037 C 
HETATM   16  C   UNK N   1      19.936  16.130   0.937  0.00  0.00     0.037 C 
ENDBRANCH  11  13
ENDBRANCH  10  11
ENDBRANCH   9  10
BRANCH   9  17
HETATM   17  O   UNK N   1      20.051  20.518   3.778  0.00  0.00    -0.392 OA
HETATM   18  H   UNK N   1      19.303  20.549   4.395  0.00  0.00     0.210 HD
ENDBRANCH   9  17
ENDBRANCH   8   9
ENDBRANCH   7   8
ENDBRANCH   1   7
BRANCH   2  19
HETATM   19  C   UNK N   1      22.901  17.983   5.200  0.00  0.00     0.158 C 
HETATM   20  C   UNK N   1      23.052  16.541   5.573  0.00  0.00     0.097 C 
HETATM   21  O   UNK N   1      21.871  18.559   5.508  0.00  0.00    -0.293 OA
ENDBRANCH   2  19
BRANCH   5  22
HETATM   22  N   UNK N   1      27.722  18.408   4.286  0.00  0.00    -0.309 N 
HETATM   23  C   UNK N   1      28.397  18.265   5.467  0.00  0.00     0.322 C 
HETATM   24  N   UNK N   1      28.084  18.972   6.608  0.00  0.00    -0.335 N 
HETATM   25  O   UNK N   1      29.350  17.500   5.485  0.00  0.00    -0.247 OA
HETATM   26  H   UNK N   1      28.200  18.134   3.470  0.00  0.00     0.170 HD
BRANCH  24  27
HETATM   27  C   UNK N   1      28.864  18.742   7.809  0.00  0.00     0.123 C 
HETATM   28  C   UNK N   1      28.020  18.070   8.878  0.00  0.00     0.026 C 
ENDBRANCH  24  27
BRANCH  24  29
HETATM   29  C   UNK N   1      27.157  20.091   6.602  0.00  0.00     0.123 C 
HETATM   30  C   UNK N   1      27.851  21.418   6.340  0.00  0.00     0.026 C 
ENDBRANCH  24  29
ENDBRANCH   5  22
TORSDOF 11
ENDMDL
MODEL 6
REMARK VINA RESULT:      -6.1      1.998      3.698
REMARK  11 active torsions:
REMARK  status: ('A' for Active; 'I' for Inactive)
REMARK    1  A    between atoms: C_1  and  O_4 
REMARK    2  A    between atoms: C_2  and  C_5 
REMARK    3  A    between atoms: O_4  and  C_7 
REMARK    4  A    between atoms: C_7  and  C_11 
REMARK    5  A    between atoms: C_8  and  N_12 
REMARK    6  A    between atoms: C_11  and  C_13 
REMARK    7  A    between atoms: C_11  and  O_14 
REMARK       I    between atoms: N_12  and  C_15 
REMARK    8  A    between atoms: C_13  and  N_16 
REMARK       I    between atoms: C_15  and  N_17 
REMARK    9  A    between atoms: N_16  and  C_19 
REMARK   10  A    between atoms: N_17  and  C_20 
REMARK   11  A    between atoms: N_17  and  C_23 
ROOT
HETATM    1  C   UNK N   1      29.998  17.241   6.865  0.00  0.00     0.082 A 
HETATM    2  C   UNK N   1      28.955  17.899   7.569  0.00  0.00     0.045 A 
HETATM    3  C   UNK N   1      29.975  17.206   5.465  0.00  0.00     0.040 A 
HETATM    4  C   UNK N   1      28.951  17.823   4.750  0.00  0.00     0.032 A 
HETATM    5  C   UNK N   1      27.912  18.452   5.429  0.00  0.00     0.037 A 
HETATM    6  C   UNK N   1      27.930  18.505   6.829  0.00  0.00     0.047 A 
ENDROOT
BRANCH   1   7
HETATM    7  O   UNK N   1      31.034  16.644   7.493  0.00  0.00    -0.348 OA
BRANCH   7   8
HETATM    8  C   UNK N   1      32.298  16.559   6.939  0.00  0.00     0.209 C 
BRANCH   8   9
HETATM    9  C   UNK N   1      33.170  17.773   7.281  0.00  0.00     0.159 C 
BRANCH   9  10
HETATM   10  C   UNK N   1      33.635  17.725   8.736  0.00  0.00     0.148 C 
BRANCH  10  11
HETATM   11  N   UNK N   1      33.356  16.438   9.382  0.00  0.00    -0.411 N 
HETATM   12  H   UNK N   1      32.414  16.053   9.453  0.00  0.00     0.154 HD
BRANCH  11  13
HETATM   13  C   UNK N   1      34.536  15.744   9.920  0.00  0.00     0.014 C 
HETATM   14  C   UNK N   1      35.447  16.780  10.543  0.00  0.00     0.037 C 
HETATM   15  C   UNK N   1      34.188  14.725  10.999  0.00  0.00     0.037 C 
HETATM   16  C   UNK N   1      35.307  15.073   8.800  0.00  0.00     0.037 C 
ENDBRANCH  11  13
ENDBRANCH  10  11
ENDBRANCH   9  10
BRANCH   9  17
HETATM   17  O   UNK N   1      34.275  17.810   6.429  0.00  0.00    -0.392 OA
HETATM   18  H   UNK N   1      35.164  18.196   6.441  0.00  0.00     0.210 HD
ENDBRANCH   9  17
ENDBRANCH   8   9
ENDBRANCH   7   8
ENDBRANCH   1   7
BRANCH   2  19
HETATM   19  C   UNK N   1      28.877  17.953   9.057  0.00  0.00     0.158 C 
HETATM   20  C   UNK N   1      29.811  18.826   9.835  0.00  0.00     0.097 C 
HETATM   21  O   UNK N   1      28.035  17.314   9.666  0.00  0.00    -0.293 OA
ENDBRANCH   2  19
BRANCH   5  22
HETATM   22  N   UNK N   1      26.894  19.117   4.702  0.00  0.00    -0.309 N 
HETATM   23  C   UNK N   1      25.575  18.765   4.631  0.00  0.00     0.322 C 
HETATM   24  N   UNK N   1      25.115  17.492   4.895  0.00  0.00    -0.335 N 
HETATM   25  O   UNK N   1      24.779  19.620   4.272  0.00  0.00    -0.247 OA
HETATM   26  H   UNK N   1      27.165  19.915   4.194  0.00  0.00     0.170 HD
BRANCH  24  27
HETATM   27  C   UNK N   1      23.693  17.227   4.791  0.00  0.00     0.123 C 
HETATM   28  C   UNK N   1      23.408  16.272   3.645  0.00  0.00     0.026 C 
ENDBRANCH  24  27
BRANCH  24  29
HETATM   29  C   UNK N   1      26.009  16.359   5.056  0.00  0.00     0.123 C 
HETATM   30  C   UNK N   1      25.779  15.618   6.364  0.00  0.00     0.026 C 
ENDBRANCH  24  29
ENDBRANCH   5  22
TORSDOF 11
ENDMDL
MODEL 7
REMARK VINA RESULT:      -6.0     10.432     14.332
REMARK  11 active torsions:
REMARK  status: ('A' for Active; 'I' for Inactive)
REMARK    1  A    between atoms: C_1  and  O_4 
REMARK    2  A    between atoms: C_2  and  C_5 
REMARK    3  A    between atoms: O_4  and  C_7 
REMARK    4  A    between atoms: C_7  and  C_11 
REMARK    5  A    between atoms: C_8  and  N_12 
REMARK    6  A    between atoms: C_11  and  C_13 
REMARK    7  A    between atoms: C_11  and  O_14 
REMARK       I    between atoms: N_12  and  C_15 
REMARK    8  A    between atoms: C_13  and  N_16 
REMARK       I    between atoms: C_15  and  N_17 
REMARK    9  A    between atoms: N_16  and  C_19 
REMARK   10  A    between atoms: N_17  and  C_20 
REMARK   11  A    between atoms: N_17  and  C_23 
ROOT
HETATM    1  C   UNK N   1      29.478  22.467  -4.815  0.00  0.00     0.082 A 
HETATM    2  C   UNK N   1      30.034  22.174  -3.541  0.00  0.00     0.045 A 
HETATM    3  C   UNK N   1      29.898  21.742  -5.937  0.00  0.00     0.040 A 
HETATM    4  C   UNK N   1      30.843  20.725  -5.821  0.00  0.00     0.032 A 
HETATM    5  C   UNK N   1      31.411  20.444  -4.582  0.00  0.00     0.037 A 
HETATM    6  C   UNK N   1      30.989  21.152  -3.449  0.00  0.00     0.047 A 
ENDROOT
BRANCH   1   7
HETATM    7  O   UNK N   1      28.541  23.423  -4.995  0.00  0.00    -0.348 OA
BRANCH   7   8
HETATM    8  C   UNK N   1      27.653  23.410  -6.055  0.00  0.00     0.209 C 
BRANCH   8   9
HETATM    9  C   UNK N   1      26.191  23.372  -5.594  0.00  0.00     0.159 C 
BRANCH   9  10
HETATM   10  C   UNK N   1      25.613  24.782  -5.478  0.00  0.00     0.148 C 
BRANCH  10  11
HETATM   11  N   UNK N   1      26.632  25.794  -5.182  0.00  0.00    -0.411 N 
HETATM   12  H   UNK N   1      27.626  25.570  -5.123  0.00  0.00     0.154 HD
BRANCH  11  13
HETATM   13  C   UNK N   1      26.115  27.155  -4.978  0.00  0.00     0.014 C 
HETATM   14  C   UNK N   1      24.741  27.236  -5.610  0.00  0.00     0.037 C 
HETATM   15  C   UNK N   1      25.968  27.523  -3.505  0.00  0.00     0.037 C 
HETATM   16  C   UNK N   1      27.001  28.166  -5.681  0.00  0.00     0.037 C 
ENDBRANCH  11  13
ENDBRANCH  10  11
ENDBRANCH   9  10
BRANCH   9  17
HETATM   17  O   UNK N   1      25.436  22.620  -6.495  0.00  0.00    -0.392 OA
HETATM   18  H   UNK N   1      24.641  22.065  -6.461  0.00  0.00     0.210 HD
ENDBRANCH   9  17
ENDBRANCH   8   9
ENDBRANCH   7   8
ENDBRANCH   1   7
BRANCH   2  19
HETATM   19  C   UNK N   1      29.676  22.918  -2.299  0.00  0.00     0.158 C 
HETATM   20  C   UNK N   1      28.248  23.253  -2.000  0.00  0.00     0.097 C 
HETATM   21  O   UNK N   1      30.530  23.241  -1.491  0.00  0.00    -0.293 OA
ENDBRANCH   2  19
BRANCH   5  22
HETATM   22  N   UNK N   1      32.338  19.381  -4.457  0.00  0.00    -0.309 N 
HETATM   23  C   UNK N   1      33.699  19.487  -4.376  0.00  0.00     0.322 C 
HETATM   24  N   UNK N   1      34.402  20.583  -4.828  0.00  0.00    -0.335 N 
HETATM   25  O   UNK N   1      34.314  18.536  -3.916  0.00  0.00    -0.247 OA
HETATM   26  H   UNK N   1      31.964  18.471  -4.425  0.00  0.00     0.170 HD
BRANCH  24  27
HETATM   27  C   UNK N   1      35.846  20.592  -4.693  0.00  0.00     0.123 C 
HETATM   28  C   UNK N   1      36.513  20.384  -6.041  0.00  0.00     0.026 C 
ENDBRANCH  24  27
BRANCH  24  29
HETATM   29  C   UNK N   1      33.786  21.626  -5.630  0.00  0.00     0.123 C 
HETATM   30  C   UNK N   1      34.016  23.014  -5.053  0.00  0.00     0.026 C 
ENDBRANCH  24  29
ENDBRANCH   5  22
TORSDOF 11
ENDMDL
MODEL 8
REMARK VINA RESULT:      -6.0     11.945     14.716
REMARK  11 active torsions:
REMARK  status: ('A' for Active; 'I' for Inactive)
REMARK    1  A    between atoms: C_1  and  O_4 
REMARK    2  A    between atoms: C_2  and  C_5 
REMARK    3  A    between atoms: O_4  and  C_7 
REMARK    4  A    between atoms: C_7  and  C_11 
REMARK    5  A    between atoms: C_8  and  N_12 
REMARK    6  A    between atoms: C_11  and  C_13 
REMARK    7  A    between atoms: C_11  and  O_14 
REMARK       I    between atoms: N_12  and  C_15 
REMARK    8  A    between atoms: C_13  and  N_16 
REMARK       I    between atoms: C_15  and  N_17 
REMARK    9  A    between atoms: N_16  and  C_19 
REMARK   10  A    between atoms: N_17  and  C_20 
REMARK   11  A    between atoms: N_17  and  C_23 
ROOT
HETATM    1  C   UNK N   1      25.895  25.075  -5.261  0.00  0.00     0.082 A 
HETATM    2  C   UNK N   1      26.599  25.288  -4.046  0.00  0.00     0.045 A 
HETATM    3  C   UNK N   1      25.155  26.121  -5.827  0.00  0.00     0.040 A 
HETATM    4  C   UNK N   1      25.112  27.376  -5.223  0.00  0.00     0.032 A 
HETATM    5  C   UNK N   1      25.780  27.591  -4.021  0.00  0.00     0.037 A 
HETATM    6  C   UNK N   1      26.534  26.556  -3.452  0.00  0.00     0.047 A 
ENDROOT
BRANCH   1   7
HETATM    7  O   UNK N   1      25.913  23.892  -5.912  0.00  0.00    -0.348 OA
BRANCH   7   8
HETATM    8  C   UNK N   1      26.647  23.682  -7.066  0.00  0.00     0.209 C 
BRANCH   8   9
HETATM    9  C   UNK N   1      26.021  22.614  -7.971  0.00  0.00     0.159 C 
BRANCH   9  10
HETATM   10  C   UNK N   1      26.845  21.327  -7.954  0.00  0.00     0.148 C 
BRANCH  10  11
HETATM   11  N   UNK N   1      28.142  21.470  -8.624  0.00  0.00    -0.411 N 
HETATM   12  H   UNK N   1      28.259  22.011  -9.481  0.00  0.00     0.154 HD
BRANCH  11  13
HETATM   13  C   UNK N   1      29.259  20.774  -7.969  0.00  0.00     0.014 C 
HETATM   14  C   UNK N   1      29.435  21.365  -6.586  0.00  0.00     0.037 C 
HETATM   15  C   UNK N   1      29.017  19.278  -7.806  0.00  0.00     0.037 C 
HETATM   16  C   UNK N   1      30.548  21.012  -8.733  0.00  0.00     0.037 C 
ENDBRANCH  11  13
ENDBRANCH  10  11
ENDBRANCH   9  10
BRANCH   9  17
HETATM   17  O   UNK N   1      24.717  22.350  -7.551  0.00  0.00    -0.392 OA
HETATM   18  H   UNK N   1      23.991  21.768  -7.823  0.00  0.00     0.210 HD
ENDBRANCH   9  17
ENDBRANCH   8   9
ENDBRANCH   7   8
ENDBRANCH   1   7
BRANCH   2  19
HETATM   19  C   UNK N   1      27.380  24.223  -3.353  0.00  0.00     0.158 C 
HETATM   20  C   UNK N   1      28.748  23.852  -3.832  0.00  0.00     0.097 C 
HETATM   21  O   UNK N   1      26.934  23.657  -2.369  0.00  0.00    -0.293 OA
ENDBRANCH   2  19
BRANCH   5  22
HETATM   22  N   UNK N   1      25.773  28.878  -3.430  0.00  0.00    -0.309 N 
HETATM   23  C   UNK N   1      26.522  29.957  -3.809  0.00  0.00     0.322 C 
HETATM   24  N   UNK N   1      27.693  29.851  -4.529  0.00  0.00    -0.335 N 
HETATM   25  O   UNK N   1      26.146  31.062  -3.448  0.00  0.00    -0.247 OA
HETATM   26  H   UNK N   1      25.165  29.009  -2.667  0.00  0.00     0.170 HD
BRANCH  24  27
HETATM   27  C   UNK N   1      28.410  31.062  -4.880  0.00  0.00     0.123 C 
HETATM   28  C   UNK N   1      28.983  30.960  -6.283  0.00  0.00     0.026 C 
ENDBRANCH  24  27
BRANCH  24  29
HETATM   29  C   UNK N   1      28.353  28.578  -4.759  0.00  0.00     0.123 C 
HETATM   30  C   UNK N   1      29.531  28.357  -3.823  0.00  0.00     0.026 C 
ENDBRANCH  24  29
ENDBRANCH   5  22
TORSDOF 11
ENDMDL
MODEL 9
REMARK VINA RESULT:      -5.9      2.960      8.483
REMARK  11 active torsions:
REMARK  status: ('A' for Active; 'I' for Inactive)
REMARK    1  A    between atoms: C_1  and  O_4 
REMARK    2  A    between atoms: C_2  and  C_5 
REMARK    3  A    between atoms: O_4  and  C_7 
REMARK    4  A    between atoms: C_7  and  C_11 
REMARK    5  A    between atoms: C_8  and  N_12 
REMARK    6  A    between atoms: C_11  and  C_13 
REMARK    7  A    between atoms: C_11  and  O_14 
REMARK       I    between atoms: N_12  and  C_15 
REMARK    8  A    between atoms: C_13  and  N_16 
REMARK       I    between atoms: C_15  and  N_17 
REMARK    9  A    between atoms: N_16  and  C_19 
REMARK   10  A    between atoms: N_17  and  C_20 
REMARK   11  A    between atoms: N_17  and  C_23 
ROOT
HETATM    1  C   UNK N   1      29.936  16.947   6.678  0.00  0.00     0.082 A 
HETATM    2  C   UNK N   1      31.224  16.828   6.092  0.00  0.00     0.045 A 
HETATM    3  C   UNK N   1      29.816  17.360   8.011  0.00  0.00     0.040 A 
HETATM    4  C   UNK N   1      30.943  17.672   8.768  0.00  0.00     0.032 A 
HETATM    5  C   UNK N   1      32.212  17.538   8.212  0.00  0.00     0.037 A 
HETATM    6  C   UNK N   1      32.344  17.139   6.876  0.00  0.00     0.047 A 
ENDROOT
BRANCH   1   7
HETATM    7  O   UNK N   1      28.801  16.684   5.995  0.00  0.00    -0.348 OA
BRANCH   7   8
HETATM    8  C   UNK N   1      27.588  17.277   6.300  0.00  0.00     0.209 C 
BRANCH   8   9
HETATM    9  C   UNK N   1      27.074  18.173   5.167  0.00  0.00     0.159 C 
BRANCH   9  10
HETATM   10  C   UNK N   1      26.700  17.346   3.938  0.00  0.00     0.148 C 
BRANCH  10  11
HETATM   11  N   UNK N   1      27.848  16.653   3.344  0.00  0.00    -0.411 N 
HETATM   12  H   UNK N   1      28.784  17.060   3.326  0.00  0.00     0.154 HD
BRANCH  11  13
HETATM   13  C   UNK N   1      27.550  15.329   2.778  0.00  0.00     0.014 C 
HETATM   14  C   UNK N   1      26.342  15.464   1.876  0.00  0.00     0.037 C 
HETATM   15  C   UNK N   1      28.694  14.770   1.938  0.00  0.00     0.037 C 
HETATM   16  C   UNK N   1      27.190  14.354   3.882  0.00  0.00     0.037 C 
ENDBRANCH  11  13
ENDBRANCH  10  11
ENDBRANCH   9  10
BRANCH   9  17
HETATM   17  O   UNK N   1      25.965  18.896   5.610  0.00  0.00    -0.392 OA
HETATM   18  H   UNK N   1      25.796  19.621   6.232  0.00  0.00     0.210 HD
ENDBRANCH   9  17
ENDBRANCH   8   9
ENDBRANCH   7   8
ENDBRANCH   1   7
BRANCH   2  19
HETATM   19  C   UNK N   1      31.449  16.359   4.694  0.00  0.00     0.158 C 
HETATM   20  C   UNK N   1      31.965  17.301   3.652  0.00  0.00     0.097 C 
HETATM   21  O   UNK N   1      31.247  15.198   4.380  0.00  0.00    -0.293 OA
ENDBRANCH   2  19
BRANCH   5  22
HETATM   22  N   UNK N   1      33.354  17.897   8.968  0.00  0.00    -0.309 N 
HETATM   23  C   UNK N   1      34.318  17.053   9.448  0.00  0.00     0.322 C 
HETATM   24  N   UNK N   1      34.113  15.704   9.643  0.00  0.00    -0.335 N 
HETATM   25  O   UNK N   1      35.395  17.541   9.755  0.00  0.00    -0.247 OA
HETATM   26  H   UNK N   1      33.467  18.854   9.169  0.00  0.00     0.170 HD
BRANCH  24  27
HETATM   27  C   UNK N   1      35.205  14.899  10.157  0.00  0.00     0.123 C 
HETATM   28  C   UNK N   1      34.968  14.541  11.614  0.00  0.00     0.026 C 
ENDBRANCH  24  27
BRANCH  24  29
HETATM   29  C   UNK N   1      32.796  15.097   9.569  0.00  0.00     0.123 C 
HETATM   30  C   UNK N   1      32.766  13.885   8.650  0.00  0.00     0.026 C 
ENDBRANCH  24  29
ENDBRANCH   5  22
TORSDOF 11
ENDMDL
