MODEL 1
REMARK VINA RESULT:      -7.0      0.000      0.000
REMARK  2 active torsions:
REMARK  status: ('A' for Active; 'I' for Inactive)
REMARK    1  A    between atoms: O_2  and  C_3 
REMARK    2  A    between atoms: C_23  and  O_24 
ROOT
HETATM    1  C   UNK N   1      35.508  11.328  19.143  0.00  0.00     0.102 A 
HETATM    2  C   UNK N   1      35.130  12.667  18.968  0.00  0.00     0.040 A 
HETATM    3  C   UNK N   1      35.138  13.283  17.729  0.00  0.00     0.015 A 
HETATM    4  C   UNK N   1      35.526  12.571  16.611  0.00  0.00    -0.019 A 
HETATM    5  C   UNK N   1      35.526  13.190  15.375  0.00  0.00     0.043 A 
HETATM    6  C   UNK N   1      35.912  12.478  14.233  0.00  0.00     0.046 A 
HETATM    7  C   UNK N   1      35.902  13.163  12.939  0.00  0.00    -0.000 A 
HETATM    8  C   UNK N   1      35.515  14.519  12.865  0.00  0.00     0.054 A 
HETATM    9  C   UNK N   1      35.522  15.129  11.624  0.00  0.00     0.105 A 
HETATM   10  C   UNK N   1      35.878  14.481  10.513  0.00  0.00     0.105 A 
HETATM   11  O   UNK N   1      35.792  15.314   9.478  0.00  0.00    -0.323 OA
HETATM   12  C   UNK N   1      35.359  16.559   9.947  0.00  0.00     0.352 A 
HETATM   13  O   UNK N   1      35.201  16.384  11.325  0.00  0.00    -0.323 OA
HETATM   14  C   UNK N   1      36.268  13.142  10.524  0.00  0.00     0.047 A 
HETATM   15  C   UNK N   1      36.280  12.472  11.765  0.00  0.00    -0.041 A 
HETATM   16  C   UNK N   1      36.695  11.036  11.808  0.00  0.00     0.060 A 
HETATM   17  C   UNK N   1      36.707  10.355  13.186  0.00  0.00     0.133 A 
HETATM   18  N   UNK N   1      36.291  11.166  14.338  0.00  0.00    -0.355 N 
HETATM   19  C   UNK N   1      36.296  10.548  15.553  0.00  0.00     0.106 A 
HETATM   20  C   UNK N   1      35.915  11.230  16.721  0.00  0.00     0.026 A 
HETATM   21  C   UNK N   1      35.921  10.568  17.971  0.00  0.00     0.114 A 
ENDROOT
BRANCH   1  22
HETATM   22  O   UNK N   1      35.433  10.910  20.437  0.00  0.00    -0.353 OA
HETATM   23  C   UNK N   1      34.620  10.001  21.052  0.00  0.00     0.210 C 
ENDBRANCH   1  22
BRANCH  21  24
HETATM   24  O   UNK N   1      36.322   9.262  17.921  0.00  0.00    -0.352 OA
HETATM   25  C   UNK N   1      37.238   8.554  18.645  0.00  0.00     0.210 C 
ENDBRANCH  21  24
TORSDOF 2
ENDMDL
MODEL 2
REMARK VINA RESULT:      -7.0      9.860     13.714
REMARK  2 active torsions:
REMARK  status: ('A' for Active; 'I' for Inactive)
REMARK    1  A    between atoms: O_2  and  C_3 
REMARK    2  A    between atoms: C_23  and  O_24 
ROOT
HETATM    1  C   UNK N   1      24.664  15.107   5.113  0.00  0.00     0.102 A 
HETATM    2  C   UNK N   1      25.054  15.344   6.438  0.00  0.00     0.040 A 
HETATM    3  C   UNK N   1      26.342  15.724   6.775  0.00  0.00     0.015 A 
HETATM    4  C   UNK N   1      27.292  15.883   5.784  0.00  0.00    -0.019 A 
HETATM    5  C   UNK N   1      28.574  16.268   6.126  0.00  0.00     0.043 A 
HETATM    6  C   UNK N   1      29.545  16.439   5.132  0.00  0.00     0.046 A 
HETATM    7  C   UNK N   1      30.894  16.847   5.527  0.00  0.00    -0.000 A 
HETATM    8  C   UNK N   1      31.194  17.052   6.892  0.00  0.00     0.054 A 
HETATM    9  C   UNK N   1      32.481  17.434   7.222  0.00  0.00     0.105 A 
HETATM   10  C   UNK N   1      33.431  17.612   6.302  0.00  0.00     0.105 A 
HETATM   11  O   UNK N   1      34.561  17.972   6.907  0.00  0.00    -0.323 OA
HETATM   12  C   UNK N   1      34.326  18.030   8.286  0.00  0.00     0.352 A 
HETATM   13  O   UNK N   1      32.981  17.677   8.431  0.00  0.00    -0.323 OA
HETATM   14  C   UNK N   1      33.193  17.425   4.941  0.00  0.00     0.047 A 
HETATM   15  C   UNK N   1      31.897  17.034   4.548  0.00  0.00    -0.041 A 
HETATM   16  C   UNK N   1      31.613  16.825   3.095  0.00  0.00     0.060 A 
HETATM   17  C   UNK N   1      30.189  16.383   2.720  0.00  0.00     0.133 A 
HETATM   18  N   UNK N   1      29.225  16.224   3.817  0.00  0.00    -0.355 N 
HETATM   19  C   UNK N   1      27.963  15.842   3.471  0.00  0.00     0.106 A 
HETATM   20  C   UNK N   1      26.963  15.661   4.441  0.00  0.00     0.026 A 
HETATM   21  C   UNK N   1      25.658  15.270   4.060  0.00  0.00     0.114 A 
ENDROOT
BRANCH   1  22
HETATM   22  O   UNK N   1      23.357  14.742   4.991  0.00  0.00    -0.353 OA
HETATM   23  C   UNK N   1      22.257  15.433   4.570  0.00  0.00     0.210 C 
ENDBRANCH   1  22
BRANCH  21  24
HETATM   24  O   UNK N   1      25.488  15.091   2.716  0.00  0.00    -0.352 OA
HETATM   25  C   UNK N   1      25.052  14.029   1.977  0.00  0.00     0.210 C 
ENDBRANCH  21  24
TORSDOF 2
ENDMDL
MODEL 3
REMARK VINA RESULT:      -6.8      1.739      7.809
REMARK  2 active torsions:
REMARK  status: ('A' for Active; 'I' for Inactive)
REMARK    1  A    between atoms: O_2  and  C_3 
REMARK    2  A    between atoms: C_23  and  O_24 
ROOT
HETATM    1  C   UNK N   1      35.296  14.990   9.322  0.00  0.00     0.102 A 
HETATM    2  C   UNK N   1      35.415  15.906  10.376  0.00  0.00     0.040 A 
HETATM    3  C   UNK N   1      35.402  15.515  11.704  0.00  0.00     0.015 A 
HETATM    4  C   UNK N   1      35.270  14.178  12.023  0.00  0.00    -0.019 A 
HETATM    5  C   UNK N   1      35.263  13.792  13.350  0.00  0.00     0.043 A 
HETATM    6  C   UNK N   1      35.136  12.440  13.689  0.00  0.00     0.046 A 
HETATM    7  C   UNK N   1      35.132  12.065  15.104  0.00  0.00    -0.000 A 
HETATM    8  C   UNK N   1      35.246  13.063  16.095  0.00  0.00     0.054 A 
HETATM    9  C   UNK N   1      35.236  12.666  17.420  0.00  0.00     0.105 A 
HETATM   10  C   UNK N   1      35.122  11.386  17.780  0.00  0.00     0.105 A 
HETATM   11  O   UNK N   1      35.138  11.306  19.109  0.00  0.00    -0.323 OA
HETATM   12  C   UNK N   1      35.268  12.598  19.629  0.00  0.00     0.352 A 
HETATM   13  O   UNK N   1      35.327  13.429  18.506  0.00  0.00    -0.323 OA
HETATM   14  C   UNK N   1      35.007  10.358  16.846  0.00  0.00     0.047 A 
HETATM   15  C   UNK N   1      35.011  10.707  15.480  0.00  0.00    -0.041 A 
HETATM   16  C   UNK N   1      34.887   9.625  14.455  0.00  0.00     0.060 A 
HETATM   17  C   UNK N   1      34.882  10.059  12.981  0.00  0.00     0.133 A 
HETATM   18  N   UNK N   1      35.018  11.495  12.704  0.00  0.00    -0.355 N 
HETATM   19  C   UNK N   1      35.021  11.866  11.392  0.00  0.00     0.106 A 
HETATM   20  C   UNK N   1      35.147  13.213  11.015  0.00  0.00     0.026 A 
HETATM   21  C   UNK N   1      35.155  13.577   9.648  0.00  0.00     0.114 A 
ENDROOT
BRANCH   1  22
HETATM   22  O   UNK N   1      35.330  15.573   8.091  0.00  0.00    -0.353 OA
HETATM   23  C   UNK N   1      34.342  15.852   7.191  0.00  0.00     0.210 C 
ENDBRANCH   1  22
BRANCH  21  24
HETATM   24  O   UNK N   1      35.027  12.529   8.780  0.00  0.00    -0.352 OA
HETATM   25  C   UNK N   1      34.018  12.144   7.944  0.00  0.00     0.210 C 
ENDBRANCH  21  24
TORSDOF 2
ENDMDL
MODEL 4
REMARK VINA RESULT:      -6.8      1.901      8.317
REMARK  2 active torsions:
REMARK  status: ('A' for Active; 'I' for Inactive)
REMARK    1  A    between atoms: O_2  and  C_3 
REMARK    2  A    between atoms: C_23  and  O_24 
ROOT
HETATM    1  C   UNK N   1      34.728  11.850  11.523  0.00  0.00     0.102 A 
HETATM    2  C   UNK N   1      34.561  10.484  11.788  0.00  0.00     0.040 A 
HETATM    3  C   UNK N   1      34.570   9.971  13.073  0.00  0.00     0.015 A 
HETATM    4  C   UNK N   1      34.747  10.819  14.149  0.00  0.00    -0.019 A 
HETATM    5  C   UNK N   1      34.749  10.302  15.431  0.00  0.00     0.043 A 
HETATM    6  C   UNK N   1      34.921  11.151  16.530  0.00  0.00     0.046 A 
HETATM    7  C   UNK N   1      34.919  10.572  17.875  0.00  0.00    -0.000 A 
HETATM    8  C   UNK N   1      34.754   9.180  18.039  0.00  0.00     0.054 A 
HETATM    9  C   UNK N   1      34.761   8.673  19.326  0.00  0.00     0.105 A 
HETATM   10  C   UNK N   1      34.917   9.452  20.398  0.00  0.00     0.105 A 
HETATM   11  O   UNK N   1      34.886   8.695  21.493  0.00  0.00    -0.323 OA
HETATM   12  C   UNK N   1      34.700   7.363  21.106  0.00  0.00     0.352 A 
HETATM   13  O   UNK N   1      34.627   7.407  19.710  0.00  0.00    -0.323 OA
HETATM   14  C   UNK N   1      35.083  10.832  20.298  0.00  0.00     0.047 A 
HETATM   15  C   UNK N   1      35.085  11.402  19.008  0.00  0.00    -0.041 A 
HETATM   16  C   UNK N   1      35.263  12.880  18.869  0.00  0.00     0.060 A 
HETATM   17  C   UNK N   1      35.274  13.449  17.441  0.00  0.00     0.133 A 
HETATM   18  N   UNK N   1      35.088  12.497  16.338  0.00  0.00    -0.355 N 
HETATM   19  C   UNK N   1      35.089  13.016  15.077  0.00  0.00     0.106 A 
HETATM   20  C   UNK N   1      34.919  12.195  13.950  0.00  0.00     0.026 A 
HETATM   21  C   UNK N   1      34.917  12.754  12.650  0.00  0.00     0.114 A 
ENDROOT
BRANCH   1  22
HETATM   22  O   UNK N   1      34.690  12.153  10.196  0.00  0.00    -0.353 OA
HETATM   23  C   UNK N   1      33.880  12.986   9.478  0.00  0.00     0.210 C 
ENDBRANCH   1  22
BRANCH  21  24
HETATM   24  O   UNK N   1      35.095  14.109  12.614  0.00  0.00    -0.352 OA
HETATM   25  C   UNK N   1      35.999  14.900  11.965  0.00  0.00     0.210 C 
ENDBRANCH  21  24
TORSDOF 2
ENDMDL
MODEL 5
REMARK VINA RESULT:      -6.8      6.208     11.428
REMARK  2 active torsions:
REMARK  status: ('A' for Active; 'I' for Inactive)
REMARK    1  A    between atoms: O_2  and  C_3 
REMARK    2  A    between atoms: C_23  and  O_24 
ROOT
HETATM    1  C   UNK N   1      28.087  18.969   6.823  0.00  0.00     0.102 A 
HETATM    2  C   UNK N   1      28.346  19.031   8.199  0.00  0.00     0.040 A 
HETATM    3  C   UNK N   1      29.340  18.280   8.801  0.00  0.00     0.015 A 
HETATM    4  C   UNK N   1      30.117  17.432   8.036  0.00  0.00    -0.019 A 
HETATM    5  C   UNK N   1      31.112  16.688   8.643  0.00  0.00     0.043 A 
HETATM    6  C   UNK N   1      31.911  15.829   7.879  0.00  0.00     0.046 A 
HETATM    7  C   UNK N   1      32.956  15.055   8.551  0.00  0.00    -0.000 A 
HETATM    8  C   UNK N   1      33.133  15.178   9.946  0.00  0.00     0.054 A 
HETATM    9  C   UNK N   1      34.129  14.427  10.543  0.00  0.00     0.105 A 
HETATM   10  C   UNK N   1      34.914  13.602   9.846  0.00  0.00     0.105 A 
HETATM   11  O   UNK N   1      35.772  13.014  10.677  0.00  0.00    -0.323 OA
HETATM   12  C   UNK N   1      35.527  13.483  11.972  0.00  0.00     0.352 A 
HETATM   13  O   UNK N   1      34.467  14.384  11.828  0.00  0.00    -0.323 OA
HETATM   14  C   UNK N   1      34.786  13.440   8.467  0.00  0.00     0.047 A 
HETATM   15  C   UNK N   1      33.785  14.183   7.808  0.00  0.00    -0.041 A 
HETATM   16  C   UNK N   1      33.623  14.028   6.330  0.00  0.00     0.060 A 
HETATM   17  C   UNK N   1      32.507  14.847   5.662  0.00  0.00     0.133 A 
HETATM   18  N   UNK N   1      31.709  15.724   6.528  0.00  0.00    -0.355 N 
HETATM   19  C   UNK N   1      30.729  16.453   5.922  0.00  0.00     0.106 A 
HETATM   20  C   UNK N   1      29.908  17.325   6.656  0.00  0.00     0.026 A 
HETATM   21  C   UNK N   1      28.900  18.077   6.007  0.00  0.00     0.114 A 
ENDROOT
BRANCH   1  22
HETATM   22  O   UNK N   1      27.070  19.783   6.426  0.00  0.00    -0.353 OA
HETATM   23  C   UNK N   1      27.068  20.967   5.746  0.00  0.00     0.210 C 
ENDBRANCH   1  22
BRANCH  21  24
HETATM   24  O   UNK N   1      28.815  17.868   4.658  0.00  0.00    -0.352 OA
HETATM   25  C   UNK N   1      27.772  17.532   3.844  0.00  0.00     0.210 C 
ENDBRANCH  21  24
TORSDOF 2
ENDMDL
MODEL 6
REMARK VINA RESULT:      -6.8     14.314     18.085
REMARK  2 active torsions:
REMARK  status: ('A' for Active; 'I' for Inactive)
REMARK    1  A    between atoms: O_2  and  C_3 
REMARK    2  A    between atoms: C_23  and  O_24 
ROOT
HETATM    1  C   UNK N   1      23.695  18.998   3.603  0.00  0.00     0.102 A 
HETATM    2  C   UNK N   1      24.663  18.019   3.865  0.00  0.00     0.040 A 
HETATM    3  C   UNK N   1      24.480  17.031   4.817  0.00  0.00     0.015 A 
HETATM    4  C   UNK N   1      23.306  16.989   5.544  0.00  0.00    -0.019 A 
HETATM    5  C   UNK N   1      23.126  15.996   6.489  0.00  0.00     0.043 A 
HETATM    6  C   UNK N   1      21.939  15.937   7.228  0.00  0.00     0.046 A 
HETATM    7  C   UNK N   1      21.780  14.874   8.222  0.00  0.00    -0.000 A 
HETATM    8  C   UNK N   1      22.819  13.939   8.422  0.00  0.00     0.054 A 
HETATM    9  C   UNK N   1      22.629  12.952   9.372  0.00  0.00     0.105 A 
HETATM   10  C   UNK N   1      21.509  12.861  10.092  0.00  0.00     0.105 A 
HETATM   11  O   UNK N   1      21.609  11.825  10.922  0.00  0.00    -0.323 OA
HETATM   12  C   UNK N   1      22.855  11.219  10.726  0.00  0.00     0.352 A 
HETATM   13  O   UNK N   1      23.465  11.980   9.724  0.00  0.00    -0.323 OA
HETATM   14  C   UNK N   1      20.450  13.755   9.938  0.00  0.00     0.047 A 
HETATM   15  C   UNK N   1      20.591  14.783   8.982  0.00  0.00    -0.041 A 
HETATM   16  C   UNK N   1      19.472  15.757   8.796  0.00  0.00     0.060 A 
HETATM   17  C   UNK N   1      19.682  16.867   7.754  0.00  0.00     0.133 A 
HETATM   18  N   UNK N   1      20.953  16.865   7.018  0.00  0.00    -0.355 N 
HETATM   19  C   UNK N   1      21.122  17.848   6.089  0.00  0.00     0.106 A 
HETATM   20  C   UNK N   1      22.300  17.939   5.328  0.00  0.00     0.026 A 
HETATM   21  C   UNK N   1      22.453  18.964   4.365  0.00  0.00     0.114 A 
ENDROOT
BRANCH   1  22
HETATM   22  O   UNK N   1      24.065  19.880   2.633  0.00  0.00    -0.353 OA
HETATM   23  C   UNK N   1      25.205  20.611   2.458  0.00  0.00     0.210 C 
ENDBRANCH   1  22
BRANCH  21  24
HETATM   24  O   UNK N   1      21.389  19.815   4.266  0.00  0.00    -0.352 OA
HETATM   25  C   UNK N   1      20.619  20.207   3.209  0.00  0.00     0.210 C 
ENDBRANCH  21  24
TORSDOF 2
ENDMDL
MODEL 7
REMARK VINA RESULT:      -6.7     11.982     16.250
REMARK  2 active torsions:
REMARK  status: ('A' for Active; 'I' for Inactive)
REMARK    1  A    between atoms: O_2  and  C_3 
REMARK    2  A    between atoms: C_23  and  O_24 
ROOT
HETATM    1  C   UNK N   1      22.989  19.965   3.231  0.00  0.00     0.102 A 
HETATM    2  C   UNK N   1      24.131  20.731   2.960  0.00  0.00     0.040 A 
HETATM    3  C   UNK N   1      25.412  20.263   3.197  0.00  0.00     0.015 A 
HETATM    4  C   UNK N   1      25.593  18.996   3.719  0.00  0.00    -0.019 A 
HETATM    5  C   UNK N   1      26.874  18.532   3.949  0.00  0.00     0.043 A 
HETATM    6  C   UNK N   1      27.073  17.249   4.471  0.00  0.00     0.046 A 
HETATM    7  C   UNK N   1      28.442  16.786   4.703  0.00  0.00    -0.000 A 
HETATM    8  C   UNK N   1      29.530  17.637   4.408  0.00  0.00     0.054 A 
HETATM    9  C   UNK N   1      30.807  17.163   4.645  0.00  0.00     0.105 A 
HETATM   10  C   UNK N   1      31.036  15.943   5.137  0.00  0.00     0.105 A 
HETATM   11  O   UNK N   1      32.349  15.764   5.261  0.00  0.00    -0.323 OA
HETATM   12  C   UNK N   1      32.998  16.926   4.828  0.00  0.00     0.352 A 
HETATM   13  O   UNK N   1      31.964  17.787   4.445  0.00  0.00    -0.323 OA
HETATM   14  C   UNK N   1      30.003  15.060   5.446  0.00  0.00     0.047 A 
HETATM   15  C   UNK N   1      28.679  15.493   5.225  0.00  0.00    -0.041 A 
HETATM   16  C   UNK N   1      27.550  14.568   5.549  0.00  0.00     0.060 A 
HETATM   17  C   UNK N   1      26.126  15.093   5.305  0.00  0.00     0.133 A 
HETATM   18  N   UNK N   1      25.997  16.449   4.756  0.00  0.00    -0.355 N 
HETATM   19  C   UNK N   1      24.730  16.900   4.534  0.00  0.00     0.106 A 
HETATM   20  C   UNK N   1      24.492  18.182   4.011  0.00  0.00     0.026 A 
HETATM   21  C   UNK N   1      23.169  18.628   3.783  0.00  0.00     0.114 A 
ENDROOT
BRANCH   1  22
HETATM   22  O   UNK N   1      21.824  20.604   2.929  0.00  0.00    -0.353 OA
HETATM   23  C   UNK N   1      21.049  20.595   1.806  0.00  0.00     0.210 C 
ENDBRANCH   1  22
BRANCH  21  24
HETATM   24  O   UNK N   1      22.198  17.725   4.115  0.00  0.00    -0.352 OA
HETATM   25  C   UNK N   1      21.186  17.156   3.397  0.00  0.00     0.210 C 
ENDBRANCH  21  24
TORSDOF 2
ENDMDL
MODEL 8
REMARK VINA RESULT:      -6.7      5.038     10.634
REMARK  2 active torsions:
REMARK  status: ('A' for Active; 'I' for Inactive)
REMARK    1  A    between atoms: O_2  and  C_3 
REMARK    2  A    between atoms: C_23  and  O_24 
ROOT
HETATM    1  C   UNK N   1      29.825  17.587   5.981  0.00  0.00     0.102 A 
HETATM    2  C   UNK N   1      29.542  17.562   7.353  0.00  0.00     0.040 A 
HETATM    3  C   UNK N   1      30.412  17.015   8.280  0.00  0.00     0.015 A 
HETATM    4  C   UNK N   1      31.610  16.472   7.859  0.00  0.00    -0.019 A 
HETATM    5  C   UNK N   1      32.478  15.932   8.790  0.00  0.00     0.043 A 
HETATM    6  C   UNK N   1      33.698  15.384   8.377  0.00  0.00     0.046 A 
HETATM    7  C   UNK N   1      34.595  14.820   9.388  0.00  0.00    -0.000 A 
HETATM    8  C   UNK N   1      34.215  14.831  10.748  0.00  0.00     0.054 A 
HETATM    9  C   UNK N   1      35.090  14.286  11.670  0.00  0.00     0.105 A 
HETATM   10  C   UNK N   1      36.264  13.759  11.314  0.00  0.00     0.105 A 
HETATM   11  O   UNK N   1      36.886  13.312  12.403  0.00  0.00    -0.323 OA
HETATM   12  C   UNK N   1      36.073  13.564  13.514  0.00  0.00     0.352 A 
HETATM   13  O   UNK N   1      34.938  14.188  12.987  0.00  0.00    -0.323 OA
HETATM   14  C   UNK N   1      36.692  13.721   9.988  0.00  0.00     0.047 A 
HETATM   15  C   UNK N   1      35.837  14.263   9.006  0.00  0.00    -0.041 A 
HETATM   16  C   UNK N   1      36.269  14.235   7.575  0.00  0.00     0.060 A 
HETATM   17  C   UNK N   1      35.295  14.823   6.542  0.00  0.00     0.133 A 
HETATM   18  N   UNK N   1      34.035  15.380   7.049  0.00  0.00    -0.355 N 
HETATM   19  C   UNK N   1      33.184  15.908   6.124  0.00  0.00     0.106 A 
HETATM   20  C   UNK N   1      31.951  16.467   6.500  0.00  0.00     0.026 A 
HETATM   21  C   UNK N   1      31.085  17.016   5.525  0.00  0.00     0.114 A 
ENDROOT
BRANCH   1  22
HETATM   22  O   UNK N   1      28.843  18.166   5.236  0.00  0.00    -0.353 OA
HETATM   23  C   UNK N   1      27.822  19.008   5.575  0.00  0.00     0.210 C 
ENDBRANCH   1  22
BRANCH  21  24
HETATM   24  O   UNK N   1      31.553  16.940   4.243  0.00  0.00    -0.352 OA
HETATM   25  C   UNK N   1      31.014  16.431   3.096  0.00  0.00     0.210 C 
ENDBRANCH  21  24
TORSDOF 2
ENDMDL
MODEL 9
REMARK VINA RESULT:      -6.7      1.563      8.270
REMARK  2 active torsions:
REMARK  status: ('A' for Active; 'I' for Inactive)
REMARK    1  A    between atoms: O_2  and  C_3 
REMARK    2  A    between atoms: C_23  and  O_24 
ROOT
HETATM    1  C   UNK N   1      37.250  12.624  11.819  0.00  0.00     0.102 A 
HETATM    2  C   UNK N   1      37.522  11.272  12.067  0.00  0.00     0.040 A 
HETATM    3  C   UNK N   1      37.304  10.686  13.301  0.00  0.00     0.015 A 
HETATM    4  C   UNK N   1      36.799  11.443  14.340  0.00  0.00    -0.019 A 
HETATM    5  C   UNK N   1      36.579  10.851  15.570  0.00  0.00     0.043 A 
HETATM    6  C   UNK N   1      36.061  11.605  16.629  0.00  0.00     0.046 A 
HETATM    7  C   UNK N   1      35.840  10.949  17.919  0.00  0.00    -0.000 A 
HETATM    8  C   UNK N   1      36.156   9.582  18.074  0.00  0.00     0.054 A 
HETATM    9  C   UNK N   1      35.934   9.000  19.309  0.00  0.00     0.105 A 
HETATM   10  C   UNK N   1      35.437   9.686  20.341  0.00  0.00     0.105 A 
HETATM   11  O   UNK N   1      35.335   8.876  21.393  0.00  0.00    -0.323 OA
HETATM   12  C   UNK N   1      35.789   7.606  21.019  0.00  0.00     0.352 A 
HETATM   13  O   UNK N   1      36.159   7.742  19.677  0.00  0.00    -0.323 OA
HETATM   14  C   UNK N   1      35.105  11.037  20.247  0.00  0.00     0.047 A 
HETATM   15  C   UNK N   1      35.313  11.680  19.009  0.00  0.00    -0.041 A 
HETATM   16  C   UNK N   1      34.968  13.129  18.879  0.00  0.00     0.060 A 
HETATM   17  C   UNK N   1      35.228  13.786  17.514  0.00  0.00     0.133 A 
HETATM   18  N   UNK N   1      35.773  12.933  16.451  0.00  0.00    -0.355 N 
HETATM   19  C   UNK N   1      35.989  13.525  15.242  0.00  0.00     0.106 A 
HETATM   20  C   UNK N   1      36.507  12.800  14.156  0.00  0.00     0.026 A 
HETATM   21  C   UNK N   1      36.718  13.433  12.908  0.00  0.00     0.114 A 
ENDROOT
BRANCH   1  22
HETATM   22  O   UNK N   1      37.533  13.009  10.543  0.00  0.00    -0.353 OA
HETATM   23  C   UNK N   1      38.715  13.289   9.920  0.00  0.00     0.210 C 
ENDBRANCH   1  22
BRANCH  21  24
HETATM   24  O   UNK N   1      36.386  14.759  12.879  0.00  0.00    -0.352 OA
HETATM   25  C   UNK N   1      35.648  15.503  12.004  0.00  0.00     0.210 C 
ENDBRANCH  21  24
TORSDOF 2
ENDMDL
