MODEL 1
REMARK VINA RESULT:      -5.4      0.000      0.000
REMARK  5 active torsions:
REMARK  status: ('A' for Active; 'I' for Inactive)
REMARK    1  A    between atoms: C_7  and  C_3 
REMARK    2  A    between atoms: O_14  and  C_3 
REMARK    3  A    between atoms: N_9  and  C_5 
REMARK    4  A    between atoms: C_6  and  N_13 
REMARK    5  A    between atoms: O_15  and  C_8 
ROOT
HETATM    1  C   UNK N   1      21.795  20.345   2.373  0.00  0.00     0.065 A 
HETATM    2  C   UNK N   1      22.005  19.389   3.363  0.00  0.00     0.101 A 
HETATM    3  C   UNK N   1      20.597  20.322   1.669  0.00  0.00     0.102 A 
HETATM    4  C   UNK N   1      19.884  18.441   2.914  0.00  0.00     0.227 A 
HETATM    5  N   UNK N   1      19.669  19.373   1.947  0.00  0.00    -0.308 N 
ATOM      6  HN  UNK N   1      18.794  19.358   1.423  1.00  0.00     0.171 HD
HETATM    7  N   UNK N   1      21.053  18.447   3.631  0.00  0.00    -0.294 N 
ENDROOT
BRANCH   7   8
HETATM    8  C   UNK N   1      21.261  17.480   4.723  0.00  0.00     0.258 C 
HETATM    9  C   UNK N   1      22.481  17.782   5.536  0.00  0.00     0.225 C 
HETATM   10  O   UNK N   1      22.241  17.176   6.774  0.00  0.00    -0.355 OA
HETATM   11  C   UNK N   1      20.851  16.922   6.792  0.00  0.00     0.286 C 
HETATM   12  O   UNK N   1      20.237  17.502   5.666  0.00  0.00    -0.332 OA
BRANCH  11  13
HETATM   13  C   UNK N   1      20.233  17.490   8.059  0.00  0.00     0.224 C 
BRANCH  13  14
HETATM   14  O   UNK N   1      20.390  18.876   8.085  0.00  0.00    -0.396 OA
HETATM   15  H   UNK N   1      19.817  19.445   7.547  0.00  0.00     0.209 HD
ENDBRANCH  13  14
ENDBRANCH  11  13
ENDBRANCH   7   8
BRANCH   4  16
HETATM   16  O   UNK N   1      18.927  17.531   3.172  0.00  0.00    -0.332 OA
HETATM   17  H   UNK N   1      18.548  17.478   4.027  0.00  0.00     0.221 HD
ENDBRANCH   4  16
BRANCH   3  18
HETATM   18  N   UNK N   1      20.366  21.199   0.768  0.00  0.00    -0.385 N 
HETATM   19  H   UNK N   1      21.019  21.915   0.595  0.00  0.00     0.157 HD
ATOM     20  HN  UNK N   1      19.502  21.157   0.228  1.00  0.00     0.157 HD
ENDBRANCH   3  18
TORSDOF 5
ENDMDL
MODEL 2
REMARK VINA RESULT:      -5.1     13.208     15.328
REMARK  5 active torsions:
REMARK  status: ('A' for Active; 'I' for Inactive)
REMARK    1  A    between atoms: C_7  and  C_3 
REMARK    2  A    between atoms: O_14  and  C_3 
REMARK    3  A    between atoms: N_9  and  C_5 
REMARK    4  A    between atoms: C_6  and  N_13 
REMARK    5  A    between atoms: O_15  and  C_8 
ROOT
HETATM    1  C   UNK N   1      35.043  13.926  11.723  0.00  0.00     0.065 A 
HETATM    2  C   UNK N   1      34.314  14.326  10.605  0.00  0.00     0.101 A 
HETATM    3  C   UNK N   1      35.961  14.814  12.270  0.00  0.00     0.102 A 
HETATM    4  C   UNK N   1      35.425  16.416  10.614  0.00  0.00     0.227 A 
HETATM    5  N   UNK N   1      36.139  16.035  11.707  0.00  0.00    -0.308 N 
ATOM      6  HN  UNK N   1      36.819  16.679  12.111  1.00  0.00     0.171 HD
HETATM    7  N   UNK N   1      34.505  15.563  10.058  0.00  0.00    -0.294 N 
ENDROOT
BRANCH   7   8
HETATM    8  C   UNK N   1      33.684  15.997   8.915  0.00  0.00     0.258 C 
HETATM    9  C   UNK N   1      32.490  15.122   8.697  0.00  0.00     0.225 C 
HETATM   10  O   UNK N   1      31.579  15.928   8.007  0.00  0.00    -0.355 OA
HETATM   11  C   UNK N   1      32.049  17.249   8.191  0.00  0.00     0.286 C 
HETATM   12  O   UNK N   1      33.124  17.258   9.100  0.00  0.00    -0.332 OA
BRANCH  11  13
HETATM   13  C   UNK N   1      30.930  18.133   8.713  0.00  0.00     0.224 C 
BRANCH  13  14
HETATM   14  O   UNK N   1      30.282  17.503   9.777  0.00  0.00    -0.396 OA
HETATM   15  H   UNK N   1      30.554  17.679  10.691  0.00  0.00     0.209 HD
ENDBRANCH  13  14
ENDBRANCH  11  13
ENDBRANCH   7   8
BRANCH   4  16
HETATM   16  O   UNK N   1      35.618  17.644  10.100  0.00  0.00    -0.332 OA
HETATM   17  H   UNK N   1      35.538  18.400  10.649  0.00  0.00     0.221 HD
ENDBRANCH   4  16
BRANCH   3  18
HETATM   18  N   UNK N   1      36.631  14.484  13.308  0.00  0.00    -0.385 N 
HETATM   19  H   UNK N   1      36.608  13.557  13.638  0.00  0.00     0.157 HD
ATOM     20  HN  UNK N   1      37.189  15.184  13.796  1.00  0.00     0.157 HD
ENDBRANCH   3  18
TORSDOF 5
ENDMDL
MODEL 3
REMARK VINA RESULT:      -5.1      5.175      7.728
REMARK  5 active torsions:
REMARK  status: ('A' for Active; 'I' for Inactive)
REMARK    1  A    between atoms: C_7  and  C_3 
REMARK    2  A    between atoms: O_14  and  C_3 
REMARK    3  A    between atoms: N_9  and  C_5 
REMARK    4  A    between atoms: C_6  and  N_13 
REMARK    5  A    between atoms: O_15  and  C_8 
ROOT
HETATM    1  C   UNK N   1      23.138  12.814   9.542  0.00  0.00     0.065 A 
HETATM    2  C   UNK N   1      22.689  13.899   8.793  0.00  0.00     0.101 A 
HETATM    3  C   UNK N   1      22.257  12.209  10.430  0.00  0.00     0.102 A 
HETATM    4  C   UNK N   1      20.565  13.749   9.826  0.00  0.00     0.227 A 
HETATM    5  N   UNK N   1      20.994  12.687  10.560  0.00  0.00    -0.308 N 
ATOM      6  HN  UNK N   1      20.354  12.241  11.218  1.00  0.00     0.171 HD
HETATM    7  N   UNK N   1      21.411  14.359   8.935  0.00  0.00    -0.294 N 
ENDROOT
BRANCH   7   8
HETATM    8  C   UNK N   1      20.929  15.467   8.093  0.00  0.00     0.258 C 
HETATM    9  C   UNK N   1      21.881  15.808   6.988  0.00  0.00     0.225 C 
HETATM   10  O   UNK N   1      21.089  16.428   6.015  0.00  0.00    -0.355 OA
HETATM   11  C   UNK N   1      19.760  16.089   6.357  0.00  0.00     0.286 C 
HETATM   12  O   UNK N   1      19.753  15.158   7.414  0.00  0.00    -0.332 OA
BRANCH  11  13
HETATM   13  C   UNK N   1      19.046  15.499   5.153  0.00  0.00     0.224 C 
BRANCH  13  14
HETATM   14  O   UNK N   1      17.664  15.603   5.321  0.00  0.00    -0.396 OA
HETATM   15  H   UNK N   1      17.072  15.555   4.555  0.00  0.00     0.209 HD
ENDBRANCH  13  14
ENDBRANCH  11  13
ENDBRANCH   7   8
BRANCH   4  16
HETATM   16  O   UNK N   1      19.298  14.177   9.971  0.00  0.00    -0.332 OA
HETATM   17  H   UNK N   1      18.931  14.274  10.828  0.00  0.00     0.221 HD
ENDBRANCH   4  16
BRANCH   3  18
HETATM   18  N   UNK N   1      22.632  11.198  11.117  0.00  0.00    -0.385 N 
HETATM   19  H   UNK N   1      23.321  10.589  10.765  0.00  0.00     0.157 HD
ATOM     20  HN  UNK N   1      22.218  11.023  12.031  1.00  0.00     0.157 HD
ENDBRANCH   3  18
TORSDOF 5
ENDMDL
MODEL 4
REMARK VINA RESULT:      -5.1      8.817     10.556
REMARK  5 active torsions:
REMARK  status: ('A' for Active; 'I' for Inactive)
REMARK    1  A    between atoms: C_7  and  C_3 
REMARK    2  A    between atoms: O_14  and  C_3 
REMARK    3  A    between atoms: N_9  and  C_5 
REMARK    4  A    between atoms: C_6  and  N_13 
REMARK    5  A    between atoms: O_15  and  C_8 
ROOT
HETATM    1  C   UNK N   1      27.994  18.711   5.826  0.00  0.00     0.065 A 
HETATM    2  C   UNK N   1      29.102  17.967   6.225  0.00  0.00     0.101 A 
HETATM    3  C   UNK N   1      27.289  19.422   6.789  0.00  0.00     0.102 A 
HETATM    4  C   UNK N   1      28.759  18.639   8.468  0.00  0.00     0.227 A 
HETATM    5  N   UNK N   1      27.678  19.370   8.088  0.00  0.00    -0.308 N 
ATOM      6  HN  UNK N   1      27.152  19.890   8.790  1.00  0.00     0.171 HD
HETATM    7  N   UNK N   1      29.480  17.935   7.537  0.00  0.00    -0.294 N 
ENDROOT
BRANCH   7   8
HETATM    8  C   UNK N   1      30.689  17.194   7.937  0.00  0.00     0.258 C 
HETATM    9  C   UNK N   1      31.376  16.542   6.778  0.00  0.00     0.225 C 
HETATM   10  O   UNK N   1      32.702  16.383   7.193  0.00  0.00    -0.355 OA
HETATM   11  C   UNK N   1      32.839  17.241   8.308  0.00  0.00     0.286 C 
HETATM   12  O   UNK N   1      31.677  18.020   8.467  0.00  0.00    -0.332 OA
BRANCH  11  13
HETATM   13  C   UNK N   1      34.042  18.151   8.121  0.00  0.00     0.224 C 
BRANCH  13  14
HETATM   14  O   UNK N   1      34.555  18.003   6.832  0.00  0.00    -0.396 OA
HETATM   15  H   UNK N   1      35.110  17.239   6.609  0.00  0.00     0.209 HD
ENDBRANCH  13  14
ENDBRANCH  11  13
ENDBRANCH   7   8
BRANCH   4  16
HETATM   16  O   UNK N   1      29.123  18.632   9.764  0.00  0.00    -0.332 OA
HETATM   17  H   UNK N   1      29.353  17.825  10.182  0.00  0.00     0.221 HD
ENDBRANCH   4  16
BRANCH   3  18
HETATM   18  N   UNK N   1      26.280  20.131   6.452  0.00  0.00    -0.385 N 
HETATM   19  H   UNK N   1      26.314  21.111   6.535  0.00  0.00     0.157 HD
ATOM     20  HN  UNK N   1      25.438  19.680   6.095  1.00  0.00     0.157 HD
ENDBRANCH   3  18
TORSDOF 5
ENDMDL
MODEL 5
REMARK VINA RESULT:      -5.1     13.725     15.510
REMARK  5 active torsions:
REMARK  status: ('A' for Active; 'I' for Inactive)
REMARK    1  A    between atoms: C_7  and  C_3 
REMARK    2  A    between atoms: O_14  and  C_3 
REMARK    3  A    between atoms: N_9  and  C_5 
REMARK    4  A    between atoms: C_6  and  N_13 
REMARK    5  A    between atoms: O_15  and  C_8 
ROOT
HETATM    1  C   UNK N   1      35.902  15.698  11.586  0.00  0.00     0.065 A 
HETATM    2  C   UNK N   1      35.374  16.498  10.576  0.00  0.00     0.101 A 
HETATM    3  C   UNK N   1      35.246  14.517  11.910  0.00  0.00     0.102 A 
HETATM    4  C   UNK N   1      33.600  14.962  10.271  0.00  0.00     0.227 A 
HETATM    5  N   UNK N   1      34.110  14.173  11.254  0.00  0.00    -0.308 N 
ATOM      6  HN  UNK N   1      33.630  13.307  11.501  1.00  0.00     0.171 HD
HETATM    7  N   UNK N   1      34.232  16.129   9.924  0.00  0.00    -0.294 N 
ENDROOT
BRANCH   7   8
HETATM    8  C   UNK N   1      33.718  16.952   8.816  0.00  0.00     0.258 C 
HETATM    9  C   UNK N   1      34.710  17.970   8.345  0.00  0.00     0.225 C 
HETATM   10  O   UNK N   1      34.331  18.254   7.030  0.00  0.00    -0.355 OA
HETATM   11  C   UNK N   1      33.472  17.194   6.661  0.00  0.00     0.286 C 
HETATM   12  O   UNK N   1      33.457  16.209   7.667  0.00  0.00    -0.332 OA
BRANCH  11  13
HETATM   13  C   UNK N   1      33.936  16.578   5.351  0.00  0.00     0.224 C 
BRANCH  13  14
HETATM   14  O   UNK N   1      35.088  15.820   5.564  0.00  0.00    -0.396 OA
HETATM   15  H   UNK N   1      35.938  16.104   5.192  0.00  0.00     0.209 HD
ENDBRANCH  13  14
ENDBRANCH  11  13
ENDBRANCH   7   8
BRANCH   4  16
HETATM   16  O   UNK N   1      32.482  14.572   9.631  0.00  0.00    -0.332 OA
HETATM   17  H   UNK N   1      31.849  15.210   9.363  0.00  0.00     0.221 HD
ENDBRANCH   4  16
BRANCH   3  18
HETATM   18  N   UNK N   1      35.717  13.750  12.819  0.00  0.00    -0.385 N 
HETATM   19  H   UNK N   1      36.448  14.062  13.400  0.00  0.00     0.157 HD
ATOM     20  HN  UNK N   1      35.335  12.813  12.941  1.00  0.00     0.157 HD
ENDBRANCH   3  18
TORSDOF 5
ENDMDL
MODEL 6
REMARK VINA RESULT:      -5.1     11.585     13.118
REMARK  5 active torsions:
REMARK  status: ('A' for Active; 'I' for Inactive)
REMARK    1  A    between atoms: C_7  and  C_3 
REMARK    2  A    between atoms: O_14  and  C_3 
REMARK    3  A    between atoms: N_9  and  C_5 
REMARK    4  A    between atoms: C_6  and  N_13 
REMARK    5  A    between atoms: O_15  and  C_8 
ROOT
HETATM    1  C   UNK N   1      32.818  17.451   4.728  0.00  0.00     0.065 A 
HETATM    2  C   UNK N   1      33.794  17.171   5.682  0.00  0.00     0.101 A 
HETATM    3  C   UNK N   1      31.482  17.340   5.092  0.00  0.00     0.102 A 
HETATM    4  C   UNK N   1      32.113  16.678   7.273  0.00  0.00     0.227 A 
HETATM    5  N   UNK N   1      31.154  16.953   6.350  0.00  0.00    -0.308 N 
ATOM      6  HN  UNK N   1      30.170  16.868   6.608  1.00  0.00     0.171 HD
HETATM    7  N   UNK N   1      33.441  16.789   6.945  0.00  0.00    -0.294 N 
ENDROOT
BRANCH   7   8
HETATM    8  C   UNK N   1      34.481  16.554   7.961  0.00  0.00     0.258 C 
HETATM    9  C   UNK N   1      34.552  17.651   8.976  0.00  0.00     0.225 C 
HETATM   10  O   UNK N   1      35.133  17.057  10.102  0.00  0.00    -0.355 OA
HETATM   11  C   UNK N   1      35.010  15.666   9.883  0.00  0.00     0.286 C 
HETATM   12  O   UNK N   1      34.234  15.422   8.734  0.00  0.00    -0.332 OA
BRANCH  11  13
HETATM   13  C   UNK N   1      34.362  15.004  11.087  0.00  0.00     0.224 C 
BRANCH  13  14
HETATM   14  O   UNK N   1      32.972  15.062  10.972  0.00  0.00    -0.396 OA
HETATM   15  H   UNK N   1      32.561  15.514  10.218  0.00  0.00     0.209 HD
ENDBRANCH  13  14
ENDBRANCH  11  13
ENDBRANCH   7   8
BRANCH   4  16
HETATM   16  O   UNK N   1      31.744  16.317   8.516  0.00  0.00    -0.332 OA
HETATM   17  H   UNK N   1      32.215  15.646   8.969  0.00  0.00     0.221 HD
ENDBRANCH   4  16
BRANCH   3  18
HETATM   18  N   UNK N   1      30.563  17.611   4.246  0.00  0.00    -0.385 N 
HETATM   19  H   UNK N   1      30.393  17.006   3.488  0.00  0.00     0.157 HD
ATOM     20  HN  UNK N   1      30.004  18.457   4.356  1.00  0.00     0.157 HD
ENDBRANCH   3  18
TORSDOF 5
ENDMDL
MODEL 7
REMARK VINA RESULT:      -5.0     15.347     17.032
REMARK  5 active torsions:
REMARK  status: ('A' for Active; 'I' for Inactive)
REMARK    1  A    between atoms: C_7  and  C_3 
REMARK    2  A    between atoms: O_14  and  C_3 
REMARK    3  A    between atoms: N_9  and  C_5 
REMARK    4  A    between atoms: C_6  and  N_13 
REMARK    5  A    between atoms: O_15  and  C_8 
ROOT
HETATM    1  C   UNK N   1      33.873  15.792   9.359  0.00  0.00     0.065 A 
HETATM    2  C   UNK N   1      33.964  14.666  10.173  0.00  0.00     0.101 A 
HETATM    3  C   UNK N   1      34.678  16.888   9.648  0.00  0.00     0.102 A 
HETATM    4  C   UNK N   1      35.598  15.744  11.503  0.00  0.00     0.227 A 
HETATM    5  N   UNK N   1      35.518  16.847  10.711  0.00  0.00    -0.308 N 
ATOM      6  HN  UNK N   1      36.102  17.657  10.921  1.00  0.00     0.171 HD
HETATM    7  N   UNK N   1      34.822  14.644  11.235  0.00  0.00    -0.294 N 
ENDROOT
BRANCH   7   8
HETATM    8  C   UNK N   1      34.954  13.425  12.052  0.00  0.00     0.258 C 
HETATM    9  C   UNK N   1      36.232  12.691  11.790  0.00  0.00     0.225 C 
HETATM   10  O   UNK N   1      36.458  11.945  12.951  0.00  0.00    -0.355 OA
HETATM   11  C   UNK N   1      35.617  12.527  13.927  0.00  0.00     0.286 C 
HETATM   12  O   UNK N   1      35.016  13.694  13.416  0.00  0.00    -0.332 OA
BRANCH  11  13
HETATM   13  C   UNK N   1      36.419  12.869  15.171  0.00  0.00     0.224 C 
BRANCH  13  14
HETATM   14  O   UNK N   1      37.193  14.008  14.941  0.00  0.00    -0.396 OA
HETATM   15  H   UNK N   1      38.118  14.039  15.230  0.00  0.00     0.209 HD
ENDBRANCH  13  14
ENDBRANCH  11  13
ENDBRANCH   7   8
BRANCH   4  16
HETATM   16  O   UNK N   1      36.460  15.739  12.535  0.00  0.00    -0.332 OA
HETATM   17  H   UNK N   1      36.388  15.085  13.203  0.00  0.00     0.221 HD
ENDBRANCH   4  16
BRANCH   3  18
HETATM   18  N   UNK N   1      34.633  17.928   8.907  0.00  0.00    -0.385 N 
HETATM   19  H   UNK N   1      34.114  18.716   9.190  0.00  0.00     0.157 HD
ATOM     20  HN  UNK N   1      35.136  17.943   8.020  1.00  0.00     0.157 HD
ENDBRANCH   3  18
TORSDOF 5
ENDMDL
MODEL 8
REMARK VINA RESULT:      -4.9     12.102     13.331
REMARK  5 active torsions:
REMARK  status: ('A' for Active; 'I' for Inactive)
REMARK    1  A    between atoms: C_7  and  C_3 
REMARK    2  A    between atoms: O_14  and  C_3 
REMARK    3  A    between atoms: N_9  and  C_5 
REMARK    4  A    between atoms: C_6  and  N_13 
REMARK    5  A    between atoms: O_15  and  C_8 
ROOT
HETATM    1  C   UNK N   1      27.617  27.921  -4.583  0.00  0.00     0.065 A 
HETATM    2  C   UNK N   1      28.292  26.742  -4.889  0.00  0.00     0.101 A 
HETATM    3  C   UNK N   1      26.545  27.863  -3.700  0.00  0.00     0.102 A 
HETATM    4  C   UNK N   1      26.837  25.526  -3.474  0.00  0.00     0.227 A 
HETATM    5  N   UNK N   1      26.173  26.673  -3.167  0.00  0.00    -0.308 N 
ATOM      6  HN  UNK N   1      25.381  26.636  -2.524  1.00  0.00     0.171 HD
HETATM    7  N   UNK N   1      27.904  25.556  -4.335  0.00  0.00    -0.294 N 
ENDROOT
BRANCH   7   8
HETATM    8  C   UNK N   1      28.665  24.327  -4.619  0.00  0.00     0.258 C 
HETATM    9  C   UNK N   1      29.959  24.599  -5.321  0.00  0.00     0.225 C 
HETATM   10  O   UNK N   1      30.763  23.493  -5.026  0.00  0.00    -0.355 OA
HETATM   11  C   UNK N   1      30.133  22.868  -3.925  0.00  0.00     0.286 C 
HETATM   12  O   UNK N   1      29.065  23.661  -3.463  0.00  0.00    -0.332 OA
BRANCH  11  13
HETATM   13  C   UNK N   1      31.135  22.656  -2.803  0.00  0.00     0.224 C 
BRANCH  13  14
HETATM   14  O   UNK N   1      30.547  22.966  -1.575  0.00  0.00    -0.396 OA
HETATM   15  H   UNK N   1      29.992  23.756  -1.483  0.00  0.00     0.209 HD
ENDBRANCH  13  14
ENDBRANCH  11  13
ENDBRANCH   7   8
BRANCH   4  16
HETATM   16  O   UNK N   1      26.447  24.370  -2.906  0.00  0.00    -0.332 OA
HETATM   17  H   UNK N   1      26.920  24.024  -2.175  0.00  0.00     0.221 HD
ENDBRANCH   4  16
BRANCH   3  18
HETATM   18  N   UNK N   1      25.917  28.931  -3.383  0.00  0.00    -0.385 N 
HETATM   19  H   UNK N   1      26.341  29.598  -2.797  0.00  0.00     0.157 HD
ATOM     20  HN  UNK N   1      24.975  29.090  -3.737  1.00  0.00     0.157 HD
ENDBRANCH   3  18
TORSDOF 5
ENDMDL
MODEL 9
REMARK VINA RESULT:      -4.9     10.381     12.074
REMARK  5 active torsions:
REMARK  status: ('A' for Active; 'I' for Inactive)
REMARK    1  A    between atoms: C_7  and  C_3 
REMARK    2  A    between atoms: O_14  and  C_3 
REMARK    3  A    between atoms: N_9  and  C_5 
REMARK    4  A    between atoms: C_6  and  N_13 
REMARK    5  A    between atoms: O_15  and  C_8 
ROOT
HETATM    1  C   UNK N   1      29.574  18.750   9.258  0.00  0.00     0.065 A 
HETATM    2  C   UNK N   1      30.840  18.198   9.076  0.00  0.00     0.101 A 
HETATM    3  C   UNK N   1      28.632  18.599   8.248  0.00  0.00     0.102 A 
HETATM    4  C   UNK N   1      30.200  17.405   6.941  0.00  0.00     0.227 A 
HETATM    5  N   UNK N   1      28.960  17.937   7.111  0.00  0.00    -0.308 N 
ATOM      6  HN  UNK N   1      28.265  17.835   6.371  1.00  0.00     0.171 HD
HETATM    7  N   UNK N   1      31.147  17.530   7.925  0.00  0.00    -0.294 N 
ENDROOT
BRANCH   7   8
HETATM    8  C   UNK N   1      32.469  16.899   7.771  0.00  0.00     0.258 C 
HETATM    9  C   UNK N   1      33.550  17.890   7.474  0.00  0.00     0.225 C 
HETATM   10  O   UNK N   1      34.729  17.267   7.895  0.00  0.00    -0.355 OA
HETATM   11  C   UNK N   1      34.304  16.208   8.729  0.00  0.00     0.286 C 
HETATM   12  O   UNK N   1      32.914  16.284   8.938  0.00  0.00    -0.332 OA
BRANCH  11  13
HETATM   13  C   UNK N   1      35.025  16.274  10.065  0.00  0.00     0.224 C 
BRANCH  13  14
HETATM   14  O   UNK N   1      35.625  17.525  10.221  0.00  0.00    -0.396 OA
HETATM   15  H   UNK N   1      35.439  18.063  11.007  0.00  0.00     0.209 HD
ENDBRANCH  13  14
ENDBRANCH  11  13
ENDBRANCH   7   8
BRANCH   4  16
HETATM   16  O   UNK N   1      30.477  16.737   5.806  0.00  0.00    -0.332 OA
HETATM   17  H   UNK N   1      29.914  16.044   5.520  0.00  0.00     0.221 HD
ENDBRANCH   4  16
BRANCH   3  18
HETATM   18  N   UNK N   1      27.454  19.076   8.394  0.00  0.00    -0.385 N 
HETATM   19  H   UNK N   1      27.328  19.982   8.757  0.00  0.00     0.157 HD
ATOM     20  HN  UNK N   1      26.644  18.515   8.134  1.00  0.00     0.157 HD
ENDBRANCH   3  18
TORSDOF 5
ENDMDL
