MODEL 1
REMARK VINA RESULT:     -10.2      0.000      0.000
REMARK  6 active torsions:
REMARK  status: ('A' for Active; 'I' for Inactive)
REMARK    1  A    between atoms: N_5  and  C_16 
REMARK    2  A    between atoms: N_6  and  C_17 
REMARK       I    between atoms: N_6  and  C_26 
REMARK    3  A    between atoms: N_7  and  C_23 
REMARK       I    between atoms: N_7  and  C_34 
REMARK    4  A    between atoms: C_18  and  C_30 
REMARK    5  A    between atoms: C_22  and  C_26 
REMARK    6  A    between atoms: C_36  and  C_37 
ROOT
HETATM    1  C   UNK N   1      35.098  14.897   9.226  0.00  0.00     0.034 A 
HETATM    2  C   UNK N   1      35.946  14.187  11.375  0.00  0.00     0.056 A 
HETATM    3  C   UNK N   1      36.944  13.434  10.726  0.00  0.00    -0.035 A 
HETATM    4  C   UNK N   1      35.060  14.901  10.601  0.00  0.00     0.047 A 
HETATM    5  C   UNK N   1      36.055  14.124   8.562  0.00  0.00     0.018 A 
HETATM    6  C   UNK N   1      36.986  13.396   9.319  0.00  0.00     0.010 A 
HETATM    7  C   UNK N   1      37.954  12.670  11.506  0.00  0.00     0.050 C 
ENDROOT
BRANCH   1   8
HETATM    8  C   UNK N   1      34.155  15.777   8.554  0.00  0.00     0.256 C 
HETATM    9  O   UNK N   1      34.527  16.838   8.072  0.00  0.00    -0.267 OA
HETATM   10  N   UNK N   1      32.851  15.381   8.500  0.00  0.00    -0.323 N 
HETATM   11  H   UNK N   1      32.635  14.487   8.851  0.00  0.00     0.169 HD
BRANCH  10  12
HETATM   12  C   UNK N   1      31.788  16.141   7.983  0.00  0.00     0.037 A 
HETATM   13  C   UNK N   1      31.447  16.048   6.650  0.00  0.00     0.059 A 
HETATM   14  C   UNK N   1      30.324  16.676   6.143  0.00  0.00     0.042 A 
HETATM   15  C   UNK N   1      29.502  17.421   7.015  0.00  0.00     0.046 A 
HETATM   16  C   UNK N   1      29.865  17.547   8.378  0.00  0.00     0.052 A 
HETATM   17  C   UNK N   1      31.016  16.908   8.846  0.00  0.00     0.046 A 
BRANCH  14  18
HETATM   18  N   UNK N   1      29.991  16.429   4.772  0.00  0.00    -0.317 N 
HETATM   19  C   UNK N   1      28.872  15.797   4.365  0.00  0.00     0.122 A 
HETATM   20  C   UNK N   1      28.863  15.832   3.000  0.00  0.00     0.022 A 
HETATM   21  N   UNK N   1      29.956  16.479   2.551  0.00  0.00    -0.354 N 
HETATM   22  C   UNK N   1      27.796  15.267   2.132  0.00  0.00     0.069 C 
HETATM   23  C   UNK N   1      30.637  16.837   3.663  0.00  0.00     0.188 A 
ATOM     24  HN  UNK N   1      30.215  16.660   1.581  1.00  0.00     0.166 HD
ENDBRANCH  14  18
BRANCH  16  25
HETATM   25  C   UNK N   1      29.004  18.259   9.378  0.00  0.00     0.417 C 
HETATM   26  F   UNK N   1      28.054  19.046   8.755  0.00  0.00    -0.166 F 
HETATM   27  F   UNK N   1      28.355  17.314  10.158  0.00  0.00    -0.166 F 
HETATM   28  F   UNK N   1      29.786  19.050  10.199  0.00  0.00    -0.166 F 
ENDBRANCH  16  25
ENDBRANCH  10  12
ENDBRANCH   1   8
BRANCH   2  29
HETATM   29  N   UNK N   1      35.813  14.213  12.794  0.00  0.00    -0.191 N 
HETATM   30  C   UNK N   1      35.221  13.157  13.561  0.00  0.00     0.683 A 
HETATM   31  N   UNK N   1      35.374  13.147  14.907  0.00  0.00    -0.191 N 
HETATM   32  N   UNK N   1      34.552  12.128  12.960  0.00  0.00    -0.202 N 
HETATM   33  C   UNK N   1      34.889  12.127  15.668  0.00  0.00     0.062 A 
ATOM     34  HN  UNK N   1      35.863  13.919  15.360  1.00  0.00     0.184 HD
HETATM   35  C   UNK N   1      34.208  11.069  15.055  0.00  0.00     0.048 A 
HETATM   36  C   UNK N   1      34.042  11.097  13.677  0.00  0.00     0.108 A 
ATOM     37  HN  UNK N   1      34.435  12.134  11.946  1.00  0.00     0.183 HD
HETATM   38  H   UNK N   1      36.147  15.004  13.276  0.00  0.00     0.184 HD
BRANCH  33  39
HETATM   39  C   UNK N   1      35.117  12.133  17.122  0.00  0.00     0.007 A 
HETATM   40  C   UNK N   1      35.413  10.954  17.818  0.00  0.00     0.016 A 
HETATM   41  C   UNK N   1      35.645  10.998  19.192  0.00  0.00     0.018 A 
HETATM   42  C   UNK N   1      35.574  12.223  19.859  0.00  0.00     0.087 A 
HETATM   43  N   UNK N   1      35.283  13.360  19.171  0.00  0.00    -0.374 N 
HETATM   44  C   UNK N   1      35.059  13.339  17.831  0.00  0.00     0.101 A 
ATOM     45  HN  UNK N   1      35.231  14.246  19.673  1.00  0.00     0.164 HD
ENDBRANCH  33  39
ENDBRANCH   2  29
TORSDOF 6
ENDMDL
MODEL 2
REMARK VINA RESULT:      -9.9      7.433     12.440
REMARK  6 active torsions:
REMARK  status: ('A' for Active; 'I' for Inactive)
REMARK    1  A    between atoms: N_5  and  C_16 
REMARK    2  A    between atoms: N_6  and  C_17 
REMARK       I    between atoms: N_6  and  C_26 
REMARK    3  A    between atoms: N_7  and  C_23 
REMARK       I    between atoms: N_7  and  C_34 
REMARK    4  A    between atoms: C_18  and  C_30 
REMARK    5  A    between atoms: C_22  and  C_26 
REMARK    6  A    between atoms: C_36  and  C_37 
ROOT
HETATM    1  C   UNK N   1      22.702  18.321   4.493  0.00  0.00     0.034 A 
HETATM    2  C   UNK N   1      25.065  18.662   4.116  0.00  0.00     0.056 A 
HETATM    3  C   UNK N   1      24.771  19.787   3.322  0.00  0.00    -0.035 A 
HETATM    4  C   UNK N   1      24.019  17.970   4.682  0.00  0.00     0.047 A 
HETATM    5  C   UNK N   1      22.386  19.411   3.676  0.00  0.00     0.018 A 
HETATM    6  C   UNK N   1      23.429  20.150   3.095  0.00  0.00     0.010 A 
HETATM    7  C   UNK N   1      25.858  20.598   2.711  0.00  0.00     0.050 C 
ENDROOT
BRANCH   1   8
HETATM    8  C   UNK N   1      21.718  17.551   5.236  0.00  0.00     0.256 C 
HETATM    9  O   UNK N   1      20.597  17.367   4.782  0.00  0.00    -0.267 OA
HETATM   10  N   UNK N   1      22.090  17.061   6.454  0.00  0.00    -0.323 N 
HETATM   11  H   UNK N   1      23.026  17.192   6.727  0.00  0.00     0.169 HD
BRANCH  10  12
HETATM   12  C   UNK N   1      21.248  16.382   7.351  0.00  0.00     0.037 A 
HETATM   13  C   UNK N   1      21.707  15.280   8.042  0.00  0.00     0.059 A 
HETATM   14  C   UNK N   1      20.950  14.677   9.030  0.00  0.00     0.042 A 
HETATM   15  C   UNK N   1      19.683  15.211   9.346  0.00  0.00     0.046 A 
HETATM   16  C   UNK N   1      19.193  16.323   8.619  0.00  0.00     0.052 A 
HETATM   17  C   UNK N   1      19.984  16.893   7.618  0.00  0.00     0.046 A 
BRANCH  14  18
HETATM   18  N   UNK N   1      21.557  13.609   9.767  0.00  0.00    -0.317 N 
HETATM   19  C   UNK N   1      22.887  13.421   9.876  0.00  0.00     0.122 A 
HETATM   20  C   UNK N   1      23.077  12.367  10.723  0.00  0.00     0.022 A 
HETATM   21  N   UNK N   1      21.887  11.898  11.146  0.00  0.00    -0.354 N 
HETATM   22  C   UNK N   1      24.399  11.829  11.142  0.00  0.00     0.069 C 
HETATM   23  C   UNK N   1      20.964  12.680  10.542  0.00  0.00     0.188 A 
ATOM     24  HN  UNK N   1      21.719  11.120  11.784  1.00  0.00     0.166 HD
ENDBRANCH  14  18
BRANCH  16  25
HETATM   25  C   UNK N   1      17.891  16.989   8.947  0.00  0.00     0.417 C 
HETATM   26  F   UNK N   1      18.091  18.212   9.560  0.00  0.00    -0.166 F 
HETATM   27  F   UNK N   1      17.186  17.192   7.771  0.00  0.00    -0.166 F 
HETATM   28  F   UNK N   1      17.141  16.179   9.779  0.00  0.00    -0.166 F 
ENDBRANCH  16  25
ENDBRANCH  10  12
ENDBRANCH   1   8
BRANCH   2  29
HETATM   29  N   UNK N   1      26.399  18.207   4.329  0.00  0.00    -0.191 N 
HETATM   30  C   UNK N   1      27.168  18.506   5.501  0.00  0.00     0.683 A 
HETATM   31  N   UNK N   1      28.314  17.822   5.737  0.00  0.00    -0.191 N 
HETATM   32  N   UNK N   1      26.743  19.426   6.417  0.00  0.00    -0.202 N 
HETATM   33  C   UNK N   1      29.039  18.023   6.872  0.00  0.00     0.062 A 
ATOM     34  HN  UNK N   1      28.640  17.142   5.050  1.00  0.00     0.184 HD
HETATM   35  C   UNK N   1      28.604  18.962   7.814  0.00  0.00     0.048 A 
HETATM   36  C   UNK N   1      27.437  19.669   7.556  0.00  0.00     0.108 A 
ATOM     37  HN  UNK N   1      25.881  19.943   6.241  1.00  0.00     0.183 HD
HETATM   38  H   UNK N   1      26.818  17.656   3.630  0.00  0.00     0.184 HD
BRANCH  33  39
HETATM   39  C   UNK N   1      30.253  17.226   7.109  0.00  0.00     0.007 A 
HETATM   40  C   UNK N   1      31.111  17.507   8.180  0.00  0.00     0.016 A 
HETATM   41  C   UNK N   1      32.242  16.719   8.389  0.00  0.00     0.018 A 
HETATM   42  C   UNK N   1      32.507  15.658   7.521  0.00  0.00     0.087 A 
HETATM   43  N   UNK N   1      31.666  15.398   6.483  0.00  0.00    -0.374 N 
HETATM   44  C   UNK N   1      30.556  16.150   6.266  0.00  0.00     0.101 A 
ATOM     45  HN  UNK N   1      31.875  14.621   5.856  1.00  0.00     0.164 HD
ENDBRANCH  33  39
ENDBRANCH   2  29
TORSDOF 6
ENDMDL
MODEL 3
REMARK VINA RESULT:      -9.2      4.318      6.538
REMARK  6 active torsions:
REMARK  status: ('A' for Active; 'I' for Inactive)
REMARK    1  A    between atoms: N_5  and  C_16 
REMARK    2  A    between atoms: N_6  and  C_17 
REMARK       I    between atoms: N_6  and  C_26 
REMARK    3  A    between atoms: N_7  and  C_23 
REMARK       I    between atoms: N_7  and  C_34 
REMARK    4  A    between atoms: C_18  and  C_30 
REMARK    5  A    between atoms: C_22  and  C_26 
REMARK    6  A    between atoms: C_36  and  C_37 
ROOT
HETATM    1  C   UNK N   1      30.105  16.980   6.691  0.00  0.00     0.034 A 
HETATM    2  C   UNK N   1      32.032  16.735   8.129  0.00  0.00     0.056 A 
HETATM    3  C   UNK N   1      32.872  17.078   7.053  0.00  0.00    -0.035 A 
HETATM    4  C   UNK N   1      30.673  16.705   7.913  0.00  0.00     0.047 A 
HETATM    5  C   UNK N   1      30.924  17.284   5.599  0.00  0.00     0.018 A 
HETATM    6  C   UNK N   1      32.314  17.340   5.786  0.00  0.00     0.010 A 
HETATM    7  C   UNK N   1      34.347  17.163   7.230  0.00  0.00     0.050 C 
ENDROOT
BRANCH   1   8
HETATM    8  C   UNK N   1      28.651  17.002   6.648  0.00  0.00     0.256 C 
HETATM    9  O   UNK N   1      28.024  17.890   7.206  0.00  0.00    -0.267 OA
HETATM   10  N   UNK N   1      28.025  15.990   5.978  0.00  0.00    -0.323 N 
HETATM   11  H   UNK N   1      28.594  15.346   5.499  0.00  0.00     0.169 HD
BRANCH  10  12
HETATM   12  C   UNK N   1      26.636  15.793   5.915  0.00  0.00     0.037 A 
HETATM   13  C   UNK N   1      26.022  14.884   6.750  0.00  0.00     0.059 A 
HETATM   14  C   UNK N   1      24.645  14.767   6.807  0.00  0.00     0.042 A 
HETATM   15  C   UNK N   1      23.851  15.608   5.999  0.00  0.00     0.046 A 
HETATM   16  C   UNK N   1      24.476  16.520   5.116  0.00  0.00     0.052 A 
HETATM   17  C   UNK N   1      25.871  16.596   5.079  0.00  0.00     0.046 A 
BRANCH  14  18
HETATM   18  N   UNK N   1      24.097  13.875   7.786  0.00  0.00    -0.317 N 
HETATM   19  C   UNK N   1      24.750  13.468   8.892  0.00  0.00     0.122 A 
HETATM   20  C   UNK N   1      23.879  12.705   9.617  0.00  0.00     0.022 A 
HETATM   21  N   UNK N   1      22.694  12.635   8.981  0.00  0.00    -0.354 N 
HETATM   22  C   UNK N   1      24.179  12.068  10.926  0.00  0.00     0.069 C 
HETATM   23  C   UNK N   1      22.853  13.363   7.853  0.00  0.00     0.188 A 
ATOM     24  HN  UNK N   1      21.856  12.137   9.284  1.00  0.00     0.166 HD
ENDBRANCH  14  18
BRANCH  16  25
HETATM   25  C   UNK N   1      23.700  17.495   4.282  0.00  0.00     0.417 C 
HETATM   26  F   UNK N   1      22.984  18.375   5.071  0.00  0.00    -0.166 F 
HETATM   27  F   UNK N   1      24.588  18.220   3.503  0.00  0.00    -0.166 F 
HETATM   28  F   UNK N   1      22.830  16.818   3.448  0.00  0.00    -0.166 F 
ENDBRANCH  16  25
ENDBRANCH  10  12
ENDBRANCH   1   8
BRANCH   2  29
HETATM   29  N   UNK N   1      32.542  16.397   9.417  0.00  0.00    -0.191 N 
HETATM   30  C   UNK N   1      33.157  15.141   9.728  0.00  0.00     0.683 A 
HETATM   31  N   UNK N   1      33.844  15.007  10.889  0.00  0.00    -0.191 N 
HETATM   32  N   UNK N   1      33.117  14.090   8.855  0.00  0.00    -0.202 N 
HETATM   33  C   UNK N   1      34.503  13.855  11.194  0.00  0.00     0.062 A 
ATOM     34  HN  UNK N   1      33.868  15.785  11.548  1.00  0.00     0.184 HD
HETATM   35  C   UNK N   1      34.468  12.779  10.299  0.00  0.00     0.048 A 
HETATM   36  C   UNK N   1      33.748  12.921   9.120  0.00  0.00     0.108 A 
ATOM     37  HN  UNK N   1      32.600  14.189   7.981  1.00  0.00     0.183 HD
HETATM   38  H   UNK N   1      32.466  17.066  10.135  0.00  0.00     0.184 HD
BRANCH  33  39
HETATM   39  C   UNK N   1      35.274  13.768  12.444  0.00  0.00     0.007 A 
HETATM   40  C   UNK N   1      35.246  12.615  13.239  0.00  0.00     0.016 A 
HETATM   41  C   UNK N   1      36.005  12.557  14.407  0.00  0.00     0.018 A 
HETATM   42  C   UNK N   1      36.783  13.658  14.773  0.00  0.00     0.087 A 
HETATM   43  N   UNK N   1      36.799  14.772  13.993  0.00  0.00    -0.374 N 
HETATM   44  C   UNK N   1      36.071  14.847  12.848  0.00  0.00     0.101 A 
ATOM     45  HN  UNK N   1      37.370  15.569  14.275  1.00  0.00     0.164 HD
ENDBRANCH  33  39
ENDBRANCH   2  29
TORSDOF 6
ENDMDL
MODEL 4
REMARK VINA RESULT:      -9.0      3.954      5.872
REMARK  6 active torsions:
REMARK  status: ('A' for Active; 'I' for Inactive)
REMARK    1  A    between atoms: N_5  and  C_16 
REMARK    2  A    between atoms: N_6  and  C_17 
REMARK       I    between atoms: N_6  and  C_26 
REMARK    3  A    between atoms: N_7  and  C_23 
REMARK       I    between atoms: N_7  and  C_34 
REMARK    4  A    between atoms: C_18  and  C_30 
REMARK    5  A    between atoms: C_22  and  C_26 
REMARK    6  A    between atoms: C_36  and  C_37 
ROOT
HETATM    1  C   UNK N   1      30.720  16.513   6.218  0.00  0.00     0.034 A 
HETATM    2  C   UNK N   1      32.343  16.592   8.007  0.00  0.00     0.056 A 
HETATM    3  C   UNK N   1      33.231  17.288   7.164  0.00  0.00    -0.035 A 
HETATM    4  C   UNK N   1      31.113  16.234   7.507  0.00  0.00     0.047 A 
HETATM    5  C   UNK N   1      31.602  17.167   5.352  0.00  0.00     0.018 A 
HETATM    6  C   UNK N   1      32.860  17.562   5.833  0.00  0.00     0.010 A 
HETATM    7  C   UNK N   1      34.562  17.734   7.655  0.00  0.00     0.050 C 
ENDROOT
BRANCH   1   8
HETATM    8  C   UNK N   1      29.355  16.156   5.870  0.00  0.00     0.256 C 
HETATM    9  O   UNK N   1      29.123  15.439   4.906  0.00  0.00    -0.267 OA
HETATM   10  N   UNK N   1      28.353  16.661   6.647  0.00  0.00    -0.323 N 
HETATM   11  H   UNK N   1      28.616  17.177   7.443  0.00  0.00     0.169 HD
BRANCH  10  12
HETATM   12  C   UNK N   1      26.977  16.506   6.406  0.00  0.00     0.037 A 
HETATM   13  C   UNK N   1      26.286  17.449   5.675  0.00  0.00     0.059 A 
HETATM   14  C   UNK N   1      24.967  17.256   5.306  0.00  0.00     0.042 A 
HETATM   15  C   UNK N   1      24.319  16.059   5.677  0.00  0.00     0.046 A 
HETATM   16  C   UNK N   1      25.014  15.101   6.455  0.00  0.00     0.052 A 
HETATM   17  C   UNK N   1      26.341  15.342   6.819  0.00  0.00     0.046 A 
BRANCH  14  18
HETATM   18  N   UNK N   1      24.369  18.239   4.453  0.00  0.00    -0.317 N 
HETATM   19  C   UNK N   1      23.045  18.338   4.220  0.00  0.00     0.122 A 
HETATM   20  C   UNK N   1      22.854  19.440   3.438  0.00  0.00     0.022 A 
HETATM   21  N   UNK N   1      24.038  20.032   3.183  0.00  0.00    -0.354 N 
HETATM   22  C   UNK N   1      21.537  19.936   2.957  0.00  0.00     0.069 C 
HETATM   23  C   UNK N   1      24.957  19.272   3.820  0.00  0.00     0.188 A 
ATOM     24  HN  UNK N   1      24.204  20.872   2.629  1.00  0.00     0.166 HD
ENDBRANCH  14  18
BRANCH  16  25
HETATM   25  C   UNK N   1      24.416  13.776   6.824  0.00  0.00     0.417 C 
HETATM   26  F   UNK N   1      24.357  12.929   5.733  0.00  0.00    -0.166 F 
HETATM   27  F   UNK N   1      25.206  13.188   7.799  0.00  0.00    -0.166 F 
HETATM   28  F   UNK N   1      23.143  13.956   7.333  0.00  0.00    -0.166 F 
ENDBRANCH  16  25
ENDBRANCH  10  12
ENDBRANCH   1   8
BRANCH   2  29
HETATM   29  N   UNK N   1      32.687  16.229   9.342  0.00  0.00    -0.191 N 
HETATM   30  C   UNK N   1      33.471  15.078   9.681  0.00  0.00     0.683 A 
HETATM   31  N   UNK N   1      33.968  14.959  10.937  0.00  0.00    -0.191 N 
HETATM   32  N   UNK N   1      33.779  14.125   8.752  0.00  0.00    -0.202 N 
HETATM   33  C   UNK N   1      34.775  13.918  11.283  0.00  0.00     0.062 A 
ATOM     34  HN  UNK N   1      33.732  15.662  11.636  1.00  0.00     0.184 HD
HETATM   35  C   UNK N   1      35.096  12.943  10.332  0.00  0.00     0.048 A 
HETATM   36  C   UNK N   1      34.569  13.066   9.053  0.00  0.00     0.108 A 
ATOM     37  HN  UNK N   1      33.405  14.213   7.806  1.00  0.00     0.183 HD
HETATM   38  H   UNK N   1      32.366  16.802  10.075  0.00  0.00     0.184 HD
BRANCH  33  39
HETATM   39  C   UNK N   1      35.329  13.851  12.645  0.00  0.00     0.007 A 
HETATM   40  C   UNK N   1      34.937  12.850  13.543  0.00  0.00     0.016 A 
HETATM   41  C   UNK N   1      35.497  12.802  14.818  0.00  0.00     0.018 A 
HETATM   42  C   UNK N   1      36.443  13.761  15.187  0.00  0.00     0.087 A 
HETATM   43  N   UNK N   1      36.813  14.730  14.306  0.00  0.00    -0.374 N 
HETATM   44  C   UNK N   1      36.283  14.790  13.057  0.00  0.00     0.101 A 
ATOM     45  HN  UNK N   1      37.502  15.425  14.591  1.00  0.00     0.164 HD
ENDBRANCH  33  39
ENDBRANCH   2  29
TORSDOF 6
ENDMDL
MODEL 5
REMARK VINA RESULT:      -8.9      6.143     10.524
REMARK  6 active torsions:
REMARK  status: ('A' for Active; 'I' for Inactive)
REMARK    1  A    between atoms: N_5  and  C_16 
REMARK    2  A    between atoms: N_6  and  C_17 
REMARK       I    between atoms: N_6  and  C_26 
REMARK    3  A    between atoms: N_7  and  C_23 
REMARK       I    between atoms: N_7  and  C_34 
REMARK    4  A    between atoms: C_18  and  C_30 
REMARK    5  A    between atoms: C_22  and  C_26 
REMARK    6  A    between atoms: C_36  and  C_37 
ROOT
HETATM    1  C   UNK N   1      24.732  16.465   5.135  0.00  0.00     0.034 A 
HETATM    2  C   UNK N   1      26.833  17.658   5.092  0.00  0.00     0.056 A 
HETATM    3  C   UNK N   1      26.211  18.718   4.405  0.00  0.00    -0.035 A 
HETATM    4  C   UNK N   1      26.069  16.568   5.441  0.00  0.00     0.047 A 
HETATM    5  C   UNK N   1      24.104  17.488   4.419  0.00  0.00     0.018 A 
HETATM    6  C   UNK N   1      24.848  18.622   4.060  0.00  0.00     0.010 A 
HETATM    7  C   UNK N   1      26.973  19.939   4.029  0.00  0.00     0.050 C 
ENDROOT
BRANCH   1   8
HETATM    8  C   UNK N   1      24.041  15.296   5.658  0.00  0.00     0.256 C 
HETATM    9  O   UNK N   1      22.828  15.189   5.551  0.00  0.00    -0.267 OA
HETATM   10  N   UNK N   1      24.796  14.344   6.279  0.00  0.00    -0.323 N 
HETATM   11  H   UNK N   1      25.772  14.465   6.272  0.00  0.00     0.169 HD
BRANCH  10  12
HETATM   12  C   UNK N   1      24.295  13.202   6.928  0.00  0.00     0.037 A 
HETATM   13  C   UNK N   1      24.166  12.012   6.245  0.00  0.00     0.059 A 
HETATM   14  C   UNK N   1      23.808  10.841   6.889  0.00  0.00     0.042 A 
HETATM   15  C   UNK N   1      23.581  10.866   8.281  0.00  0.00     0.046 A 
HETATM   16  C   UNK N   1      23.680  12.092   8.983  0.00  0.00     0.052 A 
HETATM   17  C   UNK N   1      24.031  13.254   8.291  0.00  0.00     0.046 A 
BRANCH  14  18
HETATM   18  N   UNK N   1      23.809   9.635   6.116  0.00  0.00    -0.317 N 
HETATM   19  C   UNK N   1      22.699   9.038   5.639  0.00  0.00     0.122 A 
HETATM   20  C   UNK N   1      23.105   7.975   4.885  0.00  0.00     0.022 A 
HETATM   21  N   UNK N   1      24.451   7.904   4.881  0.00  0.00    -0.354 N 
HETATM   22  C   UNK N   1      22.204   7.047   4.151  0.00  0.00     0.069 C 
HETATM   23  C   UNK N   1      24.862   8.938   5.649  0.00  0.00     0.188 A 
ATOM     24  HN  UNK N   1      25.034   7.216   4.402  1.00  0.00     0.166 HD
ENDBRANCH  14  18
BRANCH  16  25
HETATM   25  C   UNK N   1      23.527  12.183  10.471  0.00  0.00     0.417 C 
HETATM   26  F   UNK N   1      24.744  12.388  11.092  0.00  0.00    -0.166 F 
HETATM   27  F   UNK N   1      22.692  13.249  10.768  0.00  0.00    -0.166 F 
HETATM   28  F   UNK N   1      22.954  11.023  10.960  0.00  0.00    -0.166 F 
ENDBRANCH  16  25
ENDBRANCH  10  12
ENDBRANCH   1   8
BRANCH   2  29
HETATM   29  N   UNK N   1      28.222  17.669   5.411  0.00  0.00    -0.191 N 
HETATM   30  C   UNK N   1      28.738  17.888   6.730  0.00  0.00     0.683 A 
HETATM   31  N   UNK N   1      30.041  17.620   6.988  0.00  0.00    -0.191 N 
HETATM   32  N   UNK N   1      27.931  18.308   7.751  0.00  0.00    -0.202 N 
HETATM   33  C   UNK N   1      30.556  17.747   8.242  0.00  0.00     0.062 A 
ATOM     34  HN  UNK N   1      30.649  17.316   6.227  1.00  0.00     0.184 HD
HETATM   35  C   UNK N   1      29.731  18.173   9.290  0.00  0.00     0.048 A 
HETATM   36  C   UNK N   1      28.402  18.460   9.013  0.00  0.00     0.108 A 
ATOM     37  HN  UNK N   1      26.950  18.511   7.558  1.00  0.00     0.183 HD
HETATM   38  H   UNK N   1      28.866  17.516   4.682  0.00  0.00     0.184 HD
BRANCH  33  39
HETATM   39  C   UNK N   1      31.966  17.402   8.487  0.00  0.00     0.007 A 
HETATM   40  C   UNK N   1      33.005  18.246   8.074  0.00  0.00     0.016 A 
HETATM   41  C   UNK N   1      34.329  17.900   8.340  0.00  0.00     0.018 A 
HETATM   42  C   UNK N   1      34.602  16.708   9.015  0.00  0.00     0.087 A 
HETATM   43  N   UNK N   1      33.583  15.897   9.408  0.00  0.00    -0.374 N 
HETATM   44  C   UNK N   1      32.287  16.218   9.163  0.00  0.00     0.101 A 
ATOM     45  HN  UNK N   1      33.799  15.028   9.897  1.00  0.00     0.164 HD
ENDBRANCH  33  39
ENDBRANCH   2  29
TORSDOF 6
ENDMDL
MODEL 6
REMARK VINA RESULT:      -8.9      4.169     11.914
REMARK  6 active torsions:
REMARK  status: ('A' for Active; 'I' for Inactive)
REMARK    1  A    between atoms: N_5  and  C_16 
REMARK    2  A    between atoms: N_6  and  C_17 
REMARK       I    between atoms: N_6  and  C_26 
REMARK    3  A    between atoms: N_7  and  C_23 
REMARK       I    between atoms: N_7  and  C_34 
REMARK    4  A    between atoms: C_18  and  C_30 
REMARK    5  A    between atoms: C_22  and  C_26 
REMARK    6  A    between atoms: C_36  and  C_37 
ROOT
HETATM    1  C   UNK N   1      34.769  15.294  10.909  0.00  0.00     0.034 A 
HETATM    2  C   UNK N   1      33.453  16.158   9.075  0.00  0.00     0.056 A 
HETATM    3  C   UNK N   1      34.267  17.306   9.039  0.00  0.00    -0.035 A 
HETATM    4  C   UNK N   1      33.736  15.186  10.006  0.00  0.00     0.047 A 
HETATM    5  C   UNK N   1      35.564  16.444  10.916  0.00  0.00     0.018 A 
HETATM    6  C   UNK N   1      35.314  17.450   9.970  0.00  0.00     0.010 A 
HETATM    7  C   UNK N   1      34.035  18.378   8.033  0.00  0.00     0.050 C 
ENDROOT
BRANCH   1   8
HETATM    8  C   UNK N   1      35.000  14.141  11.764  0.00  0.00     0.256 C 
HETATM    9  O   UNK N   1      34.198  13.219  11.797  0.00  0.00    -0.267 OA
HETATM   10  N   UNK N   1      36.129  14.139  12.530  0.00  0.00    -0.323 N 
HETATM   11  H   UNK N   1      36.761  14.883  12.404  0.00  0.00     0.169 HD
BRANCH  10  12
HETATM   12  C   UNK N   1      36.467  13.163  13.482  0.00  0.00     0.037 A 
HETATM   13  C   UNK N   1      36.088  13.313  14.800  0.00  0.00     0.059 A 
HETATM   14  C   UNK N   1      36.285  12.308  15.729  0.00  0.00     0.042 A 
HETATM   15  C   UNK N   1      36.877  11.096  15.315  0.00  0.00     0.046 A 
HETATM   16  C   UNK N   1      37.296  10.948  13.970  0.00  0.00     0.052 A 
HETATM   17  C   UNK N   1      37.092  11.994  13.067  0.00  0.00     0.046 A 
BRANCH  14  18
HETATM   18  N   UNK N   1      35.757  12.512  17.045  0.00  0.00    -0.317 N 
HETATM   19  C   UNK N   1      35.599  11.535  17.960  0.00  0.00     0.122 A 
HETATM   20  C   UNK N   1      35.160  12.127  19.110  0.00  0.00     0.022 A 
HETATM   21  N   UNK N   1      35.048  13.457  18.927  0.00  0.00    -0.354 N 
HETATM   22  C   UNK N   1      34.875  11.419  20.386  0.00  0.00     0.069 C 
HETATM   23  C   UNK N   1      35.421  13.670  17.645  0.00  0.00     0.188 A 
ATOM     24  HN  UNK N   1      34.746  14.153  19.609  1.00  0.00     0.166 HD
ENDBRANCH  14  18
BRANCH  16  25
HETATM   25  C   UNK N   1      37.864   9.665  13.440  0.00  0.00     0.417 C 
HETATM   26  F   UNK N   1      36.916   8.659  13.434  0.00  0.00    -0.166 F 
HETATM   27  F   UNK N   1      38.297   9.875  12.140  0.00  0.00    -0.166 F 
HETATM   28  F   UNK N   1      38.943   9.272  14.209  0.00  0.00    -0.166 F 
ENDBRANCH  16  25
ENDBRANCH  10  12
ENDBRANCH   1   8
BRANCH   2  29
HETATM   29  N   UNK N   1      32.339  15.985   8.202  0.00  0.00    -0.191 N 
HETATM   30  C   UNK N   1      31.097  16.685   8.342  0.00  0.00     0.683 A 
HETATM   31  N   UNK N   1      30.200  16.659   7.326  0.00  0.00    -0.191 N 
HETATM   32  N   UNK N   1      30.817  17.427   9.456  0.00  0.00    -0.202 N 
HETATM   33  C   UNK N   1      29.038  17.366   7.388  0.00  0.00     0.062 A 
ATOM     34  HN  UNK N   1      30.400  16.098   6.498  1.00  0.00     0.184 HD
HETATM   35  C   UNK N   1      28.751  18.130   8.526  0.00  0.00     0.048 A 
HETATM   36  C   UNK N   1      29.669  18.138   9.567  0.00  0.00     0.108 A 
ATOM     37  HN  UNK N   1      31.491  17.447  10.222  1.00  0.00     0.183 HD
HETATM   38  H   UNK N   1      32.429  15.347   7.458  0.00  0.00     0.184 HD
BRANCH  33  39
HETATM   39  C   UNK N   1      28.113  17.345   6.243  0.00  0.00     0.007 A 
HETATM   40  C   UNK N   1      26.909  16.631   6.292  0.00  0.00     0.016 A 
HETATM   41  C   UNK N   1      26.045  16.650   5.198  0.00  0.00     0.018 A 
HETATM   42  C   UNK N   1      26.397  17.380   4.061  0.00  0.00     0.087 A 
HETATM   43  N   UNK N   1      27.571  18.066   4.026  0.00  0.00    -0.374 N 
HETATM   44  C   UNK N   1      28.424  18.066   5.083  0.00  0.00     0.101 A 
ATOM     45  HN  UNK N   1      27.815  18.593   3.187  1.00  0.00     0.164 HD
ENDBRANCH  33  39
ENDBRANCH   2  29
TORSDOF 6
ENDMDL
MODEL 7
REMARK VINA RESULT:      -8.8      6.659     11.198
REMARK  6 active torsions:
REMARK  status: ('A' for Active; 'I' for Inactive)
REMARK    1  A    between atoms: N_5  and  C_16 
REMARK    2  A    between atoms: N_6  and  C_17 
REMARK       I    between atoms: N_6  and  C_26 
REMARK    3  A    between atoms: N_7  and  C_23 
REMARK       I    between atoms: N_7  and  C_34 
REMARK    4  A    between atoms: C_18  and  C_30 
REMARK    5  A    between atoms: C_22  and  C_26 
REMARK    6  A    between atoms: C_36  and  C_37 
ROOT
HETATM    1  C   UNK N   1      24.594  16.950   4.866  0.00  0.00     0.034 A 
HETATM    2  C   UNK N   1      26.728  18.079   4.990  0.00  0.00     0.056 A 
HETATM    3  C   UNK N   1      26.145  19.231   4.430  0.00  0.00    -0.035 A 
HETATM    4  C   UNK N   1      25.930  16.977   5.197  0.00  0.00     0.047 A 
HETATM    5  C   UNK N   1      24.005  18.070   4.271  0.00  0.00     0.018 A 
HETATM    6  C   UNK N   1      24.786  19.218   4.060  0.00  0.00     0.010 A 
HETATM    7  C   UNK N   1      26.946  20.466   4.214  0.00  0.00     0.050 C 
ENDROOT
BRANCH   1   8
HETATM    8  C   UNK N   1      23.864  15.748   5.235  0.00  0.00     0.256 C 
HETATM    9  O   UNK N   1      22.642  15.743   5.260  0.00  0.00    -0.267 OA
HETATM   10  N   UNK N   1      24.595  14.643   5.564  0.00  0.00    -0.323 N 
HETATM   11  H   UNK N   1      25.572  14.700   5.460  0.00  0.00     0.169 HD
BRANCH  10  12
HETATM   12  C   UNK N   1      24.069  13.429   6.038  0.00  0.00     0.037 A 
HETATM   13  C   UNK N   1      23.718  13.292   7.365  0.00  0.00     0.059 A 
HETATM   14  C   UNK N   1      23.073  12.161   7.830  0.00  0.00     0.042 A 
HETATM   15  C   UNK N   1      22.755  11.129   6.921  0.00  0.00     0.046 A 
HETATM   16  C   UNK N   1      23.140  11.251   5.564  0.00  0.00     0.052 A 
HETATM   17  C   UNK N   1      23.804  12.404   5.139  0.00  0.00     0.046 A 
BRANCH  14  18
HETATM   18  N   UNK N   1      22.650  12.157   9.199  0.00  0.00    -0.317 N 
HETATM   19  C   UNK N   1      23.459  11.890  10.243  0.00  0.00     0.122 A 
HETATM   20  C   UNK N   1      22.724  12.071  11.380  0.00  0.00     0.022 A 
HETATM   21  N   UNK N   1      21.472  12.452  11.060  0.00  0.00    -0.354 N 
HETATM   22  C   UNK N   1      23.232  11.903  12.767  0.00  0.00     0.069 C 
HETATM   23  C   UNK N   1      21.450  12.497   9.708  0.00  0.00     0.188 A 
ATOM     24  HN  UNK N   1      20.705  12.660  11.699  1.00  0.00     0.166 HD
ENDBRANCH  14  18
BRANCH  16  25
HETATM   25  C   UNK N   1      22.772  10.232   4.528  0.00  0.00     0.417 C 
HETATM   26  F   UNK N   1      23.381   9.017   4.777  0.00  0.00    -0.166 F 
HETATM   27  F   UNK N   1      21.398  10.052   4.550  0.00  0.00    -0.166 F 
HETATM   28  F   UNK N   1      23.141  10.679   3.273  0.00  0.00    -0.166 F 
ENDBRANCH  16  25
ENDBRANCH  10  12
ENDBRANCH   1   8
BRANCH   2  29
HETATM   29  N   UNK N   1      28.112  18.010   5.324  0.00  0.00    -0.191 N 
HETATM   30  C   UNK N   1      28.613  18.033   6.666  0.00  0.00     0.683 A 
HETATM   31  N   UNK N   1      29.906  17.700   6.900  0.00  0.00    -0.191 N 
HETATM   32  N   UNK N   1      27.802  18.330   7.726  0.00  0.00    -0.202 N 
HETATM   33  C   UNK N   1      30.405  17.640   8.166  0.00  0.00     0.062 A 
ATOM     34  HN  UNK N   1      30.517  17.488   6.112  1.00  0.00     0.184 HD
HETATM   35  C   UNK N   1      29.575  17.939   9.252  0.00  0.00     0.048 A 
HETATM   36  C   UNK N   1      28.257  18.295   9.002  0.00  0.00     0.108 A 
ATOM     37  HN  UNK N   1      26.828  18.582   7.552  1.00  0.00     0.183 HD
HETATM   38  H   UNK N   1      28.763  17.943   4.589  0.00  0.00     0.184 HD
BRANCH  33  39
HETATM   39  C   UNK N   1      31.802  17.230   8.377  0.00  0.00     0.007 A 
HETATM   40  C   UNK N   1      32.866  18.099   8.104  0.00  0.00     0.016 A 
HETATM   41  C   UNK N   1      34.178  17.686   8.335  0.00  0.00     0.018 A 
HETATM   42  C   UNK N   1      34.413  16.403   8.834  0.00  0.00     0.087 A 
HETATM   43  N   UNK N   1      33.370  15.568   9.092  0.00  0.00    -0.374 N 
HETATM   44  C   UNK N   1      32.085  15.953   8.879  0.00  0.00     0.101 A 
ATOM     45  HN  UNK N   1      33.559  14.633   9.453  1.00  0.00     0.164 HD
ENDBRANCH  33  39
ENDBRANCH   2  29
TORSDOF 6
ENDMDL
MODEL 8
REMARK VINA RESULT:      -8.5      6.683     11.535
REMARK  6 active torsions:
REMARK  status: ('A' for Active; 'I' for Inactive)
REMARK    1  A    between atoms: N_5  and  C_16 
REMARK    2  A    between atoms: N_6  and  C_17 
REMARK       I    between atoms: N_6  and  C_26 
REMARK    3  A    between atoms: N_7  and  C_23 
REMARK       I    between atoms: N_7  and  C_34 
REMARK    4  A    between atoms: C_18  and  C_30 
REMARK    5  A    between atoms: C_22  and  C_26 
REMARK    6  A    between atoms: C_36  and  C_37 
ROOT
HETATM    1  C   UNK N   1      23.720  17.763   4.779  0.00  0.00     0.034 A 
HETATM    2  C   UNK N   1      26.039  18.371   4.471  0.00  0.00     0.056 A 
HETATM    3  C   UNK N   1      25.637  19.538   3.793  0.00  0.00    -0.035 A 
HETATM    4  C   UNK N   1      25.065  17.525   4.948  0.00  0.00     0.047 A 
HETATM    5  C   UNK N   1      23.301  18.895   4.073  0.00  0.00     0.018 A 
HETATM    6  C   UNK N   1      24.267  19.789   3.586  0.00  0.00     0.010 A 
HETATM    7  C   UNK N   1      26.641  20.511   3.283  0.00  0.00     0.050 C 
ENDROOT
BRANCH   1   8
HETATM    8  C   UNK N   1      22.815  16.826   5.425  0.00  0.00     0.256 C 
HETATM    9  O   UNK N   1      21.702  17.182   5.786  0.00  0.00    -0.267 OA
HETATM   10  N   UNK N   1      23.261  15.552   5.623  0.00  0.00    -0.323 N 
HETATM   11  H   UNK N   1      24.141  15.319   5.249  0.00  0.00     0.169 HD
BRANCH  10  12
HETATM   12  C   UNK N   1      22.569  14.544   6.314  0.00  0.00     0.037 A 
HETATM   13  C   UNK N   1      21.637  13.765   5.662  0.00  0.00     0.059 A 
HETATM   14  C   UNK N   1      21.042  12.678   6.278  0.00  0.00     0.042 A 
HETATM   15  C   UNK N   1      21.408  12.354   7.602  0.00  0.00     0.046 A 
HETATM   16  C   UNK N   1      22.341  13.170   8.287  0.00  0.00     0.052 A 
HETATM   17  C   UNK N   1      22.907  14.266   7.633  0.00  0.00     0.046 A 
BRANCH  14  18
HETATM   18  N   UNK N   1      20.170  11.864   5.484  0.00  0.00    -0.317 N 
HETATM   19  C   UNK N   1      19.264  12.348   4.611  0.00  0.00     0.122 A 
HETATM   20  C   UNK N   1      18.695  11.276   3.986  0.00  0.00     0.022 A 
HETATM   21  N   UNK N   1      19.235  10.133   4.452  0.00  0.00    -0.354 N 
HETATM   22  C   UNK N   1      17.654  11.353   2.927  0.00  0.00     0.069 C 
HETATM   23  C   UNK N   1      20.142  10.522   5.376  0.00  0.00     0.188 A 
ATOM     24  HN  UNK N   1      19.007   9.180   4.169  1.00  0.00     0.166 HD
ENDBRANCH  14  18
BRANCH  16  25
HETATM   25  C   UNK N   1      22.833  12.846   9.666  0.00  0.00     0.417 C 
HETATM   26  F   UNK N   1      24.123  13.303   9.861  0.00  0.00    -0.166 F 
HETATM   27  F   UNK N   1      22.002  13.458  10.590  0.00  0.00    -0.166 F 
HETATM   28  F   UNK N   1      22.797  11.479   9.873  0.00  0.00    -0.166 F 
ENDBRANCH  16  25
ENDBRANCH  10  12
ENDBRANCH   1   8
BRANCH   2  29
HETATM   29  N   UNK N   1      27.411  18.030   4.655  0.00  0.00    -0.191 N 
HETATM   30  C   UNK N   1      28.099  18.132   5.907  0.00  0.00     0.683 A 
HETATM   31  N   UNK N   1      29.312  17.542   6.049  0.00  0.00    -0.191 N 
HETATM   32  N   UNK N   1      27.536  18.760   6.982  0.00  0.00    -0.202 N 
HETATM   33  C   UNK N   1      29.969  17.553   7.242  0.00  0.00     0.062 A 
ATOM     34  HN  UNK N   1      29.740  17.082   5.247  1.00  0.00     0.184 HD
HETATM   35  C   UNK N   1      29.393  18.192   8.345  0.00  0.00     0.048 A 
HETATM   36  C   UNK N   1      28.158  18.806   8.186  0.00  0.00     0.108 A 
ATOM     37  HN  UNK N   1      26.623  19.205   6.877  1.00  0.00     0.183 HD
HETATM   38  H   UNK N   1      27.916  17.707   3.874  0.00  0.00     0.184 HD
BRANCH  33  39
HETATM   39  C   UNK N   1      31.263  16.863   7.363  0.00  0.00     0.007 A 
HETATM   40  C   UNK N   1      31.713  16.370   8.595  0.00  0.00     0.016 A 
HETATM   41  C   UNK N   1      32.934  15.702   8.672  0.00  0.00     0.018 A 
HETATM   42  C   UNK N   1      33.697  15.535   7.515  0.00  0.00     0.087 A 
HETATM   43  N   UNK N   1      33.250  16.021   6.325  0.00  0.00    -0.374 N 
HETATM   44  C   UNK N   1      32.060  16.670   6.228  0.00  0.00     0.101 A 
ATOM     45  HN  UNK N   1      33.820  15.894   5.489  1.00  0.00     0.164 HD
ENDBRANCH  33  39
ENDBRANCH   2  29
TORSDOF 6
ENDMDL
MODEL 9
REMARK VINA RESULT:      -8.4      2.881      4.023
REMARK  6 active torsions:
REMARK  status: ('A' for Active; 'I' for Inactive)
REMARK    1  A    between atoms: N_5  and  C_16 
REMARK    2  A    between atoms: N_6  and  C_17 
REMARK       I    between atoms: N_6  and  C_26 
REMARK    3  A    between atoms: N_7  and  C_23 
REMARK       I    between atoms: N_7  and  C_34 
REMARK    4  A    between atoms: C_18  and  C_30 
REMARK    5  A    between atoms: C_22  and  C_26 
REMARK    6  A    between atoms: C_36  and  C_37 
ROOT
HETATM    1  C   UNK N   1      34.508  14.874   7.272  0.00  0.00     0.034 A 
HETATM    2  C   UNK N   1      35.456  14.419   9.448  0.00  0.00     0.056 A 
HETATM    3  C   UNK N   1      36.676  14.073   8.838  0.00  0.00    -0.035 A 
HETATM    4  C   UNK N   1      34.413  14.816   8.644  0.00  0.00     0.047 A 
HETATM    5  C   UNK N   1      35.698  14.496   6.644  0.00  0.00     0.018 A 
HETATM    6  C   UNK N   1      36.789  14.102   7.435  0.00  0.00     0.010 A 
HETATM    7  C   UNK N   1      37.853  13.670   9.655  0.00  0.00     0.050 C 
ENDROOT
BRANCH   1   8
HETATM    8  C   UNK N   1      33.351  15.405   6.569  0.00  0.00     0.256 C 
HETATM    9  O   UNK N   1      33.448  16.409   5.879  0.00  0.00    -0.267 OA
HETATM   10  N   UNK N   1      32.163  14.751   6.725  0.00  0.00    -0.323 N 
HETATM   11  H   UNK N   1      32.174  13.914   7.243  0.00  0.00     0.169 HD
BRANCH  10  12
HETATM   12  C   UNK N   1      30.927  15.171   6.206  0.00  0.00     0.037 A 
HETATM   13  C   UNK N   1      30.243  16.215   6.793  0.00  0.00     0.059 A 
HETATM   14  C   UNK N   1      29.096  16.740   6.226  0.00  0.00     0.042 A 
HETATM   15  C   UNK N   1      28.623  16.200   5.011  0.00  0.00     0.046 A 
HETATM   16  C   UNK N   1      29.303  15.107   4.421  0.00  0.00     0.052 A 
HETATM   17  C   UNK N   1      30.449  14.598   5.035  0.00  0.00     0.046 A 
BRANCH  14  18
HETATM   18  N   UNK N   1      28.520  17.895   6.847  0.00  0.00    -0.317 N 
HETATM   19  C   UNK N   1      28.039  18.959   6.175  0.00  0.00     0.122 A 
HETATM   20  C   UNK N   1      27.496  19.807   7.097  0.00  0.00     0.022 A 
HETATM   21  N   UNK N   1      27.626  19.285   8.332  0.00  0.00    -0.354 N 
HETATM   22  C   UNK N   1      26.832  21.101   6.788  0.00  0.00     0.069 C 
HETATM   23  C   UNK N   1      28.263  18.106   8.152  0.00  0.00     0.188 A 
ATOM     24  HN  UNK N   1      27.314  19.693   9.214  1.00  0.00     0.166 HD
ENDBRANCH  14  18
BRANCH  16  25
HETATM   25  C   UNK N   1      28.903  14.531   3.096  0.00  0.00     0.417 C 
HETATM   26  F   UNK N   1      28.053  13.452   3.251  0.00  0.00    -0.166 F 
HETATM   27  F   UNK N   1      28.248  15.509   2.365  0.00  0.00    -0.166 F 
HETATM   28  F   UNK N   1      30.026  14.131   2.395  0.00  0.00    -0.166 F 
ENDBRANCH  16  25
ENDBRANCH  10  12
ENDBRANCH   1   8
BRANCH   2  29
HETATM   29  N   UNK N   1      35.261  14.348  10.859  0.00  0.00    -0.191 N 
HETATM   30  C   UNK N   1      34.907  13.148  11.558  0.00  0.00     0.683 A 
HETATM   31  N   UNK N   1      35.002  13.113  12.909  0.00  0.00    -0.191 N 
HETATM   32  N   UNK N   1      34.528  12.018  10.889  0.00  0.00    -0.202 N 
HETATM   33  C   UNK N   1      34.743  11.974  13.609  0.00  0.00     0.062 A 
ATOM     34  HN  UNK N   1      35.274  13.957  13.413  1.00  0.00     0.184 HD
HETATM   35  C   UNK N   1      34.360  10.814  12.926  0.00  0.00     0.048 A 
HETATM   36  C   UNK N   1      34.250  10.864  11.543  0.00  0.00     0.108 A 
ATOM     37  HN  UNK N   1      34.455  12.043   9.871  1.00  0.00     0.183 HD
HETATM   38  H   UNK N   1      35.377  15.172  11.385  0.00  0.00     0.184 HD
BRANCH  33  39
HETATM   39  C   UNK N   1      34.903  11.967  15.072  0.00  0.00     0.007 A 
HETATM   40  C   UNK N   1      34.875  13.156  15.813  0.00  0.00     0.016 A 
HETATM   41  C   UNK N   1      35.008  13.113  17.200  0.00  0.00     0.018 A 
HETATM   42  C   UNK N   1      35.172  11.879  17.834  0.00  0.00     0.087 A 
HETATM   43  N   UNK N   1      35.200  10.733  17.101  0.00  0.00    -0.374 N 
HETATM   44  C   UNK N   1      35.067  10.753  15.750  0.00  0.00     0.101 A 
ATOM     45  HN  UNK N   1      35.324   9.840  17.578  1.00  0.00     0.164 HD
ENDBRANCH  33  39
ENDBRANCH   2  29
TORSDOF 6
ENDMDL
