REMARK  5 active torsions:
REMARK  status: ('A' for Active; 'I' for Inactive)
REMARK    1  A    between atoms: O_2  and  C_19 
REMARK    2  A    between atoms: C_9  and  C_14 
REMARK    3  A    between atoms: C_10  and  C_15 
REMARK    4  A    between atoms: C_13  and  C_16 
REMARK    5  A    between atoms: C_14  and  C_19 
ROOT
HETATM    1  N   UNK N   1       7.076   0.633   0.180  0.00  0.00    -0.351 N 
HETATM    2  C   UNK N   1       9.310  -0.035   0.171  0.00  0.00    -0.026 A 
HETATM    3  C   UNK N   1       8.392   1.214   0.212  0.00  0.00     0.138 A 
HETATM    4  C   UNK N   1       8.407  -1.282  -0.019  0.00  0.00     0.068 A 
HETATM    5  C   UNK N   1       7.066  -0.670   0.057  0.00  0.00     0.024 A 
HETATM    6  C   UNK N   1       5.811   1.079   0.264  0.00  0.00     0.033 A 
HETATM    7  C   UNK N   1       5.771  -1.168   0.074  0.00  0.00     0.010 A 
HETATM    8  C   UNK N   1      10.047  -0.154   1.489  0.00  0.00     0.016 C 
HETATM    9  C   UNK N   1      10.310   0.075  -0.963  0.00  0.00     0.016 C 
HETATM   10  C   UNK N   1       4.933  -0.018   0.173  0.00  0.00     0.010 A 
ENDROOT
BRANCH  10  11
HETATM   11  C   UNK N   1       3.436   0.081   0.138  0.00  0.00    -0.023 A 
HETATM   12  C   UNK N   1       2.642  -1.023  -0.196  0.00  0.00     0.014 A 
HETATM   13  C   UNK N   1       1.256  -0.914  -0.313  0.00  0.00     0.024 A 
HETATM   14  C   UNK N   1       0.637   0.318  -0.112  0.00  0.00     0.034 A 
HETATM   15 Cl   UNK N   1      -1.099   0.460  -0.279  0.00  0.00    -0.084 Cl
HETATM   16  C   UNK N   1       1.408   1.437   0.210  0.00  0.00     0.024 A 
HETATM   17  C   UNK N   1       2.797   1.319   0.328  0.00  0.00     0.014 A 
ENDBRANCH  10  11
BRANCH   6  18
HETATM   18  C   UNK N   1       5.444   2.524   0.465  0.00  0.00     0.168 C 
BRANCH  18  19
HETATM   19  C   UNK N   1       5.889   3.434  -0.635  0.00  0.00     0.145 C 
HETATM   20  O   UNK N   1       7.077   3.619  -0.843  0.00  0.00    -0.650 OA
BRANCH  19  21
HETATM   21  O   UNK N   1       4.973   4.112  -1.349  0.00  0.00    -0.776 OA
HETATM   22  H   UNK N   1       5.063   4.901  -1.847  0.00  0.00     0.167 HD
ENDBRANCH  19  21
ENDBRANCH  18  19
ENDBRANCH   6  18
BRANCH   7  23
HETATM   23  C   UNK N   1       5.457  -2.630   0.062  0.00  0.00    -0.023 A 
HETATM   24  C   UNK N   1       6.429  -3.555  -0.355  0.00  0.00     0.012 A 
HETATM   25  C   UNK N   1       6.180  -4.930  -0.302  0.00  0.00     0.001 A 
HETATM   26  C   UNK N   1       4.964  -5.400   0.197  0.00  0.00     0.000 A 
HETATM   27  C   UNK N   1       3.999  -4.496   0.639  0.00  0.00     0.001 A 
HETATM   28  C   UNK N   1       4.250  -3.123   0.574  0.00  0.00     0.012 A 
ENDBRANCH   7  23
TORSDOF 5
