REMARK  9 active torsions:
REMARK  status: ('A' for Active; 'I' for Inactive)
REMARK    1  A    between atoms: O_2  and  C_24 
REMARK       I    between atoms: N_3  and  C_14 
REMARK    2  A    between atoms: C_18  and  N_3 
REMARK    3  A    between atoms: N_4  and  C_19 
REMARK    4  A    between atoms: C_7  and  C_10 
REMARK    5  A    between atoms: C_10  and  C_13 
REMARK    6  A    between atoms: C_10  and  C_14 
REMARK    7  A    between atoms: C_17  and  C_19 
REMARK    8  A    between atoms: C_18  and  C_24 
REMARK    9  A    between atoms: C_18  and  C_25 
ROOT
HETATM    1  C   UNK N   1       5.140   2.780  -0.199  0.00  0.00    -0.044 A 
HETATM    2  C   UNK N   1       6.217   2.032  -0.676  0.00  0.00     0.017 A 
HETATM    3  C   UNK N   1       5.396   3.963   0.512  0.00  0.00     0.008 A 
HETATM    4  C   UNK N   1       7.538   2.411  -0.440  0.00  0.00    -0.039 A 
HETATM    5  C   UNK N   1       6.719   4.361   0.753  0.00  0.00     0.001 A 
HETATM    6  C   UNK N   1       7.789   3.588   0.277  0.00  0.00     0.009 A 
ENDROOT
BRANCH   1   7
HETATM    7  C   UNK N   1       3.745   2.271  -0.487  0.00  0.00     0.115 C 
BRANCH   7   8
HETATM    8  C   UNK N   1       2.602   3.281  -0.278  0.00  0.00     0.003 C 
HETATM    9  C   UNK N   1       1.289   2.746  -0.807  0.00  0.00     0.006 C 
HETATM   10  C   UNK N   1       0.216   3.506  -0.052  0.00  0.00     0.000 C 
HETATM   11  C   UNK N   1       0.896   4.157   1.144  0.00  0.00     0.000 C 
HETATM   12  C   UNK N   1       2.319   3.637   1.164  0.00  0.00     0.006 C 
ENDBRANCH   7   8
BRANCH   7  13
HETATM   13  C   UNK N   1       3.508   0.955   0.216  0.00  0.00     0.227 C 
HETATM   14  O   UNK N   1       3.472   0.917   1.438  0.00  0.00    -0.273 OA
HETATM   15  N   UNK N   1       3.365  -0.178  -0.523  0.00  0.00    -0.350 N 
HETATM   16  H   UNK N   1       3.381  -0.082  -1.503  0.00  0.00     0.163 HD
BRANCH  15  17
HETATM   17  C   UNK N   1       3.191  -1.521   0.013  0.00  0.00     0.141 C 
BRANCH  17  18
HETATM   18  C   UNK N   1       3.987  -1.784   1.290  0.00  0.00     0.194 C 
BRANCH  18  19
HETATM   19  O   UNK N   1       4.027  -3.153   1.555  0.00  0.00    -0.399 OA
HETATM   20  H   UNK N   1       3.216  -3.653   1.740  0.00  0.00     0.209 HD
ENDBRANCH  18  19
ENDBRANCH  17  18
BRANCH  17  21
HETATM   21  C   UNK N   1       1.751  -1.923   0.102  0.00  0.00    -0.033 A 
HETATM   22  C   UNK N   1       1.312  -3.035  -0.625  0.00  0.00     0.009 A 
HETATM   23  C   UNK N   1      -0.021  -3.448  -0.544  0.00  0.00     0.001 A 
HETATM   24  C   UNK N   1      -0.922  -2.746   0.261  0.00  0.00     0.000 A 
HETATM   25  C   UNK N   1      -0.489  -1.631   0.987  0.00  0.00     0.001 A 
HETATM   26  C   UNK N   1       0.847  -1.221   0.912  0.00  0.00     0.009 A 
ENDBRANCH  17  21
ENDBRANCH  15  17
ENDBRANCH   7  13
ENDBRANCH   1   7
BRANCH   4  27
HETATM   27  C   UNK N   1       8.676   1.638  -1.059  0.00  0.00     0.169 C 
BRANCH  27  28
HETATM   28  N   UNK N   1       8.687   0.197  -0.761  0.00  0.00    -0.327 N 
HETATM   29  C   UNK N   1       7.758  -0.743  -1.083  0.00  0.00     0.047 A 
HETATM   30  C   UNK N   1       8.175  -1.997  -0.680  0.00  0.00     0.005 A 
HETATM   31  C   UNK N   1       6.549  -0.573  -1.757  0.00  0.00     0.030 A 
HETATM   32  C   UNK N   1       9.419  -1.836  -0.116  0.00  0.00     0.027 A 
HETATM   33  C   UNK N   1       7.406  -3.138  -0.900  0.00  0.00     0.014 A 
HETATM   34  C   UNK N   1       9.701  -0.489  -0.179  0.00  0.00     0.120 A 
HETATM   35  C   UNK N   1      10.341  -2.735   0.417  0.00  0.00    -0.045 A 
HETATM   36  N   UNK N   1      10.880   0.022   0.259  0.00  0.00    -0.345 N 
HETATM   37  C   UNK N   1      11.817  -0.828   0.785  0.00  0.00     0.007 A 
ATOM     38  HN  UNK N   1      11.064   1.023   0.198  1.00  0.00     0.167 HD
HETATM   39  C   UNK N   1      11.563  -2.216   0.872  0.00  0.00     0.032 A 
HETATM   40  C   UNK N   1      13.123  -0.293   1.251  0.00  0.00     0.068 C 
HETATM   41  C   UNK N   1      10.072  -4.199   0.478  0.00  0.00     0.049 C 
HETATM   42  C   UNK N   1       6.173  -2.981  -1.557  0.00  0.00     0.001 A 
HETATM   43  C   UNK N   1       5.752  -1.706  -1.990  0.00  0.00     0.002 A 
ENDBRANCH  27  28
ENDBRANCH   4  27
TORSDOF 9
