MODEL 1
REMARK VINA RESULT:      -6.7      0.000      0.000
REMARK  5 active torsions:
REMARK  status: ('A' for Active; 'I' for Inactive)
REMARK    1  A    between atoms: C_14  and  O_3 
REMARK    2  A    between atoms: C_15  and  O_4 
REMARK    3  A    between atoms: O_5  and  C_17 
REMARK    4  A    between atoms: C_13  and  N_8 
REMARK       I    between atoms: N_12  and  C_22 
REMARK    5  A    between atoms: C_16  and  C_17 
ROOT
HETATM    1  S   UNK N   1      32.293  15.199   6.207  0.00  0.00    -0.019 SA
HETATM    2  O   UNK N   1      34.401  14.209   7.265  0.00  0.00    -0.259 OA
HETATM    3  O   UNK N   1      29.638  16.776   5.698  0.00  0.00    -0.266 OA
HETATM    4  N   UNK N   1      33.118  15.658   8.525  0.00  0.00    -0.262 N 
HETATM    5  N   UNK N   1      31.375  17.181   9.266  0.00  0.00    -0.175 N 
HETATM    6  N   UNK N   1      29.630  17.717   7.745  0.00  0.00    -0.155 N 
ATOM      7  HN  UNK N   1      28.769  18.225   7.542  1.00  0.00     0.187 HD
HETATM    8  N   UNK N   1      29.654  18.715   9.930  0.00  0.00    -0.234 N 
HETATM    9  C   UNK N   1      31.944  16.375   8.336  0.00  0.00     0.151 A 
HETATM   10  C   UNK N   1      33.435  14.941   7.384  0.00  0.00     0.295 A 
HETATM   11  C   UNK N   1      31.350  16.231   7.085  0.00  0.00     0.123 A 
HETATM   12  C   UNK N   1      30.176  16.901   6.783  0.00  0.00     0.280 A 
HETATM   13  C   UNK N   1      30.225  17.858   8.970  0.00  0.00     0.680 A 
HETATM   14  H   UNK N   1      31.790  17.278  10.153  0.00  0.00     0.186 HD
HETATM   15  H   UNK N   1      30.118  18.901  10.777  0.00  0.00     0.174 HD
HETATM   16  H   UNK N   1      28.779  19.132   9.752  0.00  0.00     0.174 HD
ENDROOT
BRANCH   4  17
HETATM   17  C   UNK N   1      33.890  15.635   9.790  0.00  0.00     0.265 C 
HETATM   18  O   UNK N   1      34.047  14.316  10.291  0.00  0.00    -0.353 OA
HETATM   19  C   UNK N   1      35.421  14.173  10.574  0.00  0.00     0.179 C 
HETATM   20  C   UNK N   1      35.960  15.556  10.786  0.00  0.00     0.182 C 
HETATM   21  C   UNK N   1      35.277  16.248   9.666  0.00  0.00     0.198 C 
BRANCH  19  22
HETATM   22  C   UNK N   1      35.637  13.332  11.818  0.00  0.00     0.198 C 
BRANCH  22  23
HETATM   23  O   UNK N   1      34.527  13.437  12.657  0.00  0.00    -0.398 OA
HETATM   24  H   UNK N   1      33.806  14.055  12.460  0.00  0.00     0.209 HD
ENDBRANCH  22  23
ENDBRANCH  19  22
BRANCH  20  25
HETATM   25  O   UNK N   1      37.346  15.604  10.647  0.00  0.00    -0.390 OA
HETATM   26  H   UNK N   1      38.125  15.077  10.887  0.00  0.00     0.210 HD
ENDBRANCH  20  25
BRANCH  21  27
HETATM   27  O   UNK N   1      35.254  17.620   9.917  0.00  0.00    -0.388 OA
HETATM   28  H   UNK N   1      35.332  18.031  10.792  0.00  0.00     0.210 HD
ENDBRANCH  21  27
ENDBRANCH   4  17
TORSDOF 5
ENDMDL
MODEL 2
REMARK VINA RESULT:      -6.6      2.566      6.277
REMARK  5 active torsions:
REMARK  status: ('A' for Active; 'I' for Inactive)
REMARK    1  A    between atoms: C_14  and  O_3 
REMARK    2  A    between atoms: C_15  and  O_4 
REMARK    3  A    between atoms: O_5  and  C_17 
REMARK    4  A    between atoms: C_13  and  N_8 
REMARK       I    between atoms: N_12  and  C_22 
REMARK    5  A    between atoms: C_16  and  C_17 
ROOT
HETATM    1  S   UNK N   1      32.261  14.238   6.373  0.00  0.00    -0.019 SA
HETATM    2  O   UNK N   1      30.036  15.339   5.757  0.00  0.00    -0.259 OA
HETATM    3  O   UNK N   1      35.040  13.579   7.653  0.00  0.00    -0.266 OA
HETATM    4  N   UNK N   1      31.344  16.338   7.378  0.00  0.00    -0.262 N 
HETATM    5  N   UNK N   1      33.143  16.847   8.930  0.00  0.00    -0.175 N 
HETATM    6  N   UNK N   1      35.001  15.368   9.022  0.00  0.00    -0.155 N 
ATOM      7  HN  UNK N   1      35.904  15.119   9.425  1.00  0.00     0.187 HD
HETATM    8  N   UNK N   1      34.925  17.277  10.478  0.00  0.00    -0.234 N 
HETATM    9  C   UNK N   1      32.572  16.078   7.970  0.00  0.00     0.151 A 
HETATM   10  C   UNK N   1      31.042  15.361   6.444  0.00  0.00     0.295 A 
HETATM   11  C   UNK N   1      33.223  14.932   7.521  0.00  0.00     0.123 A 
HETATM   12  C   UNK N   1      34.454  14.572   8.044  0.00  0.00     0.280 A 
HETATM   13  C   UNK N   1      34.351  16.490   9.462  0.00  0.00     0.680 A 
HETATM   14  H   UNK N   1      32.688  17.662   9.243  0.00  0.00     0.186 HD
HETATM   15  H   UNK N   1      34.430  18.031  10.872  0.00  0.00     0.174 HD
HETATM   16  H   UNK N   1      35.834  17.072  10.798  0.00  0.00     0.174 HD
ENDROOT
BRANCH   4  17
HETATM   17  C   UNK N   1      30.505  17.522   7.676  0.00  0.00     0.265 C 
HETATM   18  O   UNK N   1      29.679  17.878   6.578  0.00  0.00    -0.353 OA
HETATM   19  C   UNK N   1      28.379  18.025   7.105  0.00  0.00     0.179 C 
HETATM   20  C   UNK N   1      28.542  18.322   8.565  0.00  0.00     0.182 C 
HETATM   21  C   UNK N   1      29.603  17.338   8.888  0.00  0.00     0.198 C 
BRANCH  19  22
HETATM   22  C   UNK N   1      27.638  19.158   6.420  0.00  0.00     0.198 C 
BRANCH  22  23
HETATM   23  O   UNK N   1      27.079  20.003   7.379  0.00  0.00    -0.398 OA
HETATM   24  H   UNK N   1      26.517  20.751   7.123  0.00  0.00     0.209 HD
ENDBRANCH  22  23
ENDBRANCH  19  22
BRANCH  20  25
HETATM   25  O   UNK N   1      27.374  18.067   9.283  0.00  0.00    -0.390 OA
HETATM   26  H   UNK N   1      27.093  17.943  10.204  0.00  0.00     0.210 HD
ENDBRANCH  20  25
BRANCH  21  27
HETATM   27  O   UNK N   1      30.245  17.721  10.066  0.00  0.00    -0.388 OA
HETATM   28  H   UNK N   1      30.300  17.186  10.873  0.00  0.00     0.210 HD
ENDBRANCH  21  27
ENDBRANCH   4  17
TORSDOF 5
ENDMDL
MODEL 3
REMARK VINA RESULT:      -6.4      1.576      2.711
REMARK  5 active torsions:
REMARK  status: ('A' for Active; 'I' for Inactive)
REMARK    1  A    between atoms: C_14  and  O_3 
REMARK    2  A    between atoms: C_15  and  O_4 
REMARK    3  A    between atoms: O_5  and  C_17 
REMARK    4  A    between atoms: C_13  and  N_8 
REMARK       I    between atoms: N_12  and  C_22 
REMARK    5  A    between atoms: C_16  and  C_17 
ROOT
HETATM    1  S   UNK N   1      30.726  16.132   4.926  0.00  0.00    -0.019 SA
HETATM    2  O   UNK N   1      32.796  14.635   5.046  0.00  0.00    -0.259 OA
HETATM    3  O   UNK N   1      28.383  18.090   5.616  0.00  0.00    -0.266 OA
HETATM    4  N   UNK N   1      32.166  15.793   6.943  0.00  0.00    -0.262 N 
HETATM    5  N   UNK N   1      30.986  17.226   8.512  0.00  0.00    -0.175 N 
HETATM    6  N   UNK N   1      29.059  18.385   7.744  0.00  0.00    -0.155 N 
ATOM      7  HN  UNK N   1      28.290  19.028   7.933  1.00  0.00     0.187 HD
HETATM    8  N   UNK N   1      29.811  18.690  10.006  0.00  0.00    -0.234 N 
HETATM    9  C   UNK N   1      31.143  16.666   7.286  0.00  0.00     0.151 A 
HETATM   10  C   UNK N   1      32.049  15.409   5.618  0.00  0.00     0.295 A 
HETATM   11  C   UNK N   1      30.244  16.966   6.267  0.00  0.00     0.123 A 
HETATM   12  C   UNK N   1      29.184  17.828   6.495  0.00  0.00     0.280 A 
HETATM   13  C   UNK N   1      29.952  18.091   8.740  0.00  0.00     0.680 A 
HETATM   14  H   UNK N   1      31.617  17.010   9.236  0.00  0.00     0.186 HD
HETATM   15  H   UNK N   1      30.496  18.565  10.701  0.00  0.00     0.174 HD
HETATM   16  H   UNK N   1      29.017  19.241  10.198  0.00  0.00     0.174 HD
ENDROOT
BRANCH   4  17
HETATM   17  C   UNK N   1      33.205  15.310   7.883  0.00  0.00     0.265 C 
HETATM   18  O   UNK N   1      34.061  16.358   8.313  0.00  0.00    -0.353 OA
HETATM   19  C   UNK N   1      34.112  16.260   9.719  0.00  0.00     0.179 C 
HETATM   20  C   UNK N   1      33.769  14.842  10.062  0.00  0.00     0.182 C 
HETATM   21  C   UNK N   1      32.636  14.642   9.126  0.00  0.00     0.198 C 
BRANCH  19  22
HETATM   22  C   UNK N   1      35.496  16.604  10.239  0.00  0.00     0.198 C 
BRANCH  22  23
HETATM   23  O   UNK N   1      35.750  17.961  10.043  0.00  0.00    -0.398 OA
HETATM   24  H   UNK N   1      35.297  18.638  10.569  0.00  0.00     0.209 HD
ENDBRANCH  22  23
ENDBRANCH  19  22
BRANCH  20  25
HETATM   25  O   UNK N   1      33.365  14.709  11.390  0.00  0.00    -0.390 OA
HETATM   26  H   UNK N   1      33.503  15.146  12.245  0.00  0.00     0.210 HD
ENDBRANCH  20  25
BRANCH  21  27
HETATM   27  O   UNK N   1      32.437  13.276   8.927  0.00  0.00    -0.388 OA
HETATM   28  H   UNK N   1      33.141  12.614   8.843  0.00  0.00     0.210 HD
ENDBRANCH  21  27
ENDBRANCH   4  17
TORSDOF 5
ENDMDL
MODEL 4
REMARK VINA RESULT:      -6.4      3.776      7.068
REMARK  5 active torsions:
REMARK  status: ('A' for Active; 'I' for Inactive)
REMARK    1  A    between atoms: C_14  and  O_3 
REMARK    2  A    between atoms: C_15  and  O_4 
REMARK    3  A    between atoms: O_5  and  C_17 
REMARK    4  A    between atoms: C_13  and  N_8 
REMARK       I    between atoms: N_12  and  C_22 
REMARK    5  A    between atoms: C_16  and  C_17 
ROOT
HETATM    1  S   UNK N   1      32.836  16.991   4.165  0.00  0.00    -0.019 SA
HETATM    2  O   UNK N   1      30.920  16.419   2.570  0.00  0.00    -0.259 OA
HETATM    3  O   UNK N   1      34.527  17.760   6.685  0.00  0.00    -0.266 OA
HETATM    4  N   UNK N   1      30.418  16.828   4.788  0.00  0.00    -0.262 N 
HETATM    5  N   UNK N   1      30.586  17.362   7.152  0.00  0.00    -0.175 N 
HETATM    6  N   UNK N   1      32.738  17.812   8.053  0.00  0.00    -0.155 N 
ATOM      7  HN  UNK N   1      33.320  18.052   8.856  1.00  0.00     0.187 HD
HETATM    8  N   UNK N   1      30.814  17.848   9.491  0.00  0.00    -0.234 N 
HETATM    9  C   UNK N   1      31.134  17.167   5.927  0.00  0.00     0.151 A 
HETATM   10  C   UNK N   1      31.270  16.694   3.705  0.00  0.00     0.295 A 
HETATM   11  C   UNK N   1      32.509  17.297   5.754  0.00  0.00     0.123 A 
HETATM   12  C   UNK N   1      33.324  17.631   6.823  0.00  0.00     0.280 A 
HETATM   13  C   UNK N   1      31.386  17.675   8.216  0.00  0.00     0.680 A 
HETATM   14  H   UNK N   1      29.613  17.277   7.275  0.00  0.00     0.186 HD
HETATM   15  H   UNK N   1      29.860  17.660   9.645  0.00  0.00     0.174 HD
HETATM   16  H   UNK N   1      31.375  18.161  10.238  0.00  0.00     0.174 HD
ENDROOT
BRANCH   4  17
HETATM   17  C   UNK N   1      28.944  16.679   4.738  0.00  0.00     0.265 C 
HETATM   18  O   UNK N   1      28.456  15.874   5.800  0.00  0.00    -0.353 OA
HETATM   19  C   UNK N   1      27.398  16.603   6.381  0.00  0.00     0.179 C 
HETATM   20  C   UNK N   1      26.897  17.542   5.326  0.00  0.00     0.182 C 
HETATM   21  C   UNK N   1      28.198  18.004   4.785  0.00  0.00     0.198 C 
BRANCH  19  22
HETATM   22  C   UNK N   1      26.282  15.679   6.832  0.00  0.00     0.198 C 
BRANCH  22  23
HETATM   23  O   UNK N   1      25.068  16.109   6.295  0.00  0.00    -0.398 OA
HETATM   24  H   UNK N   1      24.930  17.035   6.046  0.00  0.00     0.209 HD
ENDBRANCH  22  23
ENDBRANCH  19  22
BRANCH  20  25
HETATM   25  O   UNK N   1      26.166  18.597   5.869  0.00  0.00    -0.390 OA
HETATM   26  H   UNK N   1      26.291  19.530   6.103  0.00  0.00     0.210 HD
ENDBRANCH  20  25
BRANCH  21  27
HETATM   27  O   UNK N   1      28.007  18.529   3.507  0.00  0.00    -0.388 OA
HETATM   28  H   UNK N   1      27.692  19.425   3.311  0.00  0.00     0.210 HD
ENDBRANCH  21  27
ENDBRANCH   4  17
TORSDOF 5
ENDMDL
MODEL 5
REMARK VINA RESULT:      -6.3      1.752      2.141
REMARK  5 active torsions:
REMARK  status: ('A' for Active; 'I' for Inactive)
REMARK    1  A    between atoms: C_14  and  O_3 
REMARK    2  A    between atoms: C_15  and  O_4 
REMARK    3  A    between atoms: O_5  and  C_17 
REMARK    4  A    between atoms: C_13  and  N_8 
REMARK       I    between atoms: N_12  and  C_22 
REMARK    5  A    between atoms: C_16  and  C_17 
ROOT
HETATM    1  S   UNK N   1      35.091  15.187   6.162  0.00  0.00    -0.019 SA
HETATM    2  O   UNK N   1      36.569  13.856   7.769  0.00  0.00    -0.259 OA
HETATM    3  O   UNK N   1      32.878  17.029   4.935  0.00  0.00    -0.266 OA
HETATM    4  N   UNK N   1      34.858  15.131   8.653  0.00  0.00    -0.262 N 
HETATM    5  N   UNK N   1      32.947  16.611   8.901  0.00  0.00    -0.175 N 
HETATM    6  N   UNK N   1      31.998  17.559   6.939  0.00  0.00    -0.155 N 
ATOM      7  HN  UNK N   1      31.296  18.161   6.507  1.00  0.00     0.187 HD
HETATM    8  N   UNK N   1      31.088  18.116   9.092  0.00  0.00    -0.234 N 
HETATM    9  C   UNK N   1      33.864  15.957   8.146  0.00  0.00     0.151 A 
HETATM   10  C   UNK N   1      35.634  14.623   7.625  0.00  0.00     0.295 A 
HETATM   11  C   UNK N   1      33.854  16.101   6.761  0.00  0.00     0.123 A 
HETATM   12  C   UNK N   1      32.907  16.903   6.145  0.00  0.00     0.280 A 
HETATM   13  C   UNK N   1      32.020  17.417   8.301  0.00  0.00     0.680 A 
HETATM   14  H   UNK N   1      32.948  16.505   9.879  0.00  0.00     0.186 HD
HETATM   15  H   UNK N   1      31.150  18.101  10.074  0.00  0.00     0.174 HD
HETATM   16  H   UNK N   1      30.365  18.625   8.657  0.00  0.00     0.174 HD
ENDROOT
BRANCH   4  17
HETATM   17  C   UNK N   1      35.026  14.807  10.089  0.00  0.00     0.265 C 
HETATM   18  O   UNK N   1      34.472  13.542  10.416  0.00  0.00    -0.353 OA
HETATM   19  C   UNK N   1      35.473  12.857  11.135  0.00  0.00     0.179 C 
HETATM   20  C   UNK N   1      36.372  13.904  11.719  0.00  0.00     0.182 C 
HETATM   21  C   UNK N   1      36.477  14.805  10.545  0.00  0.00     0.198 C 
BRANCH  19  22
HETATM   22  C   UNK N   1      34.869  12.010  12.240  0.00  0.00     0.198 C 
BRANCH  22  23
HETATM   23  O   UNK N   1      34.513  12.823  13.315  0.00  0.00    -0.398 OA
HETATM   24  H   UNK N   1      34.853  12.655  14.207  0.00  0.00     0.209 HD
ENDBRANCH  22  23
ENDBRANCH  19  22
BRANCH  20  25
HETATM   25  O   UNK N   1      37.615  13.386  12.079  0.00  0.00    -0.390 OA
HETATM   26  H   UNK N   1      38.021  12.904  12.816  0.00  0.00     0.210 HD
ENDBRANCH  20  25
BRANCH  21  27
HETATM   27  O   UNK N   1      36.882  16.070  10.969  0.00  0.00    -0.388 OA
HETATM   28  H   UNK N   1      36.293  16.762  11.310  0.00  0.00     0.210 HD
ENDBRANCH  21  27
ENDBRANCH   4  17
TORSDOF 5
ENDMDL
MODEL 6
REMARK VINA RESULT:      -6.3     14.235     16.316
REMARK  5 active torsions:
REMARK  status: ('A' for Active; 'I' for Inactive)
REMARK    1  A    between atoms: C_14  and  O_3 
REMARK    2  A    between atoms: C_15  and  O_4 
REMARK    3  A    between atoms: O_5  and  C_17 
REMARK    4  A    between atoms: C_13  and  N_8 
REMARK       I    between atoms: N_12  and  C_22 
REMARK    5  A    between atoms: C_16  and  C_17 
ROOT
HETATM    1  S   UNK N   1      28.973  26.822  -4.397  0.00  0.00    -0.019 SA
HETATM    2  O   UNK N   1      30.810  25.623  -3.081  0.00  0.00    -0.259 OA
HETATM    3  O   UNK N   1      26.465  27.473  -6.153  0.00  0.00    -0.266 OA
HETATM    4  N   UNK N   1      29.164  24.347  -4.081  0.00  0.00    -0.262 N 
HETATM    5  N   UNK N   1      27.211  23.639  -5.343  0.00  0.00    -0.175 N 
HETATM    6  N   UNK N   1      25.867  25.312  -6.364  0.00  0.00    -0.155 N 
ATOM      7  HN  UNK N   1      25.051  25.560  -6.925  1.00  0.00     0.187 HD
HETATM    8  N   UNK N   1      25.246  22.999  -6.561  0.00  0.00    -0.234 N 
HETATM    9  C   UNK N   1      28.042  24.596  -4.860  0.00  0.00     0.151 A 
HETATM   10  C   UNK N   1      29.791  25.534  -3.744  0.00  0.00     0.295 A 
HETATM   11  C   UNK N   1      27.788  25.938  -5.131  0.00  0.00     0.123 A 
HETATM   12  C   UNK N   1      26.694  26.305  -5.897  0.00  0.00     0.280 A 
HETATM   13  C   UNK N   1      26.120  23.995  -6.086  0.00  0.00     0.680 A 
HETATM   14  H   UNK N   1      27.393  22.690  -5.159  0.00  0.00     0.186 HD
HETATM   15  H   UNK N   1      25.359  22.060  -6.292  0.00  0.00     0.174 HD
HETATM   16  H   UNK N   1      24.512  23.246  -7.171  0.00  0.00     0.174 HD
ENDROOT
BRANCH   4  17
HETATM   17  C   UNK N   1      29.640  22.994  -3.708  0.00  0.00     0.265 C 
HETATM   18  O   UNK N   1      30.131  22.276  -4.830  0.00  0.00    -0.353 OA
HETATM   19  C   UNK N   1      31.392  21.775  -4.446  0.00  0.00     0.179 C 
HETATM   20  C   UNK N   1      31.384  21.704  -2.949  0.00  0.00     0.182 C 
HETATM   21  C   UNK N   1      30.738  23.006  -2.655  0.00  0.00     0.198 C 
BRANCH  19  22
HETATM   22  C   UNK N   1      31.633  20.397  -5.034  0.00  0.00     0.198 C 
BRANCH  22  23
HETATM   23  O   UNK N   1      31.763  19.462  -4.007  0.00  0.00    -0.398 OA
HETATM   24  H   UNK N   1      31.192  18.679  -3.964  0.00  0.00     0.209 HD
ENDBRANCH  22  23
ENDBRANCH  19  22
BRANCH  20  25
HETATM   25  O   UNK N   1      32.674  21.643  -2.422  0.00  0.00    -0.390 OA
HETATM   26  H   UNK N   1      33.199  21.076  -1.836  0.00  0.00     0.210 HD
ENDBRANCH  20  25
BRANCH  21  27
HETATM   27  O   UNK N   1      30.208  22.978  -1.365  0.00  0.00    -0.388 OA
HETATM   28  H   UNK N   1      30.726  22.893  -0.549  0.00  0.00     0.210 HD
ENDBRANCH  21  27
ENDBRANCH   4  17
TORSDOF 5
ENDMDL
MODEL 7
REMARK VINA RESULT:      -6.2      2.673      3.575
REMARK  5 active torsions:
REMARK  status: ('A' for Active; 'I' for Inactive)
REMARK    1  A    between atoms: C_14  and  O_3 
REMARK    2  A    between atoms: C_15  and  O_4 
REMARK    3  A    between atoms: O_5  and  C_17 
REMARK    4  A    between atoms: C_13  and  N_8 
REMARK       I    between atoms: N_12  and  C_22 
REMARK    5  A    between atoms: C_16  and  C_17 
ROOT
HETATM    1  S   UNK N   1      33.521  16.690   7.395  0.00  0.00    -0.019 SA
HETATM    2  O   UNK N   1      34.659  17.914   9.331  0.00  0.00    -0.259 OA
HETATM    3  O   UNK N   1      32.261  14.506   5.540  0.00  0.00    -0.266 OA
HETATM    4  N   UNK N   1      34.297  15.641   9.530  0.00  0.00    -0.262 N 
HETATM    5  N   UNK N   1      33.650  13.340   9.093  0.00  0.00    -0.175 N 
HETATM    6  N   UNK N   1      32.593  12.843   7.024  0.00  0.00    -0.155 N 
ATOM      7  HN  UNK N   1      32.166  12.159   6.399  1.00  0.00     0.187 HD
HETATM    8  N   UNK N   1      32.948  11.093   8.630  0.00  0.00    -0.234 N 
HETATM    9  C   UNK N   1      33.744  14.645   8.737  0.00  0.00     0.151 A 
HETATM   10  C   UNK N   1      34.234  16.864   8.883  0.00  0.00     0.295 A 
HETATM   11  C   UNK N   1      33.257  15.064   7.502  0.00  0.00     0.123 A 
HETATM   12  C   UNK N   1      32.681  14.156   6.628  0.00  0.00     0.280 A 
HETATM   13  C   UNK N   1      33.068  12.441   8.243  0.00  0.00     0.680 A 
HETATM   14  H   UNK N   1      34.000  13.040   9.962  0.00  0.00     0.186 HD
HETATM   15  H   UNK N   1      33.197  10.805   9.538  0.00  0.00     0.174 HD
HETATM   16  H   UNK N   1      32.612  10.429   7.984  0.00  0.00     0.174 HD
ENDROOT
BRANCH   4  17
HETATM   17  C   UNK N   1      34.909  15.409  10.859  0.00  0.00     0.265 C 
HETATM   18  O   UNK N   1      34.188  14.449  11.615  0.00  0.00    -0.353 OA
HETATM   19  C   UNK N   1      35.148  13.527  12.083  0.00  0.00     0.179 C 
HETATM   20  C   UNK N   1      36.462  14.247  12.092  0.00  0.00     0.182 C 
HETATM   21  C   UNK N   1      36.357  14.946  10.789  0.00  0.00     0.198 C 
BRANCH  19  22
HETATM   22  C   UNK N   1      34.805  13.045  13.480  0.00  0.00     0.198 C 
BRANCH  22  23
HETATM   23  O   UNK N   1      35.788  13.462  14.377  0.00  0.00    -0.398 OA
HETATM   24  H   UNK N   1      36.376  12.825  14.811  0.00  0.00     0.209 HD
ENDBRANCH  22  23
ENDBRANCH  19  22
BRANCH  20  25
HETATM   25  O   UNK N   1      37.541  13.365  12.113  0.00  0.00    -0.390 OA
HETATM   26  H   UNK N   1      38.510  13.394  12.161  0.00  0.00     0.210 HD
ENDBRANCH  20  25
BRANCH  21  27
HETATM   27  O   UNK N   1      37.239  16.026  10.771  0.00  0.00    -0.388 OA
HETATM   28  H   UNK N   1      38.177  15.979  10.527  0.00  0.00     0.210 HD
ENDBRANCH  21  27
ENDBRANCH   4  17
TORSDOF 5
ENDMDL
MODEL 8
REMARK VINA RESULT:      -6.1      9.782     12.503
REMARK  5 active torsions:
REMARK  status: ('A' for Active; 'I' for Inactive)
REMARK    1  A    between atoms: C_14  and  O_3 
REMARK    2  A    between atoms: C_15  and  O_4 
REMARK    3  A    between atoms: O_5  and  C_17 
REMARK    4  A    between atoms: C_13  and  N_8 
REMARK       I    between atoms: N_12  and  C_22 
REMARK    5  A    between atoms: C_16  and  C_17 
ROOT
HETATM    1  S   UNK N   1      19.657  17.966   3.133  0.00  0.00    -0.019 SA
HETATM    2  O   UNK N   1      20.406  20.322   3.787  0.00  0.00    -0.259 OA
HETATM    3  O   UNK N   1      19.590  14.919   2.419  0.00  0.00    -0.266 OA
HETATM    4  N   UNK N   1      21.997  18.649   3.700  0.00  0.00    -0.262 N 
HETATM    5  N   UNK N   1      23.111  16.509   3.411  0.00  0.00    -0.175 N 
HETATM    6  N   UNK N   1      21.797  14.637   2.768  0.00  0.00    -0.155 N 
ATOM      7  HN  UNK N   1      21.738  13.644   2.539  1.00  0.00     0.187 HD
HETATM    8  N   UNK N   1      24.152  14.362   3.159  0.00  0.00    -0.234 N 
HETATM    9  C   UNK N   1      22.006  17.296   3.392  0.00  0.00     0.151 A 
HETATM   10  C   UNK N   1      20.714  19.160   3.593  0.00  0.00     0.295 A 
HETATM   11  C   UNK N   1      20.771  16.750   3.053  0.00  0.00     0.123 A 
HETATM   12  C   UNK N   1      20.661  15.408   2.729  0.00  0.00     0.280 A 
HETATM   13  C   UNK N   1      23.006  15.180   3.109  0.00  0.00     0.680 A 
HETATM   14  H   UNK N   1      23.985  16.894   3.644  0.00  0.00     0.186 HD
HETATM   15  H   UNK N   1      25.007  14.714   3.493  0.00  0.00     0.174 HD
HETATM   16  H   UNK N   1      24.096  13.427   2.854  0.00  0.00     0.174 HD
ENDROOT
BRANCH   4  17
HETATM   17  C   UNK N   1      23.203  19.438   4.046  0.00  0.00     0.265 C 
HETATM   18  O   UNK N   1      24.290  18.607   4.421  0.00  0.00    -0.353 OA
HETATM   19  C   UNK N   1      25.395  19.053   3.666  0.00  0.00     0.179 C 
HETATM   20  C   UNK N   1      25.110  20.477   3.295  0.00  0.00     0.182 C 
HETATM   21  C   UNK N   1      23.682  20.341   2.920  0.00  0.00     0.198 C 
BRANCH  19  22
HETATM   22  C   UNK N   1      26.677  18.969   4.474  0.00  0.00     0.198 C 
BRANCH  22  23
HETATM   23  O   UNK N   1      27.760  19.346   3.679  0.00  0.00    -0.398 OA
HETATM   24  H   UNK N   1      28.646  18.983   3.833  0.00  0.00     0.209 HD
ENDBRANCH  22  23
ENDBRANCH  19  22
BRANCH  20  25
HETATM   25  O   UNK N   1      25.884  20.901   2.216  0.00  0.00    -0.390 OA
HETATM   26  H   UNK N   1      25.836  20.930   1.247  0.00  0.00     0.210 HD
ENDBRANCH  20  25
BRANCH  21  27
HETATM   27  O   UNK N   1      23.069  21.593   2.973  0.00  0.00    -0.388 OA
HETATM   28  H   UNK N   1      22.639  21.974   3.755  0.00  0.00     0.210 HD
ENDBRANCH  21  27
ENDBRANCH   4  17
TORSDOF 5
ENDMDL
MODEL 9
REMARK VINA RESULT:      -6.1      9.767     13.917
REMARK  5 active torsions:
REMARK  status: ('A' for Active; 'I' for Inactive)
REMARK    1  A    between atoms: C_14  and  O_3 
REMARK    2  A    between atoms: C_15  and  O_4 
REMARK    3  A    between atoms: O_5  and  C_17 
REMARK    4  A    between atoms: C_13  and  N_8 
REMARK       I    between atoms: N_12  and  C_22 
REMARK    5  A    between atoms: C_16  and  C_17 
ROOT
HETATM    1  S   UNK N   1      21.524  15.156   6.754  0.00  0.00    -0.019 SA
HETATM    2  O   UNK N   1      19.157  15.675   5.934  0.00  0.00    -0.259 OA
HETATM    3  O   UNK N   1      24.634  14.980   7.052  0.00  0.00    -0.266 OA
HETATM    4  N   UNK N   1      20.943  16.532   4.746  0.00  0.00    -0.262 N 
HETATM    5  N   UNK N   1      23.185  17.086   3.990  0.00  0.00    -0.175 N 
HETATM    6  N   UNK N   1      25.029  16.262   5.242  0.00  0.00    -0.155 N 
ATOM      7  HN  UNK N   1      26.038  16.193   5.375  1.00  0.00     0.187 HD
HETATM    8  N   UNK N   1      25.420  17.642   3.315  0.00  0.00    -0.234 N 
HETATM    9  C   UNK N   1      22.327  16.479   4.846  0.00  0.00     0.151 A 
HETATM   10  C   UNK N   1      20.357  15.818   5.776  0.00  0.00     0.295 A 
HETATM   11  C   UNK N   1      22.821  15.747   5.922  0.00  0.00     0.123 A 
HETATM   12  C   UNK N   1      24.187  15.627   6.122  0.00  0.00     0.280 A 
HETATM   13  C   UNK N   1      24.534  16.986   4.191  0.00  0.00     0.680 A 
HETATM   14  H   UNK N   1      22.838  17.598   3.225  0.00  0.00     0.186 HD
HETATM   15  H   UNK N   1      25.081  18.243   2.613  0.00  0.00     0.174 HD
HETATM   16  H   UNK N   1      26.390  17.497   3.405  0.00  0.00     0.174 HD
ENDROOT
BRANCH   4  17
HETATM   17  C   UNK N   1      20.209  17.220   3.658  0.00  0.00     0.265 C 
HETATM   18  O   UNK N   1      20.686  18.540   3.448  0.00  0.00    -0.353 OA
HETATM   19  C   UNK N   1      20.910  18.652   2.060  0.00  0.00     0.179 C 
HETATM   20  C   UNK N   1      20.036  17.627   1.403  0.00  0.00     0.182 C 
HETATM   21  C   UNK N   1      20.273  16.490   2.325  0.00  0.00     0.198 C 
BRANCH  19  22
HETATM   22  C   UNK N   1      20.553  20.040   1.560  0.00  0.00     0.198 C 
BRANCH  22  23
HETATM   23  O   UNK N   1      20.722  20.102   0.177  0.00  0.00    -0.398 OA
HETATM   24  H   UNK N   1      21.596  19.993  -0.228  0.00  0.00     0.209 HD
ENDBRANCH  22  23
ENDBRANCH  19  22
BRANCH  20  25
HETATM   25  O   UNK N   1      20.460  17.331   0.108  0.00  0.00    -0.390 OA
HETATM   26  H   UNK N   1      20.939  16.631  -0.364  0.00  0.00     0.210 HD
ENDBRANCH  20  25
BRANCH  21  27
HETATM   27  O   UNK N   1      19.236  15.567   2.197  0.00  0.00    -0.388 OA
HETATM   28  H   UNK N   1      19.090  14.992   1.429  0.00  0.00     0.210 HD
ENDBRANCH  21  27
ENDBRANCH   4  17
TORSDOF 5
ENDMDL
