REMARK  1 active torsions:
REMARK  status: ('A' for Active; 'I' for Inactive)
REMARK    1  A    between atoms: N_1  and  C_4 
ROOT
HETATM    1  C   UNK N   1       1.992  -1.226   0.308  0.00  0.00    -0.045 C 
HETATM    2  C   UNK N   1       4.556  -1.287  -0.010  0.00  0.00    -0.045 C 
HETATM    3  C   UNK N   1       3.305   0.925  -0.323  0.00  0.00     0.021 C 
HETATM    4  C   UNK N   1       3.355  -1.601   0.903  0.00  0.00     0.017 C 
HETATM    5  C   UNK N   1       1.940   0.245  -0.143  0.00  0.00     0.038 C 
HETATM    6  C   UNK N   1       4.312  -0.064  -0.913  0.00  0.00     0.038 C 
HETATM    7  C   UNK N   1       1.657  -2.125  -0.869  0.00  0.00     0.015 C 
HETATM    8  C   UNK N   1       0.932  -1.428   1.370  0.00  0.00     0.015 C 
HETATM    9  C   UNK N   1       4.877  -2.477  -0.891  0.00  0.00     0.015 C 
HETATM   10  C   UNK N   1       5.755  -1.027   0.880  0.00  0.00     0.015 C 
HETATM   11  C   UNK N   1       3.138   2.095  -1.270  0.00  0.00     0.038 C 
ENDROOT
BRANCH   3  12
HETATM   12  N   UNK N   1       3.778   1.427   0.956  0.00  0.00    -0.422 N 
HETATM   13  H   UNK N   1       4.249   1.316   1.854  0.00  0.00     0.150 HD
HETATM   14  H   UNK N   1       3.484   2.404   0.956  0.00  0.00     0.150 HD
ENDBRANCH   3  12
TORSDOF 1
