REMARK  9 active torsions:
REMARK  status: ('A' for Active; 'I' for Inactive)
REMARK    1  A    between atoms: O_4  and  C_23 
REMARK    2  A    between atoms: O_4  and  C_32 
REMARK    3  A    between atoms: C_30  and  O_7 
REMARK    4  A    between atoms: O_8  and  C_31 
REMARK       I    between atoms: N_10  and  C_25 
REMARK    5  A    between atoms: N_11  and  C_22 
REMARK    6  A    between atoms: C_16  and  C_20 
REMARK    7  A    between atoms: C_17  and  C_23 
REMARK    8  A    between atoms: C_25  and  C_30 
REMARK    9  A    between atoms: C_30  and  C_31 
ROOT
HETATM    1  F   UNK N   1      -3.353   1.470   0.376  0.00  0.00    -0.205 F 
HETATM    2  F   UNK N   1       1.474   1.554   0.060  0.00  0.00    -0.205 F 
HETATM    3  C   UNK N   1      -0.943   1.599   0.241  0.00  0.00     0.047 A 
HETATM    4  C   UNK N   1      -0.904  -1.178  -0.152  0.00  0.00     0.045 A 
HETATM    5  C   UNK N   1      -2.152   0.868   0.185  0.00  0.00     0.132 A 
HETATM    6  C   UNK N   1       0.280   0.913   0.064  0.00  0.00     0.132 A 
HETATM    7  C   UNK N   1      -2.124  -0.510  -0.005  0.00  0.00     0.073 A 
HETATM    8  C   UNK N   1       0.284  -0.454  -0.128  0.00  0.00     0.073 A 
ENDROOT
BRANCH   3   9
HETATM    9  C   UNK N   1      -0.937   3.065   0.436  0.00  0.00    -0.042 C 
HETATM   10  C   UNK N   1       0.315   3.772   0.846  0.00  0.00     0.059 C 
HETATM   11  C   UNK N   1       0.593   4.816  -0.197  0.00  0.00     0.131 C 
HETATM   12  N   UNK N   1      -0.527   5.742  -0.284  0.00  0.00    -0.346 N 
HETATM   13  C   UNK N   1      -1.893   5.304   0.023  0.00  0.00     0.153 C 
HETATM   14  C   UNK N   1      -0.299   7.033  -0.654  0.00  0.00     0.251 C 
HETATM   15  C   UNK N   1      -2.000   3.805   0.090  0.00  0.00     0.001 C 
HETATM   16  O   UNK N   1      -1.236   7.805  -0.789  0.00  0.00    -0.270 OA
BRANCH  14  17
HETATM   17  C   UNK N   1       1.099   7.555  -0.884  0.00  0.00     0.233 C 
BRANCH  17  18
HETATM   18  O   UNK N   1       1.755   6.809  -1.866  0.00  0.00    -0.384 OA
HETATM   19  H   UNK N   1       1.533   6.155  -2.548  0.00  0.00     0.210 HD
ENDBRANCH  17  18
BRANCH  17  20
HETATM   20  C   UNK N   1       1.904   7.534   0.409  0.00  0.00     0.205 C 
BRANCH  20  21
HETATM   21  O   UNK N   1       1.289   8.344   1.366  0.00  0.00    -0.398 OA
HETATM   22  H   UNK N   1       1.563   8.995   2.030  0.00  0.00     0.209 HD
ENDBRANCH  20  21
ENDBRANCH  17  20
ENDBRANCH  14  17
ENDBRANCH   3   9
BRANCH   4  23
HETATM   23  N   UNK N   1      -0.836  -2.593  -0.174  0.00  0.00    -0.291 N 
HETATM   24  C   UNK N   1       0.406  -3.306  -0.080  0.00  0.00     0.169 C 
HETATM   25  C   UNK N   1      -0.066  -4.768  -0.136  0.00  0.00     0.176 C 
HETATM   26  O   UNK N   1      -1.453  -4.722  -0.083  0.00  0.00    -0.294 OA
HETATM   27  C   UNK N   1      -1.852  -3.455  -0.163  0.00  0.00     0.368 C 
HETATM   28  O   UNK N   1      -3.030  -3.128  -0.225  0.00  0.00    -0.238 OA
BRANCH  25  29
HETATM   29  C   UNK N   1       0.556  -5.634   0.935  0.00  0.00     0.211 C 
BRANCH  29  30
HETATM   30  O   UNK N   1       0.572  -6.912   0.437  0.00  0.00    -0.332 OA
BRANCH  30  31
HETATM   31  C   UNK N   1       1.716  -7.540   0.089  0.00  0.00     0.164 A 
HETATM   32  N   UNK N   1       2.954  -7.084   0.336  0.00  0.00    -0.240 N 
HETATM   33  O   UNK N   1       3.780  -7.967  -0.143  0.00  0.00    -0.248 OA
ATOM     34  HN  UNK N   1       3.200  -6.214   0.809  1.00  0.00     0.197 HD
HETATM   35  C   UNK N   1       3.138  -8.975  -0.699  0.00  0.00     0.172 A 
HETATM   36  C   UNK N   1       1.779  -8.741  -0.573  0.00  0.00     0.084 A 
ENDBRANCH  30  31
ENDBRANCH  29  30
ENDBRANCH  25  29
ENDBRANCH   4  23
TORSDOF 9
