MODEL 1
REMARK VINA RESULT:      -9.2      0.000      0.000
REMARK  6 active torsions:
REMARK  status: ('A' for Active; 'I' for Inactive)
REMARK    1  A    between atoms: C_25  and  O_5 
REMARK    2  A    between atoms: O_5  and  C_29 
REMARK       I    between atoms: N_10  and  C_21 
REMARK    3  A    between atoms: C_24  and  N_10 
REMARK    4  A    between atoms: C_18  and  N_11 
REMARK       I    between atoms: N_11  and  C_28 
REMARK    5  A    between atoms: C_14  and  C_21 
REMARK    6  A    between atoms: C_28  and  C_30 
ROOT
HETATM    1  O   UNK N   1      24.490  16.801   3.864  0.00  0.00    -0.269 OA
HETATM    2  O   UNK N   1      22.232  21.526   2.757  0.00  0.00    -0.272 OA
HETATM    3  N   UNK N   1      22.668  18.105   3.583  0.00  0.00    -0.241 N 
HETATM    4  N   UNK N   1      22.104  19.386   3.446  0.00  0.00    -0.256 N 
HETATM    5  C   UNK N   1      21.833  16.931   3.219  0.00  0.00     0.203 C 
HETATM    6  C   UNK N   1      20.333  17.185   3.372  0.00  0.00     0.039 C 
HETATM    7  C   UNK N   1      19.949  18.524   2.795  0.00  0.00     0.024 C 
HETATM    8  C   UNK N   1      20.677  19.550   3.623  0.00  0.00     0.152 C 
HETATM    9  C   UNK N   1      24.841  18.994   4.599  0.00  0.00     0.179 C 
HETATM   10  C   UNK N   1      23.988  17.915   3.957  0.00  0.00     0.262 C 
HETATM   11  C   UNK N   1      25.022  20.325   3.877  0.00  0.00     0.044 C 
HETATM   12  C   UNK N   1      24.240  20.383   2.600  0.00  0.00     0.107 C 
HETATM   13  C   UNK N   1      22.805  20.464   2.960  0.00  0.00     0.238 C 
ENDROOT
BRANCH   9  14
HETATM   14  N   UNK N   1      26.106  18.403   5.012  0.00  0.00    -0.342 N 
HETATM   15  C   UNK N   1      27.197  19.095   5.435  0.00  0.00     0.269 C 
HETATM   16  O   UNK N   1      27.151  20.308   5.581  0.00  0.00    -0.266 OA
HETATM   17  H   UNK N   1      26.176  17.422   4.984  0.00  0.00     0.163 HD
BRANCH  15  18
HETATM   18  C   UNK N   1      28.461  18.373   5.682  0.00  0.00     0.111 A 
HETATM   19  N   UNK N   1      29.230  18.016   4.613  0.00  0.00    -0.361 N 
HETATM   20  C   UNK N   1      30.424  17.382   4.762  0.00  0.00     0.089 A 
ATOM     21  HN  UNK N   1      28.899  18.230   3.673  1.00  0.00     0.165 HD
HETATM   22  C   UNK N   1      30.888  17.045   6.033  0.00  0.00     0.029 A 
HETATM   23  C   UNK N   1      30.116  17.363   7.148  0.00  0.00    -0.022 A 
HETATM   24  C   UNK N   1      28.892  18.045   6.985  0.00  0.00     0.006 A 
HETATM   25  C   UNK N   1      30.542  16.987   8.426  0.00  0.00     0.012 A 
HETATM   26  C   UNK N   1      28.113  18.336   8.118  0.00  0.00     0.015 A 
HETATM   27  C   UNK N   1      28.540  17.951   9.389  0.00  0.00     0.001 A 
HETATM   28  C   UNK N   1      29.753  17.277   9.542  0.00  0.00     0.001 A 
ENDBRANCH  15  18
ENDBRANCH   9  14
BRANCH   5  29
HETATM   29  C   UNK N   1      22.149  15.658   3.971  0.00  0.00     0.243 C 
HETATM   30  O   UNK N   1      22.681  14.717   3.397  0.00  0.00    -0.271 OA
HETATM   31  N   UNK N   1      21.817  15.576   5.286  0.00  0.00    -0.349 N 
HETATM   32  H   UNK N   1      21.408  16.368   5.703  0.00  0.00     0.163 HD
BRANCH  31  33
HETATM   33  C   UNK N   1      22.018  14.407   6.119  0.00  0.00     0.149 C 
HETATM   34  C   UNK N   1      23.163  14.564   7.131  0.00  0.00     0.292 C 
HETATM   35  O   UNK N   1      22.708  13.944   8.268  0.00  0.00    -0.287 OA
HETATM   36  C   UNK N   1      21.416  13.614   8.182  0.00  0.00     0.263 C 
HETATM   37  O   UNK N   1      20.816  13.087   9.103  0.00  0.00    -0.265 OA
HETATM   38  C   UNK N   1      20.777  13.981   6.902  0.00  0.00     0.141 C 
BRANCH  34  39
HETATM   39  O   UNK N   1      24.301  13.908   6.650  0.00  0.00    -0.359 OA
BRANCH  39  40
HETATM   40  C   UNK N   1      25.322  14.237   7.543  0.00  0.00     0.166 C 
HETATM   41  C   UNK N   1      26.142  15.383   6.980  0.00  0.00     0.033 C 
ENDBRANCH  39  40
ENDBRANCH  34  39
ENDBRANCH  31  33
ENDBRANCH   5  29
TORSDOF 6
ENDMDL
MODEL 2
REMARK VINA RESULT:      -8.8      3.032      3.897
REMARK  6 active torsions:
REMARK  status: ('A' for Active; 'I' for Inactive)
REMARK    1  A    between atoms: C_25  and  O_5 
REMARK    2  A    between atoms: O_5  and  C_29 
REMARK       I    between atoms: N_10  and  C_21 
REMARK    3  A    between atoms: C_24  and  N_10 
REMARK    4  A    between atoms: C_18  and  N_11 
REMARK       I    between atoms: N_11  and  C_28 
REMARK    5  A    between atoms: C_14  and  C_21 
REMARK    6  A    between atoms: C_28  and  C_30 
ROOT
HETATM    1  O   UNK N   1      25.591  14.341   5.718  0.00  0.00    -0.269 OA
HETATM    2  O   UNK N   1      24.133  14.462   0.569  0.00  0.00    -0.272 OA
HETATM    3  N   UNK N   1      24.005  14.428   4.113  0.00  0.00    -0.241 N 
HETATM    4  N   UNK N   1      23.655  14.617   2.764  0.00  0.00    -0.256 N 
HETATM    5  C   UNK N   1      22.999  13.813   5.017  0.00  0.00     0.203 C 
HETATM    6  C   UNK N   1      21.556  14.060   4.572  0.00  0.00     0.039 C 
HETATM    7  C   UNK N   1      21.399  13.832   3.091  0.00  0.00     0.024 C 
HETATM    8  C   UNK N   1      22.270  14.865   2.424  0.00  0.00     0.152 C 
HETATM    9  C   UNK N   1      26.277  15.574   3.851  0.00  0.00     0.179 C 
HETATM   10  C   UNK N   1      25.272  14.713   4.594  0.00  0.00     0.262 C 
HETATM   11  C   UNK N   1      26.679  15.189   2.431  0.00  0.00     0.044 C 
HETATM   12  C   UNK N   1      25.934  13.984   1.943  0.00  0.00     0.107 C 
HETATM   13  C   UNK N   1      24.526  14.388   1.726  0.00  0.00     0.238 C 
ENDROOT
BRANCH   9  14
HETATM   14  N   UNK N   1      27.425  15.801   4.717  0.00  0.00    -0.342 N 
HETATM   15  C   UNK N   1      28.085  16.982   4.856  0.00  0.00     0.269 C 
HETATM   16  O   UNK N   1      27.682  17.993   4.300  0.00  0.00    -0.266 OA
HETATM   17  H   UNK N   1      27.750  15.037   5.247  0.00  0.00     0.163 HD
BRANCH  15  18
HETATM   18  C   UNK N   1      29.324  17.029   5.658  0.00  0.00     0.111 A 
HETATM   19  N   UNK N   1      30.486  16.592   5.093  0.00  0.00    -0.361 N 
HETATM   20  C   UNK N   1      31.673  16.639   5.755  0.00  0.00     0.089 A 
ATOM     21  HN  UNK N   1      30.465  16.219   4.145  1.00  0.00     0.165 HD
HETATM   22  C   UNK N   1      31.729  17.113   7.066  0.00  0.00     0.029 A 
HETATM   23  C   UNK N   1      30.559  17.536   7.690  0.00  0.00    -0.022 A 
HETATM   24  C   UNK N   1      29.337  17.510   6.985  0.00  0.00     0.006 A 
HETATM   25  C   UNK N   1      30.590  17.967   9.019  0.00  0.00     0.012 A 
HETATM   26  C   UNK N   1      28.161  17.918   7.637  0.00  0.00     0.015 A 
HETATM   27  C   UNK N   1      28.198  18.339   8.966  0.00  0.00     0.001 A 
HETATM   28  C   UNK N   1      29.411  18.362   9.656  0.00  0.00     0.001 A 
ENDBRANCH  15  18
ENDBRANCH   9  14
BRANCH   5  29
HETATM   29  C   UNK N   1      23.097  14.229   6.467  0.00  0.00     0.243 C 
HETATM   30  O   UNK N   1      22.932  15.399   6.787  0.00  0.00    -0.271 OA
HETATM   31  N   UNK N   1      23.387  13.285   7.400  0.00  0.00    -0.349 N 
HETATM   32  H   UNK N   1      23.491  12.356   7.091  0.00  0.00     0.163 HD
BRANCH  31  33
HETATM   33  C   UNK N   1      23.555  13.545   8.816  0.00  0.00     0.149 C 
HETATM   34  C   UNK N   1      22.318  13.189   9.657  0.00  0.00     0.292 C 
HETATM   35  O   UNK N   1      22.828  12.650  10.812  0.00  0.00    -0.287 OA
HETATM   36  C   UNK N   1      24.145  12.437  10.732  0.00  0.00     0.263 C 
HETATM   37  O   UNK N   1      24.778  11.929  11.642  0.00  0.00    -0.265 OA
HETATM   38  C   UNK N   1      24.749  12.826   9.442  0.00  0.00     0.141 C 
BRANCH  34  39
HETATM   39  O   UNK N   1      21.604  14.356   9.947  0.00  0.00    -0.359 OA
BRANCH  39  40
HETATM   40  C   UNK N   1      20.422  14.258   9.212  0.00  0.00     0.166 C 
HETATM   41  C   UNK N   1      20.018  15.632   8.710  0.00  0.00     0.033 C 
ENDBRANCH  39  40
ENDBRANCH  34  39
ENDBRANCH  31  33
ENDBRANCH   5  29
TORSDOF 6
ENDMDL
MODEL 3
REMARK VINA RESULT:      -8.6      2.528      5.565
REMARK  6 active torsions:
REMARK  status: ('A' for Active; 'I' for Inactive)
REMARK    1  A    between atoms: C_25  and  O_5 
REMARK    2  A    between atoms: O_5  and  C_29 
REMARK       I    between atoms: N_10  and  C_21 
REMARK    3  A    between atoms: C_24  and  N_10 
REMARK    4  A    between atoms: C_18  and  N_11 
REMARK       I    between atoms: N_11  and  C_28 
REMARK    5  A    between atoms: C_14  and  C_21 
REMARK    6  A    between atoms: C_28  and  C_30 
ROOT
HETATM    1  O   UNK N   1      24.981  15.354   5.665  0.00  0.00    -0.269 OA
HETATM    2  O   UNK N   1      26.381  11.534   2.187  0.00  0.00    -0.272 OA
HETATM    3  N   UNK N   1      24.701  14.261   3.710  0.00  0.00    -0.241 N 
HETATM    4  N   UNK N   1      25.184  13.359   2.746  0.00  0.00    -0.256 N 
HETATM    5  C   UNK N   1      23.262  14.631   3.662  0.00  0.00     0.203 C 
HETATM    6  C   UNK N   1      22.658  14.529   2.261  0.00  0.00     0.039 C 
HETATM    7  C   UNK N   1      23.075  13.249   1.584  0.00  0.00     0.024 C 
HETATM    8  C   UNK N   1      24.572  13.333   1.434  0.00  0.00     0.152 C 
HETATM    9  C   UNK N   1      27.011  14.648   4.739  0.00  0.00     0.179 C 
HETATM   10  C   UNK N   1      25.495  14.739   4.739  0.00  0.00     0.262 C 
HETATM   11  C   UNK N   1      27.674  13.284   4.584  0.00  0.00     0.044 C 
HETATM   12  C   UNK N   1      26.669  12.189   4.389  0.00  0.00     0.107 C 
HETATM   13  C   UNK N   1      26.081  12.359   3.039  0.00  0.00     0.238 C 
ENDROOT
BRANCH   9  14
HETATM   14  N   UNK N   1      27.520  15.394   5.881  0.00  0.00    -0.342 N 
HETATM   15  C   UNK N   1      27.938  16.688   5.854  0.00  0.00     0.269 C 
HETATM   16  O   UNK N   1      27.825  17.360   4.839  0.00  0.00    -0.266 OA
HETATM   17  H   UNK N   1      27.565  14.923   6.745  0.00  0.00     0.163 HD
BRANCH  15  18
HETATM   18  C   UNK N   1      28.570  17.270   7.054  0.00  0.00     0.111 A 
HETATM   19  N   UNK N   1      27.768  17.754   8.046  0.00  0.00    -0.361 N 
HETATM   20  C   UNK N   1      28.276  18.272   9.196  0.00  0.00     0.089 A 
ATOM     21  HN  UNK N   1      26.756  17.728   7.921  1.00  0.00     0.165 HD
HETATM   22  C   UNK N   1      29.655  18.353   9.383  0.00  0.00     0.029 A 
HETATM   23  C   UNK N   1      30.508  17.900   8.379  0.00  0.00    -0.022 A 
HETATM   24  C   UNK N   1      29.972  17.339   7.201  0.00  0.00     0.006 A 
HETATM   25  C   UNK N   1      31.892  18.021   8.529  0.00  0.00     0.012 A 
HETATM   26  C   UNK N   1      30.845  16.910   6.188  0.00  0.00     0.015 A 
HETATM   27  C   UNK N   1      32.225  17.040   6.340  0.00  0.00     0.001 A 
HETATM   28  C   UNK N   1      32.748  17.596   7.510  0.00  0.00     0.001 A 
ENDBRANCH  15  18
ENDBRANCH   9  14
BRANCH   5  29
HETATM   29  C   UNK N   1      22.935  16.010   4.190  0.00  0.00     0.243 C 
HETATM   30  O   UNK N   1      22.066  16.155   5.040  0.00  0.00    -0.271 OA
HETATM   31  N   UNK N   1      23.608  17.079   3.691  0.00  0.00    -0.349 N 
HETATM   32  H   UNK N   1      24.310  16.904   3.023  0.00  0.00     0.163 HD
BRANCH  31  33
HETATM   33  C   UNK N   1      23.370  18.457   4.069  0.00  0.00     0.149 C 
HETATM   34  C   UNK N   1      24.587  19.371   3.858  0.00  0.00     0.292 C 
HETATM   35  O   UNK N   1      24.058  20.552   3.400  0.00  0.00    -0.287 OA
HETATM   36  C   UNK N   1      22.758  20.445   3.111  0.00  0.00     0.263 C 
HETATM   37  O   UNK N   1      22.114  21.375   2.655  0.00  0.00    -0.265 OA
HETATM   38  C   UNK N   1      22.188  19.103   3.348  0.00  0.00     0.141 C 
BRANCH  34  39
HETATM   39  O   UNK N   1      25.230  19.578   5.083  0.00  0.00    -0.359 OA
BRANCH  39  40
HETATM   40  C   UNK N   1      26.222  20.525   4.824  0.00  0.00     0.166 C 
HETATM   41  C   UNK N   1      27.070  20.728   6.066  0.00  0.00     0.033 C 
ENDBRANCH  39  40
ENDBRANCH  34  39
ENDBRANCH  31  33
ENDBRANCH   5  29
TORSDOF 6
ENDMDL
MODEL 4
REMARK VINA RESULT:      -8.6      1.608      2.749
REMARK  6 active torsions:
REMARK  status: ('A' for Active; 'I' for Inactive)
REMARK    1  A    between atoms: C_25  and  O_5 
REMARK    2  A    between atoms: O_5  and  C_29 
REMARK       I    between atoms: N_10  and  C_21 
REMARK    3  A    between atoms: C_24  and  N_10 
REMARK    4  A    between atoms: C_18  and  N_11 
REMARK       I    between atoms: N_11  and  C_28 
REMARK    5  A    between atoms: C_14  and  C_21 
REMARK    6  A    between atoms: C_28  and  C_30 
ROOT
HETATM    1  O   UNK N   1      24.654  17.051   5.558  0.00  0.00    -0.269 OA
HETATM    2  O   UNK N   1      23.855  20.966   1.996  0.00  0.00    -0.272 OA
HETATM    3  N   UNK N   1      23.282  18.383   4.358  0.00  0.00    -0.241 N 
HETATM    4  N   UNK N   1      23.098  19.515   3.544  0.00  0.00    -0.256 N 
HETATM    5  C   UNK N   1      22.190  17.376   4.412  0.00  0.00     0.203 C 
HETATM    6  C   UNK N   1      20.808  17.967   4.131  0.00  0.00     0.039 C 
HETATM    7  C   UNK N   1      20.847  18.896   2.945  0.00  0.00     0.024 C 
HETATM    8  C   UNK N   1      21.760  20.027   3.340  0.00  0.00     0.152 C 
HETATM    9  C   UNK N   1      25.529  19.201   5.266  0.00  0.00     0.179 C 
HETATM   10  C   UNK N   1      24.468  18.142   5.032  0.00  0.00     0.262 C 
HETATM   11  C   UNK N   1      26.120  19.939   4.069  0.00  0.00     0.044 C 
HETATM   12  C   UNK N   1      25.483  19.518   2.779  0.00  0.00     0.107 C 
HETATM   13  C   UNK N   1      24.100  20.050   2.770  0.00  0.00     0.238 C 
ENDROOT
BRANCH   9  14
HETATM   14  N   UNK N   1      26.551  18.649   6.145  0.00  0.00    -0.342 N 
HETATM   15  C   UNK N   1      27.409  19.377   6.908  0.00  0.00     0.269 C 
HETATM   16  O   UNK N   1      27.314  20.594   6.969  0.00  0.00    -0.266 OA
HETATM   17  H   UNK N   1      26.624  17.669   6.192  0.00  0.00     0.163 HD
BRANCH  15  18
HETATM   18  C   UNK N   1      28.491  18.687   7.638  0.00  0.00     0.111 A 
HETATM   19  N   UNK N   1      28.541  18.802   8.996  0.00  0.00    -0.361 N 
HETATM   20  C   UNK N   1      29.485  18.167   9.740  0.00  0.00     0.089 A 
ATOM     21  HN  UNK N   1      27.849  19.383   9.468  1.00  0.00     0.165 HD
HETATM   22  C   UNK N   1      30.466  17.393   9.121  0.00  0.00     0.029 A 
HETATM   23  C   UNK N   1      30.469  17.277   7.733  0.00  0.00    -0.022 A 
HETATM   24  C   UNK N   1      29.469  17.918   6.972  0.00  0.00     0.006 A 
HETATM   25  C   UNK N   1      31.475  16.546   7.094  0.00  0.00     0.012 A 
HETATM   26  C   UNK N   1      29.501  17.811   5.571  0.00  0.00     0.015 A 
HETATM   27  C   UNK N   1      30.512  17.088   4.939  0.00  0.00     0.001 A 
HETATM   28  C   UNK N   1      31.498  16.456   5.700  0.00  0.00     0.001 A 
ENDBRANCH  15  18
ENDBRANCH   9  14
BRANCH   5  29
HETATM   29  C   UNK N   1      22.090  16.603   5.707  0.00  0.00     0.243 C 
HETATM   30  O   UNK N   1      21.724  17.162   6.733  0.00  0.00    -0.271 OA
HETATM   31  N   UNK N   1      22.430  15.288   5.712  0.00  0.00    -0.349 N 
HETATM   32  H   UNK N   1      22.700  14.883   4.856  0.00  0.00     0.163 HD
BRANCH  31  33
HETATM   33  C   UNK N   1      22.426  14.436   6.885  0.00  0.00     0.149 C 
HETATM   34  C   UNK N   1      21.371  13.320   6.830  0.00  0.00     0.292 C 
HETATM   35  O   UNK N   1      21.991  12.230   7.389  0.00  0.00    -0.287 OA
HETATM   36  C   UNK N   1      23.295  12.438   7.590  0.00  0.00     0.263 C 
HETATM   37  O   UNK N   1      24.029  11.576   8.044  0.00  0.00    -0.265 OA
HETATM   38  C   UNK N   1      23.771  13.773   7.176  0.00  0.00     0.141 C 
BRANCH  34  39
HETATM   39  O   UNK N   1      20.264  13.690   7.601  0.00  0.00    -0.359 OA
BRANCH  39  40
HETATM   40  C   UNK N   1      20.783  14.448   8.652  0.00  0.00     0.166 C 
HETATM   41  C   UNK N   1      20.446  13.784   9.974  0.00  0.00     0.033 C 
ENDBRANCH  39  40
ENDBRANCH  34  39
ENDBRANCH  31  33
ENDBRANCH   5  29
TORSDOF 6
ENDMDL
MODEL 5
REMARK VINA RESULT:      -8.6     13.553     15.594
REMARK  6 active torsions:
REMARK  status: ('A' for Active; 'I' for Inactive)
REMARK    1  A    between atoms: C_25  and  O_5 
REMARK    2  A    between atoms: O_5  and  C_29 
REMARK       I    between atoms: N_10  and  C_21 
REMARK    3  A    between atoms: C_24  and  N_10 
REMARK    4  A    between atoms: C_18  and  N_11 
REMARK       I    between atoms: N_11  and  C_28 
REMARK    5  A    between atoms: C_14  and  C_21 
REMARK    6  A    between atoms: C_28  and  C_30 
ROOT
HETATM    1  O   UNK N   1      28.321  25.029  -6.642  0.00  0.00    -0.269 OA
HETATM    2  O   UNK N   1      29.219  28.582  -2.740  0.00  0.00    -0.272 OA
HETATM    3  N   UNK N   1      27.583  26.531  -5.127  0.00  0.00    -0.241 N 
HETATM    4  N   UNK N   1      27.828  27.338  -4.002  0.00  0.00    -0.256 N 
HETATM    5  C   UNK N   1      26.365  26.805  -5.932  0.00  0.00     0.203 C 
HETATM    6  C   UNK N   1      25.236  27.445  -5.122  0.00  0.00     0.039 C 
HETATM    7  C   UNK N   1      25.760  28.552  -4.245  0.00  0.00     0.024 C 
HETATM    8  C   UNK N   1      26.706  27.894  -3.275  0.00  0.00     0.152 C 
HETATM    9  C   UNK N   1      29.596  25.017  -4.679  0.00  0.00     0.179 C 
HETATM   10  C   UNK N   1      28.477  25.561  -5.549  0.00  0.00     0.262 C 
HETATM   11  C   UNK N   1      30.612  25.987  -4.084  0.00  0.00     0.044 C 
HETATM   12  C   UNK N   1      30.295  27.411  -4.423  0.00  0.00     0.107 C 
HETATM   13  C   UNK N   1      29.081  27.792  -3.664  0.00  0.00     0.238 C 
ENDROOT
BRANCH   9  14
HETATM   14  N   UNK N   1      30.224  23.902  -5.374  0.00  0.00    -0.342 N 
HETATM   15  C   UNK N   1      30.386  22.650  -4.868  0.00  0.00     0.269 C 
HETATM   16  O   UNK N   1      29.915  22.349  -3.781  0.00  0.00    -0.266 OA
HETATM   17  H   UNK N   1      30.558  24.068  -6.285  0.00  0.00     0.163 HD
BRANCH  15  18
HETATM   18  C   UNK N   1      31.173  21.659  -5.627  0.00  0.00     0.111 A 
HETATM   19  N   UNK N   1      32.513  21.568  -5.390  0.00  0.00    -0.361 N 
HETATM   20  C   UNK N   1      33.298  20.654  -6.023  0.00  0.00     0.089 A 
ATOM     21  HN  UNK N   1      32.941  22.204  -4.718  1.00  0.00     0.165 HD
HETATM   22  C   UNK N   1      32.749  19.793  -6.972  0.00  0.00     0.029 A 
HETATM   23  C   UNK N   1      31.391  19.878  -7.267  0.00  0.00    -0.022 A 
HETATM   24  C   UNK N   1      30.580  20.809  -6.585  0.00  0.00     0.006 A 
HETATM   25  C   UNK N   1      30.835  19.056  -8.252  0.00  0.00     0.012 A 
HETATM   26  C   UNK N   1      29.216  20.899  -6.912  0.00  0.00     0.015 A 
HETATM   27  C   UNK N   1      28.670  20.082  -7.902  0.00  0.00     0.001 A 
HETATM   28  C   UNK N   1      29.479  19.162  -8.571  0.00  0.00     0.001 A 
ENDBRANCH  15  18
ENDBRANCH   9  14
BRANCH   5  29
HETATM   29  C   UNK N   1      25.780  25.606  -6.643  0.00  0.00     0.243 C 
HETATM   30  O   UNK N   1      25.219  24.723  -6.007  0.00  0.00    -0.271 OA
HETATM   31  N   UNK N   1      25.904  25.521  -7.994  0.00  0.00    -0.349 N 
HETATM   32  H   UNK N   1      26.347  26.268  -8.458  0.00  0.00     0.163 HD
BRANCH  31  33
HETATM   33  C   UNK N   1      25.433  24.413  -8.800  0.00  0.00     0.149 C 
HETATM   34  C   UNK N   1      25.497  24.683 -10.312  0.00  0.00     0.292 C 
HETATM   35  O   UNK N   1      25.892  23.488 -10.860  0.00  0.00    -0.287 OA
HETATM   36  C   UNK N   1      26.268  22.605  -9.931  0.00  0.00     0.263 C 
HETATM   37  O   UNK N   1      26.687  21.496 -10.219  0.00  0.00    -0.265 OA
HETATM   38  C   UNK N   1      26.172  23.101  -8.543  0.00  0.00     0.141 C 
BRANCH  34  39
HETATM   39  O   UNK N   1      24.222  25.025 -10.776  0.00  0.00    -0.359 OA
BRANCH  39  40
HETATM   40  C   UNK N   1      24.434  26.008 -11.744  0.00  0.00     0.166 C 
HETATM   41  C   UNK N   1      23.533  27.197 -11.467  0.00  0.00     0.033 C 
ENDBRANCH  39  40
ENDBRANCH  34  39
ENDBRANCH  31  33
ENDBRANCH   5  29
TORSDOF 6
ENDMDL
MODEL 6
REMARK VINA RESULT:      -8.5      2.808      5.561
REMARK  6 active torsions:
REMARK  status: ('A' for Active; 'I' for Inactive)
REMARK    1  A    between atoms: C_25  and  O_5 
REMARK    2  A    between atoms: O_5  and  C_29 
REMARK       I    between atoms: N_10  and  C_21 
REMARK    3  A    between atoms: C_24  and  N_10 
REMARK    4  A    between atoms: C_18  and  N_11 
REMARK       I    between atoms: N_11  and  C_28 
REMARK    5  A    between atoms: C_14  and  C_21 
REMARK    6  A    between atoms: C_28  and  C_30 
ROOT
HETATM    1  O   UNK N   1      23.117  15.350   4.313  0.00  0.00    -0.269 OA
HETATM    2  O   UNK N   1      24.634  11.660   0.745  0.00  0.00    -0.272 OA
HETATM    3  N   UNK N   1      22.752  14.141   2.442  0.00  0.00    -0.241 N 
HETATM    4  N   UNK N   1      23.238  13.287   1.436  0.00  0.00    -0.256 N 
HETATM    5  C   UNK N   1      21.279  14.268   2.599  0.00  0.00     0.203 C 
HETATM    6  C   UNK N   1      20.509  14.006   1.303  0.00  0.00     0.039 C 
HETATM    7  C   UNK N   1      21.036  12.783   0.598  0.00  0.00     0.024 C 
HETATM    8  C   UNK N   1      22.460  13.104   0.229  0.00  0.00     0.152 C 
HETATM    9  C   UNK N   1      25.085  14.945   3.114  0.00  0.00     0.179 C 
HETATM   10  C   UNK N   1      23.591  14.787   3.334  0.00  0.00     0.262 C 
HETATM   11  C   UNK N   1      25.939  13.702   2.892  0.00  0.00     0.044 C 
HETATM   12  C   UNK N   1      25.115  12.450   2.868  0.00  0.00     0.107 C 
HETATM   13  C   UNK N   1      24.323  12.462   1.616  0.00  0.00     0.238 C 
ENDROOT
BRANCH   9  14
HETATM   14  N   UNK N   1      25.618  15.814   4.154  0.00  0.00    -0.342 N 
HETATM   15  C   UNK N   1      26.821  16.446   4.111  0.00  0.00     0.269 C 
HETATM   16  O   UNK N   1      27.523  16.388   3.112  0.00  0.00    -0.266 OA
HETATM   17  H   UNK N   1      25.061  15.956   4.953  0.00  0.00     0.163 HD
BRANCH  15  18
HETATM   18  C   UNK N   1      27.298  17.178   5.301  0.00  0.00     0.111 A 
HETATM   19  N   UNK N   1      27.827  16.467   6.338  0.00  0.00    -0.361 N 
HETATM   20  C   UNK N   1      28.320  17.072   7.451  0.00  0.00     0.089 A 
ATOM     21  HN  UNK N   1      27.854  15.449   6.277  1.00  0.00     0.165 HD
HETATM   22  C   UNK N   1      28.267  18.460   7.580  0.00  0.00     0.029 A 
HETATM   23  C   UNK N   1      27.703  19.219   6.557  0.00  0.00    -0.022 A 
HETATM   24  C   UNK N   1      27.220  18.584   5.394  0.00  0.00     0.006 A 
HETATM   25  C   UNK N   1      27.597  20.606   6.693  0.00  0.00     0.012 A 
HETATM   26  C   UNK N   1      26.632  19.362   4.383  0.00  0.00     0.015 A 
HETATM   27  C   UNK N   1      26.521  20.745   4.528  0.00  0.00     0.001 A 
HETATM   28  C   UNK N   1      27.002  21.366   5.681  0.00  0.00     0.001 A 
ENDBRANCH  15  18
ENDBRANCH   9  14
BRANCH   5  29
HETATM   29  C   UNK N   1      20.802  15.596   3.141  0.00  0.00     0.243 C 
HETATM   30  O   UNK N   1      20.077  15.637   4.127  0.00  0.00    -0.271 OA
HETATM   31  N   UNK N   1      21.178  16.736   2.504  0.00  0.00    -0.349 N 
HETATM   32  H   UNK N   1      21.776  16.648   1.727  0.00  0.00     0.163 HD
BRANCH  31  33
HETATM   33  C   UNK N   1      20.762  18.072   2.883  0.00  0.00     0.149 C 
HETATM   34  C   UNK N   1      21.693  18.737   3.909  0.00  0.00     0.292 C 
HETATM   35  O   UNK N   1      21.757  20.051   3.518  0.00  0.00    -0.287 OA
HETATM   36  C   UNK N   1      21.188  20.252   2.326  0.00  0.00     0.263 C 
HETATM   37  O   UNK N   1      21.174  21.346   1.787  0.00  0.00    -0.265 OA
HETATM   38  C   UNK N   1      20.623  19.036   1.706  0.00  0.00     0.141 C 
BRANCH  34  39
HETATM   39  O   UNK N   1      21.123  18.643   5.182  0.00  0.00    -0.359 OA
BRANCH  39  40
HETATM   40  C   UNK N   1      22.055  17.947   5.953  0.00  0.00     0.166 C 
HETATM   41  C   UNK N   1      21.331  17.030   6.923  0.00  0.00     0.033 C 
ENDBRANCH  39  40
ENDBRANCH  34  39
ENDBRANCH  31  33
ENDBRANCH   5  29
TORSDOF 6
ENDMDL
MODEL 7
REMARK VINA RESULT:      -8.4     11.761     14.674
REMARK  6 active torsions:
REMARK  status: ('A' for Active; 'I' for Inactive)
REMARK    1  A    between atoms: C_25  and  O_5 
REMARK    2  A    between atoms: O_5  and  C_29 
REMARK       I    between atoms: N_10  and  C_21 
REMARK    3  A    between atoms: C_24  and  N_10 
REMARK    4  A    between atoms: C_18  and  N_11 
REMARK       I    between atoms: N_11  and  C_28 
REMARK    5  A    between atoms: C_14  and  C_21 
REMARK    6  A    between atoms: C_28  and  C_30 
ROOT
HETATM    1  O   UNK N   1      29.194  25.400  -6.473  0.00  0.00    -0.269 OA
HETATM    2  O   UNK N   1      24.748  23.280  -8.568  0.00  0.00    -0.272 OA
HETATM    3  N   UNK N   1      28.001  23.626  -7.198  0.00  0.00    -0.241 N 
HETATM    4  N   UNK N   1      26.772  23.075  -7.600  0.00  0.00    -0.256 N 
HETATM    5  C   UNK N   1      29.241  22.866  -7.503  0.00  0.00     0.203 C 
HETATM    6  C   UNK N   1      29.015  21.356  -7.605  0.00  0.00     0.039 C 
HETATM    7  C   UNK N   1      27.785  21.047  -8.420  0.00  0.00     0.024 C 
HETATM    8  C   UNK N   1      26.628  21.635  -7.654  0.00  0.00     0.152 C 
HETATM    9  C   UNK N   1      26.908  25.618  -6.022  0.00  0.00     0.179 C 
HETATM   10  C   UNK N   1      28.094  24.879  -6.615  0.00  0.00     0.262 C 
HETATM   11  C   UNK N   1      25.689  25.889  -6.897  0.00  0.00     0.044 C 
HETATM   12  C   UNK N   1      25.838  25.300  -8.268  0.00  0.00     0.107 C 
HETATM   13  C   UNK N   1      25.752  23.828  -8.132  0.00  0.00     0.238 C 
ENDROOT
BRANCH   9  14
HETATM   14  N   UNK N   1      27.395  26.814  -5.351  0.00  0.00    -0.342 N 
HETATM   15  C   UNK N   1      27.077  27.190  -4.083  0.00  0.00     0.269 C 
HETATM   16  O   UNK N   1      26.399  26.466  -3.368  0.00  0.00    -0.266 OA
HETATM   17  H   UNK N   1      28.005  27.399  -5.855  0.00  0.00     0.163 HD
BRANCH  15  18
HETATM   18  C   UNK N   1      27.525  28.504  -3.583  0.00  0.00     0.111 A 
HETATM   19  N   UNK N   1      26.625  29.527  -3.534  0.00  0.00    -0.361 N 
HETATM   20  C   UNK N   1      26.954  30.756  -3.052  0.00  0.00     0.089 A 
ATOM     21  HN  UNK N   1      25.676  29.367  -3.870  1.00  0.00     0.165 HD
HETATM   22  C   UNK N   1      28.253  31.016  -2.616  0.00  0.00     0.029 A 
HETATM   23  C   UNK N   1      29.210  30.007  -2.682  0.00  0.00    -0.022 A 
HETATM   24  C   UNK N   1      28.852  28.728  -3.158  0.00  0.00     0.006 A 
HETATM   25  C   UNK N   1      30.529  30.266  -2.297  0.00  0.00     0.012 A 
HETATM   26  C   UNK N   1      29.836  27.728  -3.240  0.00  0.00     0.015 A 
HETATM   27  C   UNK N   1      31.151  27.996  -2.862  0.00  0.00     0.001 A 
HETATM   28  C   UNK N   1      31.497  29.264  -2.392  0.00  0.00     0.001 A 
ENDBRANCH  15  18
ENDBRANCH   9  14
BRANCH   5  29
HETATM   29  C   UNK N   1      30.383  23.081  -6.536  0.00  0.00     0.243 C 
HETATM   30  O   UNK N   1      31.390  23.680  -6.892  0.00  0.00    -0.271 OA
HETATM   31  N   UNK N   1      30.276  22.584  -5.276  0.00  0.00    -0.349 N 
HETATM   32  H   UNK N   1      29.437  22.127  -5.036  0.00  0.00     0.163 HD
BRANCH  31  33
HETATM   33  C   UNK N   1      31.305  22.676  -4.260  0.00  0.00     0.149 C 
HETATM   34  C   UNK N   1      30.844  22.196  -2.874  0.00  0.00     0.292 C 
HETATM   35  O   UNK N   1      31.931  21.534  -2.359  0.00  0.00    -0.287 OA
HETATM   36  C   UNK N   1      32.895  21.360  -3.267  0.00  0.00     0.263 C 
HETATM   37  O   UNK N   1      33.926  20.761  -3.015  0.00  0.00    -0.265 OA
HETATM   38  C   UNK N   1      32.584  21.914  -4.601  0.00  0.00     0.141 C 
BRANCH  34  39
HETATM   39  O   UNK N   1      30.537  23.304  -2.078  0.00  0.00    -0.359 OA
BRANCH  39  40
HETATM   40  C   UNK N   1      29.224  23.098  -1.651  0.00  0.00     0.166 C 
HETATM   41  C   UNK N   1      28.260  23.673  -2.672  0.00  0.00     0.033 C 
ENDBRANCH  39  40
ENDBRANCH  34  39
ENDBRANCH  31  33
ENDBRANCH   5  29
TORSDOF 6
ENDMDL
MODEL 8
REMARK VINA RESULT:      -8.4      1.112      2.150
REMARK  6 active torsions:
REMARK  status: ('A' for Active; 'I' for Inactive)
REMARK    1  A    between atoms: C_25  and  O_5 
REMARK    2  A    between atoms: O_5  and  C_29 
REMARK       I    between atoms: N_10  and  C_21 
REMARK    3  A    between atoms: C_24  and  N_10 
REMARK    4  A    between atoms: C_18  and  N_11 
REMARK       I    between atoms: N_11  and  C_28 
REMARK    5  A    between atoms: C_14  and  C_21 
REMARK    6  A    between atoms: C_28  and  C_30 
ROOT
HETATM    1  O   UNK N   1      24.457  16.721   4.035  0.00  0.00    -0.269 OA
HETATM    2  O   UNK N   1      22.501  21.549   2.801  0.00  0.00    -0.272 OA
HETATM    3  N   UNK N   1      22.722  18.105   3.621  0.00  0.00    -0.241 N 
HETATM    4  N   UNK N   1      22.226  19.410   3.453  0.00  0.00    -0.256 N 
HETATM    5  C   UNK N   1      21.870  16.971   3.176  0.00  0.00     0.203 C 
HETATM    6  C   UNK N   1      20.375  17.289   3.209  0.00  0.00     0.039 C 
HETATM    7  C   UNK N   1      20.097  18.648   2.619  0.00  0.00     0.024 C 
HETATM    8  C   UNK N   1      20.797  19.635   3.515  0.00  0.00     0.152 C 
HETATM    9  C   UNK N   1      24.840  18.891   4.821  0.00  0.00     0.179 C 
HETATM   10  C   UNK N   1      23.997  17.855   4.100  0.00  0.00     0.262 C 
HETATM   11  C   UNK N   1      25.136  20.219   4.131  0.00  0.00     0.044 C 
HETATM   12  C   UNK N   1      24.464  20.321   2.796  0.00  0.00     0.107 C 
HETATM   13  C   UNK N   1      23.009  20.461   3.038  0.00  0.00     0.238 C 
ENDROOT
BRANCH   9  14
HETATM   14  N   UNK N   1      26.040  18.242   5.329  0.00  0.00    -0.342 N 
HETATM   15  C   UNK N   1      27.316  18.634   5.071  0.00  0.00     0.269 C 
HETATM   16  O   UNK N   1      27.541  19.654   4.435  0.00  0.00    -0.266 OA
HETATM   17  H   UNK N   1      25.917  17.456   5.909  0.00  0.00     0.163 HD
BRANCH  15  18
HETATM   18  C   UNK N   1      28.439  17.794   5.532  0.00  0.00     0.111 A 
HETATM   19  N   UNK N   1      28.944  18.005   6.781  0.00  0.00    -0.361 N 
HETATM   20  C   UNK N   1      29.952  17.247   7.289  0.00  0.00     0.089 A 
ATOM     21  HN  UNK N   1      28.554  18.754   7.352  1.00  0.00     0.165 HD
HETATM   22  C   UNK N   1      30.530  16.237   6.521  0.00  0.00     0.029 A 
HETATM   23  C   UNK N   1      30.065  16.013   5.227  0.00  0.00    -0.022 A 
HETATM   24  C   UNK N   1      28.999  16.785   4.719  0.00  0.00     0.006 A 
HETATM   25  C   UNK N   1      30.666  15.038   4.426  0.00  0.00     0.012 A 
HETATM   26  C   UNK N   1      28.558  16.562   3.404  0.00  0.00     0.015 A 
HETATM   27  C   UNK N   1      29.168  15.594   2.607  0.00  0.00     0.001 A 
HETATM   28  C   UNK N   1      30.222  14.833   3.118  0.00  0.00     0.001 A 
ENDBRANCH  15  18
ENDBRANCH   9  14
BRANCH   5  29
HETATM   29  C   UNK N   1      22.069  15.680   3.937  0.00  0.00     0.243 C 
HETATM   30  O   UNK N   1      22.385  14.656   3.346  0.00  0.00    -0.271 OA
HETATM   31  N   UNK N   1      21.873  15.677   5.282  0.00  0.00    -0.349 N 
HETATM   32  H   UNK N   1      21.638  16.531   5.710  0.00  0.00     0.163 HD
BRANCH  31  33
HETATM   33  C   UNK N   1      21.983  14.508   6.131  0.00  0.00     0.149 C 
HETATM   34  C   UNK N   1      23.043  14.649   7.235  0.00  0.00     0.292 C 
HETATM   35  O   UNK N   1      22.484  14.040   8.331  0.00  0.00    -0.287 OA
HETATM   36  C   UNK N   1      21.198  13.733   8.139  0.00  0.00     0.263 C 
HETATM   37  O   UNK N   1      20.514  13.219   9.008  0.00  0.00    -0.265 OA
HETATM   38  C   UNK N   1      20.674  14.107   6.809  0.00  0.00     0.141 C 
BRANCH  34  39
HETATM   39  O   UNK N   1      24.205  13.971   6.852  0.00  0.00    -0.359 OA
BRANCH  39  40
HETATM   40  C   UNK N   1      25.235  14.904   6.981  0.00  0.00     0.166 C 
HETATM   41  C   UNK N   1      26.380  14.530   6.058  0.00  0.00     0.033 C 
ENDBRANCH  39  40
ENDBRANCH  34  39
ENDBRANCH  31  33
ENDBRANCH   5  29
TORSDOF 6
ENDMDL
MODEL 9
REMARK VINA RESULT:      -8.3      6.933     12.192
REMARK  6 active torsions:
REMARK  status: ('A' for Active; 'I' for Inactive)
REMARK    1  A    between atoms: C_25  and  O_5 
REMARK    2  A    between atoms: O_5  and  C_29 
REMARK       I    between atoms: N_10  and  C_21 
REMARK    3  A    between atoms: C_24  and  N_10 
REMARK    4  A    between atoms: C_18  and  N_11 
REMARK       I    between atoms: N_11  and  C_28 
REMARK    5  A    between atoms: C_14  and  C_21 
REMARK    6  A    between atoms: C_28  and  C_30 
ROOT
HETATM    1  O   UNK N   1      33.974  14.400   7.611  0.00  0.00    -0.269 OA
HETATM    2  O   UNK N   1      37.117  13.684  11.884  0.00  0.00    -0.272 OA
HETATM    3  N   UNK N   1      36.008  14.094   8.540  0.00  0.00    -0.241 N 
HETATM    4  N   UNK N   1      36.827  14.066   9.683  0.00  0.00    -0.256 N 
HETATM    5  C   UNK N   1      36.534  13.489   7.289  0.00  0.00     0.203 C 
HETATM    6  C   UNK N   1      38.061  13.507   7.203  0.00  0.00     0.039 C 
HETATM    7  C   UNK N   1      38.682  13.074   8.506  0.00  0.00     0.024 C 
HETATM    8  C   UNK N   1      38.265  14.105   9.522  0.00  0.00     0.152 C 
HETATM    9  C   UNK N   1      34.171  15.452   9.691  0.00  0.00     0.179 C 
HETATM   10  C   UNK N   1      34.713  14.584   8.570  0.00  0.00     0.262 C 
HETATM   11  C   UNK N   1      34.230  14.936  11.126  0.00  0.00     0.044 C 
HETATM   12  C   UNK N   1      34.902  13.600  11.215  0.00  0.00     0.107 C 
HETATM   13  C   UNK N   1      36.343  13.807  10.943  0.00  0.00     0.238 C 
ENDROOT
BRANCH   9  14
HETATM   14  N   UNK N   1      32.845  15.920   9.317  0.00  0.00    -0.342 N 
HETATM   15  C   UNK N   1      32.565  17.129   8.760  0.00  0.00     0.269 C 
HETATM   16  O   UNK N   1      33.463  17.897   8.448  0.00  0.00    -0.266 OA
HETATM   17  H   UNK N   1      32.088  15.312   9.479  0.00  0.00     0.163 HD
BRANCH  15  18
HETATM   18  C   UNK N   1      31.157  17.529   8.568  0.00  0.00     0.111 A 
HETATM   19  N   UNK N   1      30.477  18.057   9.627  0.00  0.00    -0.361 N 
HETATM   20  C   UNK N   1      29.190  18.482   9.518  0.00  0.00     0.089 A 
ATOM     21  HN  UNK N   1      30.948  18.134  10.528  1.00  0.00     0.165 HD
HETATM   22  C   UNK N   1      28.508  18.359   8.308  0.00  0.00     0.029 A 
HETATM   23  C   UNK N   1      29.157  17.795   7.213  0.00  0.00    -0.022 A 
HETATM   24  C   UNK N   1      30.501  17.382   7.328  0.00  0.00     0.006 A 
HETATM   25  C   UNK N   1      28.472  17.618   6.007  0.00  0.00     0.012 A 
HETATM   26  C   UNK N   1      31.133  16.792   6.220  0.00  0.00     0.015 A 
HETATM   27  C   UNK N   1      30.442  16.611   5.023  0.00  0.00     0.001 A 
HETATM   28  C   UNK N   1      29.112  17.023   4.917  0.00  0.00     0.001 A 
ENDBRANCH  15  18
ENDBRANCH   9  14
BRANCH   5  29
HETATM   29  C   UNK N   1      36.007  14.097   6.009  0.00  0.00     0.243 C 
HETATM   30  O   UNK N   1      36.357  15.219   5.669  0.00  0.00    -0.271 OA
HETATM   31  N   UNK N   1      35.129  13.382   5.257  0.00  0.00    -0.349 N 
HETATM   32  H   UNK N   1      34.896  12.477   5.567  0.00  0.00     0.163 HD
BRANCH  31  33
HETATM   33  C   UNK N   1      34.511  13.854   4.035  0.00  0.00     0.149 C 
HETATM   34  C   UNK N   1      34.844  12.994   2.806  0.00  0.00     0.292 C 
HETATM   35  O   UNK N   1      33.675  12.949   2.087  0.00  0.00    -0.287 OA
HETATM   36  C   UNK N   1      32.645  13.465   2.764  0.00  0.00     0.263 C 
HETATM   37  O   UNK N   1      31.513  13.484   2.312  0.00  0.00    -0.265 OA
HETATM   38  C   UNK N   1      32.988  13.964   4.112  0.00  0.00     0.141 C 
BRANCH  34  39
HETATM   39  O   UNK N   1      35.843  13.623   2.057  0.00  0.00    -0.359 OA
BRANCH  39  40
HETATM   40  C   UNK N   1      36.929  12.746   2.081  0.00  0.00     0.166 C 
HETATM   41  C   UNK N   1      38.026  13.319   2.960  0.00  0.00     0.033 C 
ENDBRANCH  39  40
ENDBRANCH  34  39
ENDBRANCH  31  33
ENDBRANCH   5  29
TORSDOF 6
ENDMDL
