REMARK  15 active torsions:
REMARK  status: ('A' for Active; 'I' for Inactive)
REMARK    1  A    between atoms: O_4  and  C_20 
REMARK    2  A    between atoms: O_6  and  C_23 
REMARK    3  A    between atoms: N_8  and  C_10 
REMARK    4  A    between atoms: N_8  and  C_13 
REMARK       I    between atoms: N_8  and  C_14 
REMARK    5  A    between atoms: C_11  and  N_9 
REMARK       I    between atoms: N_9  and  C_22 
REMARK    6  A    between atoms: C_10  and  C_12 
REMARK    7  A    between atoms: C_11  and  C_14 
REMARK    8  A    between atoms: C_11  and  C_15 
REMARK    9  A    between atoms: C_12  and  C_16 
REMARK   10  A    between atoms: C_13  and  C_17 
REMARK   11  A    between atoms: C_15  and  C_19 
REMARK   12  A    between atoms: C_16  and  C_18 
REMARK   13  A    between atoms: C_17  and  C_20 
REMARK   14  A    between atoms: C_19  and  C_23 
REMARK   15  A    between atoms: C_22  and  C_24 
ROOT
HETATM    1  C   UNK N   1       3.732   0.737  -0.057  0.00  0.00     0.177 C 
ENDROOT
BRANCH   1   2
HETATM    2  N   UNK N   1       3.651  -0.702   0.055  0.00  0.00    -0.344 N 
HETATM    3  C   UNK N   1       2.531  -1.446   0.202  0.00  0.00     0.252 C 
HETATM    4  O   UNK N   1       1.434  -0.917   0.303  0.00  0.00    -0.268 OA
HETATM    5  H   UNK N   1       4.503  -1.193   0.020  0.00  0.00     0.163 HD
BRANCH   3   6
HETATM    6  C   UNK N   1       2.669  -2.915   0.222  0.00  0.00     0.033 A 
HETATM    7  C   UNK N   1       1.551  -3.757   0.291  0.00  0.00     0.042 A 
HETATM    8  C   UNK N   1       1.716  -5.149   0.269  0.00  0.00     0.056 A 
HETATM    9 Cl   UNK N   1       0.294  -6.176   0.339  0.00  0.00    -0.083 Cl
HETATM   10  C   UNK N   1       3.007  -5.701   0.181  0.00  0.00     0.055 A 
HETATM   11 Cl   UNK N   1       3.263  -7.437   0.139  0.00  0.00    -0.083 Cl
HETATM   12  C   UNK N   1       4.118  -4.861   0.118  0.00  0.00     0.026 A 
HETATM   13  C   UNK N   1       3.951  -3.479   0.135  0.00  0.00     0.019 A 
ENDBRANCH   3   6
ENDBRANCH   1   2
BRANCH   1  14
HETATM   14  C   UNK N   1       5.208   1.106   0.078  0.00  0.00     0.242 C 
HETATM   15  O   UNK N   1       6.017   0.193   0.222  0.00  0.00    -0.271 OA
HETATM   16  N   UNK N   1       5.670   2.394   0.077  0.00  0.00    -0.350 N 
BRANCH  16  17
HETATM   17  C   UNK N   1       7.102   2.610   0.255  0.00  0.00     0.126 C 
BRANCH  17  18
HETATM   18  C   UNK N   1       7.507   4.067   0.419  0.00  0.00     0.020 C 
BRANCH  18  19
HETATM   19  C   UNK N   1       7.725   4.706  -0.938  0.00  0.00     0.001 C 
BRANCH  19  20
HETATM   20  C   UNK N   1       7.058   6.069  -0.987  0.00  0.00    -0.004 C 
HETATM   21  C   UNK N   1       7.748   7.046  -0.053  0.00  0.00     0.005 C 
ENDBRANCH  19  20
ENDBRANCH  18  19
ENDBRANCH  17  18
ENDBRANCH  16  17
BRANCH  16  22
HETATM   22  C   UNK N   1       4.784   3.528  -0.113  0.00  0.00     0.128 C 
BRANCH  22  23
HETATM   23  C   UNK N   1       3.877   3.753   1.085  0.00  0.00     0.046 C 
BRANCH  23  24
HETATM   24  C   UNK N   1       3.281   5.152   1.015  0.00  0.00     0.168 C 
BRANCH  24  25
HETATM   25  O   UNK N   1       2.548   5.322  -0.163  0.00  0.00    -0.396 OA
HETATM   26  C   UNK N   1       1.259   5.645   0.260  0.00  0.00     0.201 C 
ENDBRANCH  24  25
ENDBRANCH  23  24
ENDBRANCH  22  23
ENDBRANCH  16  22
ENDBRANCH   1  14
BRANCH   1  27
HETATM   27  C   UNK N   1       3.155   1.156  -1.414  0.00  0.00     0.045 C 
BRANCH  27  28
HETATM   28  C   UNK N   1       2.205   2.343  -1.295  0.00  0.00     0.112 C 
BRANCH  28  29
HETATM   29  C   UNK N   1       0.921   1.976  -0.621  0.00  0.00     0.139 C 
HETATM   30  O   UNK N   1       0.152   1.190  -1.149  0.00  0.00    -0.650 OA
BRANCH  29  31
HETATM   31  O   UNK N   1       0.605   2.528   0.564  0.00  0.00    -0.776 OA
HETATM   32  H   UNK N   1       0.828   2.911   1.390  0.00  0.00     0.167 HD
ENDBRANCH  29  31
ENDBRANCH  28  29
ENDBRANCH  27  28
ENDBRANCH   1  27
TORSDOF 15
