MODEL 1
REMARK VINA RESULT:     -27.6      0.000      0.000
REMARK  13 active torsions:
REMARK  status: ('A' for Active; 'I' for Inactive)
REMARK    1  A    between atoms: C_20  and  C_103 
REMARK    2  A    between atoms: C_61  and  N_62 
REMARK    3  A    between atoms: C_68  and  C_73 
REMARK    4  A    between atoms: C_95  and  C_96 
REMARK    5  A    between atoms: C_96  and  N_97 
REMARK    6  A    between atoms: C_105  and  C_111 
REMARK    7  A    between atoms: C_115  and  C_121 
REMARK    8  A    between atoms: C_122  and  C_128 
REMARK    9  A    between atoms: C_132  and  C_160 
REMARK   10  A    between atoms: C_140  and  O_141 
REMARK   11  A    between atoms: C_151  and  O_152 
REMARK   12  A    between atoms: C_164  and  C_170 
REMARK   13  A    between atoms: C_171  and  C_178 
ROOT
HETATM    1  C   UNK N   1      24.190  15.485   3.266  0.00  0.00     0.010 A 
HETATM    2  C   UNK N   1      24.583  15.886   3.738  0.00  0.00    -0.019 A 
HETATM    3  C   UNK N   1      25.148  15.280   3.589  0.00  0.00     0.010 A 
HETATM    4  C   UNK N   1      24.111  16.658   4.049  0.00  0.00     0.031 A 
HETATM    5  C   UNK N   1      23.511  16.375   3.559  0.00  0.00    -0.026 A 
HETATM    6  C   UNK N   1      23.240  15.720   2.968  0.00  0.00    -0.004 A 
HETATM    7  C   UNK N   1      23.399  14.967   2.518  0.00  0.00     0.005 A 
HETATM    8  C   UNK N   1      24.271  14.635   2.710  0.00  0.00     0.074 A 
HETATM    9  C   UNK N   1      25.115  14.548   3.060  0.00  0.00     0.241 A 
HETATM   10  O   UNK N   1      25.789  14.727   3.514  0.00  0.00    -0.269 OA
HETATM   11  N   UNK N   1      24.505  15.026   3.098  0.00  0.00    -0.344 N 
HETATM   12  C   UNK N   1      23.683  15.218   2.832  0.00  0.00     0.185 A 
HETATM   13  C   UNK N   1      23.752  14.512   2.371  0.00  0.00     0.137 A 
HETATM   14  C   UNK N   1      23.010  14.401   1.932  0.00  0.00     0.217 A 
HETATM   15  N   UNK N   1      22.322  14.709   1.813  0.00  0.00    -0.370 N 
HETATM   16  O   UNK N   1      23.471  13.682   1.653  0.00  0.00    -0.274 OA
HETATM   17  C   UNK N   1      22.777  15.305   2.452  0.00  0.00     0.241 A 
HETATM   18  O   UNK N   1      22.029  15.715   2.374  0.00  0.00    -0.271 OA
HETATM   19  N   UNK N   1      22.026  15.229   2.033  0.00  0.00    -0.343 N 
HETATM   20  C   UNK N   1      21.255  15.312   1.716  0.00  0.00     0.215 A 
HETATM   21  C   UNK N   1      20.863  14.823   1.182  0.00  0.00     0.255 A 
HETATM   22  O   UNK N   1      21.366  14.199   0.990  0.00  0.00    -0.302 OA
HETATM   23  C   UNK N   1      22.070  14.303   1.406  0.00  0.00     0.287 A 
HETATM   24  O   UNK N   1      21.454  14.745   1.416  0.00  0.00    -0.262 OA
HETATM   25  C   UNK N   1      22.876  13.909   1.523  0.00  0.00     0.217 A 
HETATM   26  N   UNK N   1      23.453  14.221   2.022  0.00  0.00    -0.342 N 
HETATM   27  C   UNK N   1      24.178  13.837   2.106  0.00  0.00     0.241 A 
HETATM   28  O   UNK N   1      24.490  13.112   1.750  0.00  0.00    -0.271 OA
HETATM   29  C   UNK N   1      24.755  14.149   2.606  0.00  0.00     0.172 A 
HETATM   30  C   UNK N   1      25.068  13.410   2.241  0.00  0.00     0.042 A 
HETATM   31  N   UNK N   1      25.480  13.764   2.689  0.00  0.00    -0.346 N 
HETATM   32  C   UNK N   1      26.057  14.076   3.189  0.00  0.00     0.241 A 
HETATM   33  O   UNK N   1      26.591  14.472   3.726  0.00  0.00    -0.271 OA
HETATM   34  C   UNK N   1      26.782  13.692   3.272  0.00  0.00     0.177 A 
HETATM   35  C   UNK N   1      26.852  12.962   2.795  0.00  0.00     0.038 A 
HETATM   36  C   UNK N   1      26.775  12.274   2.276  0.00  0.00    -0.020 A 
HETATM   37  C   UNK N   1      26.152  12.002   1.782  0.00  0.00     0.009 A 
HETATM   38  C   UNK N   1      27.175  11.587   1.990  0.00  0.00     0.009 A 
HETATM   39  N   UNK N   1      27.360  14.004   3.773  0.00  0.00    -0.346 N 
HETATM   40  C   UNK N   1      28.085  13.619   3.856  0.00  0.00     0.236 A 
HETATM   41  O   UNK N   1      28.359  12.913   3.495  0.00  0.00    -0.272 OA
HETATM   42  C   UNK N   1      28.662  13.931   4.356  0.00  0.00     0.225 A 
HETATM   43  N   UNK N   1      29.387  13.546   4.439  0.00  0.00    -0.350 N 
HETATM   44  C   UNK N   1      29.965  13.859   4.939  0.00  0.00     0.245 A 
HETATM   45  O   UNK N   1      30.120  14.487   5.454  0.00  0.00    -0.271 OA
HETATM   46  C   UNK N   1      30.690  13.474   5.023  0.00  0.00     0.210 A 
HETATM   47  N   UNK N   1      31.267  13.786   5.522  0.00  0.00    -0.342 N 
HETATM   48  C   UNK N   1      31.992  13.402   5.606  0.00  0.00     0.243 A 
HETATM   49  O   UNK N   1      32.014  12.751   5.161  0.00  0.00    -0.271 OA
HETATM   50  C   UNK N   1      32.569  13.714   6.106  0.00  0.00     0.205 A 
HETATM   51  N   UNK N   1      33.294  13.329   6.189  0.00  0.00    -0.343 N 
HETATM   52  C   UNK N   1      33.871  13.641   6.689  0.00  0.00     0.245 A 
HETATM   53  O   UNK N   1      33.399  14.273   6.901  0.00  0.00    -0.271 OA
HETATM   54  C   UNK N   1      34.597  13.257   6.773  0.00  0.00     0.210 A 
HETATM   55  N   UNK N   1      35.174  13.569   7.273  0.00  0.00    -0.342 N 
HETATM   56  C   UNK N   1      35.027  14.265   7.689  0.00  0.00     0.241 A 
HETATM   57  O   UNK N   1      34.276  14.468   7.465  0.00  0.00    -0.271 OA
HETATM   58  C   UNK N   1      35.604  14.578   8.189  0.00  0.00     0.176 A 
HETATM   59  C   UNK N   1      36.389  14.309   8.382  0.00  0.00     0.036 A 
HETATM   60  C   UNK N   1      37.164  14.187   8.674  0.00  0.00     0.021 A 
HETATM   61  C   UNK N   1      37.910  14.196   9.044  0.00  0.00     0.111 A 
HETATM   62  N   UNK N   1      35.456  15.275   8.604  0.00  0.00    -0.346 N 
HETATM   63  C   UNK N   1      34.731  15.660   8.521  0.00  0.00     0.241 A 
HETATM   64  O   UNK N   1      35.068  16.217   9.075  0.00  0.00    -0.271 OA
HETATM   65  C   UNK N   1      34.154  15.348   8.021  0.00  0.00     0.180 A 
HETATM   66  C   UNK N   1      34.025  16.074   8.467  0.00  0.00     0.073 A 
HETATM   67  C   UNK N   1      33.282  16.429   8.354  0.00  0.00    -0.056 A 
HETATM   68  C   UNK N   1      33.134  17.126   8.770  0.00  0.00     0.007 A 
HETATM   69  C   UNK N   1      32.409  17.511   8.686  0.00  0.00     0.001 A 
HETATM   70  C   UNK N   1      31.831  17.198   8.186  0.00  0.00     0.000 A 
HETATM   71  C   UNK N   1      31.709  16.723   7.794  0.00  0.00     0.001 A 
HETATM   72  C   UNK N   1      32.704  16.116   7.854  0.00  0.00     0.007 A 
HETATM   73  N   UNK N   1      33.429  15.732   7.937  0.00  0.00    -0.346 N 
HETATM   74  C   UNK N   1      32.852  15.420   7.438  0.00  0.00     0.243 A 
HETATM   75  O   UNK N   1      32.551  14.856   6.896  0.00  0.00    -0.271 OA
HETATM   76  C   UNK N   1      32.126  15.805   7.354  0.00  0.00     0.205 A 
HETATM   77  N   UNK N   1      31.549  15.492   6.854  0.00  0.00    -0.343 N 
HETATM   78  C   UNK N   1      30.824  15.877   6.771  0.00  0.00     0.245 A 
HETATM   79  O   UNK N   1      31.376  16.158   7.236  0.00  0.00    -0.271 OA
HETATM   80  C   UNK N   1      30.247  15.565   6.271  0.00  0.00     0.210 A 
HETATM   81  N   UNK N   1      29.522  15.950   6.188  0.00  0.00    -0.342 N 
HETATM   82  C   UNK N   1      28.944  15.637   5.688  0.00  0.00     0.246 A 
HETATM   83  O   UNK N   1      28.780  15.009   5.168  0.00  0.00    -0.271 OA
HETATM   84  C   UNK N   1      28.219  16.022   5.604  0.00  0.00     0.210 A 
HETATM   85  N   UNK N   1      27.642  15.710   5.104  0.00  0.00    -0.342 N 
HETATM   86  C   UNK N   1      26.917  16.095   5.021  0.00  0.00     0.243 A 
HETATM   87  O   UNK N   1      26.840  16.765   5.452  0.00  0.00    -0.271 OA
HETATM   88  C   UNK N   1      26.340  15.782   4.521  0.00  0.00     0.205 A 
HETATM   89  N   UNK N   1      25.615  16.167   4.437  0.00  0.00    -0.344 N 
HETATM   90  C   UNK N   1      25.038  15.855   3.938  0.00  0.00     0.241 A 
HETATM   91  O   UNK N   1      25.793  15.479   4.042  0.00  0.00    -0.271 OA
HETATM   92  C   UNK N   1      24.313  16.240   3.854  0.00  0.00     0.176 A 
HETATM   93  C   UNK N   1      24.511  16.964   4.458  0.00  0.00     0.036 A 
HETATM   94  C   UNK N   1      24.344  17.698   4.891  0.00  0.00     0.021 A 
HETATM   95  N   UNK N   1      23.735  15.927   3.354  0.00  0.00    -0.346 N 
HETATM   96  C   UNK N   1      23.010  16.312   3.271  0.00  0.00     0.245 A 
HETATM   97  O   UNK N   1      23.380  16.934   3.886  0.00  0.00    -0.271 OA
HETATM   98  C   UNK N   1      22.433  16.000   2.771  0.00  0.00     0.210 A 
HETATM   99  N   UNK N   1      21.708  16.384   2.687  0.00  0.00    -0.342 N 
HETATM  100  C   UNK N   1      21.130  16.073   2.187  0.00  0.00     0.244 A 
HETATM  101  O   UNK N   1      20.392  16.490   2.120  0.00  0.00    -0.271 OA
HETATM  102  C   UNK N   1      22.285  16.697   3.187  0.00  0.00    -0.026 A 
HETATM  103  C   UNK N   1      22.862  17.009   3.686  0.00  0.00     0.012 A 
HETATM  104  C   UNK N   1      22.714  17.707   4.103  0.00  0.00     0.037 A 
HETATM  105  C   UNK N   1      21.989  18.091   4.019  0.00  0.00     0.065 A 
HETATM  106  O   UNK N   1      21.681  18.795   4.361  0.00  0.00    -0.361 OA
HETATM  107  C   UNK N   1      21.412  17.779   3.519  0.00  0.00     0.037 A 
HETATM  108  C   UNK N   1      21.560  17.082   3.103  0.00  0.00     0.012 A 
HETATM  109  C   UNK N   1      26.086  16.567   4.946  0.00  0.00     0.146 A 
HETATM  110  C   UNK N   1      26.088  17.277   5.445  0.00  0.00     0.042 A 
HETATM  111  O   UNK N   1      25.442  17.119   5.020  0.00  0.00    -0.393 OA
HETATM  112  C   UNK N   1      28.071  16.719   6.020  0.00  0.00    -0.026 A 
HETATM  113  C   UNK N   1      28.650  17.031   6.520  0.00  0.00     0.012 A 
HETATM  114  C   UNK N   1      28.502  17.728   6.936  0.00  0.00     0.037 A 
HETATM  115  C   UNK N   1      27.777  18.113   6.852  0.00  0.00     0.065 A 
HETATM  116  O   UNK N   1      27.437  18.814   7.178  0.00  0.00    -0.361 OA
HETATM  117  C   UNK N   1      27.200  17.801   6.353  0.00  0.00     0.037 A 
HETATM  118  C   UNK N   1      27.347  17.103   5.936  0.00  0.00     0.012 A 
HETATM  119  C   UNK N   1      30.099  16.262   6.687  0.00  0.00    -0.026 A 
HETATM  120  C   UNK N   1      30.677  16.574   7.187  0.00  0.00     0.012 A 
HETATM  121  C   UNK N   1      30.529  17.271   7.603  0.00  0.00     0.037 A 
HETATM  122  C   UNK N   1      29.804  17.656   7.520  0.00  0.00     0.065 A 
HETATM  123  O   UNK N   1      29.733  18.363   7.980  0.00  0.00    -0.361 OA
HETATM  124  C   UNK N   1      29.227  17.343   7.019  0.00  0.00     0.037 A 
HETATM  125  C   UNK N   1      29.374  16.647   6.603  0.00  0.00     0.012 A 
HETATM  126  C   UNK N   1      32.104  16.487   7.821  0.00  0.00     0.146 A 
HETATM  127  C   UNK N   1      31.306  17.075   7.844  0.00  0.00     0.042 A 
HETATM  128  O   UNK N   1      32.593  16.876   8.331  0.00  0.00    -0.393 OA
HETATM  129  C   UNK N   1      34.744  12.560   6.357  0.00  0.00    -0.026 A 
HETATM  130  C   UNK N   1      34.167  12.248   5.857  0.00  0.00     0.012 A 
HETATM  131  C   UNK N   1      34.314  11.551   5.441  0.00  0.00     0.037 A 
HETATM  132  C   UNK N   1      35.039  11.166   5.525  0.00  0.00     0.072 A 
HETATM  133  O   UNK N   1      35.167  10.461   5.093  0.00  0.00    -0.318 OA
HETATM  134  C   UNK N   1      35.912  10.085   5.192  0.00  0.00     0.298 A 
HETATM  135  O   UNK N   1      36.461  10.430   5.702  0.00  0.00    -0.348 OA
HETATM  136  C   UNK N   1      37.198  10.079   5.815  0.00  0.00     0.179 A 
HETATM  137  C   UNK N   1      37.806  10.388   6.327  0.00  0.00     0.198 A 
HETATM  138  C   UNK N   1      37.388   9.380   5.418  0.00  0.00     0.180 A 
HETATM  139  O   UNK N   1      38.154   9.048   5.558  0.00  0.00    -0.390 OA
HETATM  140  C   UNK N   1      36.839   9.034   4.908  0.00  0.00     0.183 A 
HETATM  141  O   UNK N   1      37.409   8.426   4.760  0.00  0.00    -0.390 OA
HETATM  142  C   UNK N   1      36.101   9.386   4.795  0.00  0.00     0.211 A 
HETATM  143  O   UNK N   1      35.554   9.023   4.275  0.00  0.00    -0.346 OA
HETATM  144  C   UNK N   1      35.777   8.312   3.885  0.00  0.00     0.292 A 
HETATM  145  O   UNK N   1      36.521   7.983   4.017  0.00  0.00    -0.348 OA
HETATM  146  C   UNK N   1      36.738   7.285   3.634  0.00  0.00     0.179 A 
HETATM  147  C   UNK N   1      37.480   6.875   3.708  0.00  0.00     0.198 A 
HETATM  148  C   UNK N   1      36.209   6.917   3.119  0.00  0.00     0.180 A 
HETATM  149  O   UNK N   1      36.337   6.204   2.682  0.00  0.00    -0.390 OA
HETATM  150  C   UNK N   1      35.464   7.247   2.987  0.00  0.00     0.183 A 
HETATM  151  O   UNK N   1      34.915   6.876   2.461  0.00  0.00    -0.390 OA
HETATM  152  C   UNK N   1      35.248   7.944   3.370  0.00  0.00     0.204 A 
HETATM  153  O   UNK N   1      34.485   8.282   3.235  0.00  0.00    -0.388 OA
HETATM  154  C   UNK N   1      35.617  11.478   6.024  0.00  0.00     0.037 A 
HETATM  155  C   UNK N   1      35.469  12.175   6.440  0.00  0.00     0.012 A 
HETATM  156  C   UNK N   1      32.779  12.951   5.673  0.00  0.00     0.146 A 
HETATM  157  C   UNK N   1      32.739  12.250   5.163  0.00  0.00     0.042 A 
HETATM  158  O   UNK N   1      33.379  12.382   5.568  0.00  0.00    -0.393 OA
HETATM  159  C   UNK N   1      30.838  12.777   4.607  0.00  0.00    -0.026 A 
HETATM  160  C   UNK N   1      30.260  12.465   4.107  0.00  0.00     0.012 A 
HETATM  161  C   UNK N   1      30.407  11.768   3.691  0.00  0.00     0.037 A 
HETATM  162  C   UNK N   1      31.132  11.383   3.774  0.00  0.00     0.065 A 
HETATM  163  O   UNK N   1      31.430  10.679   3.426  0.00  0.00    -0.361 OA
HETATM  164  C   UNK N   1      31.710  11.696   4.274  0.00  0.00     0.037 A 
HETATM  165  C   UNK N   1      31.563  12.393   4.690  0.00  0.00     0.012 A 
HETATM  166  C   UNK N   1      23.039  13.212   1.114  0.00  0.00    -0.024 A 
HETATM  167  C   UNK N   1      22.473  12.886   0.610  0.00  0.00     0.036 A 
HETATM  168  C   UNK N   1      22.637  12.189   0.201  0.00  0.00     0.067 A 
HETATM  169 Cl   UNK N   1      22.056  11.859  -0.312  0.00  0.00    -0.081 Cl
HETATM  170  C   UNK N   1      23.366  11.817   0.296  0.00  0.00     0.087 A 
HETATM  171  O   UNK N   1      23.727  11.119  -0.016  0.00  0.00    -0.359 OA
HETATM  172  C   UNK N   1      23.933  12.142   0.800  0.00  0.00     0.039 A 
HETATM  173  C   UNK N   1      23.769  12.840   1.209  0.00  0.00     0.012 A 
HETATM  174  C   UNK N   1      20.071  14.839   0.808  0.00  0.00     0.247 A 
HETATM  175  N   UNK N   1      19.656  14.352   0.265  0.00  0.00    -0.368 N 
HETATM  176  O   UNK N   1      19.393  15.343   0.831  0.00  0.00    -0.271 OA
HETATM  177  H   UNK N   1      24.761  15.741   3.723  0.00  0.00     0.163 HD
HETATM  178  H   UNK N   1      21.685  14.276   1.200  0.00  0.00     0.159 HD
HETATM  179  H   UNK N   1      22.071  15.543   2.274  0.00  0.00     0.159 HD
HETATM  180  H   UNK N   1      22.250  14.396   1.559  0.00  0.00     0.163 HD
HETATM  181  H   UNK N   1      23.276  15.053   2.519  0.00  0.00     0.163 HD
HETATM  182  H   UNK N   1      25.657  12.933   2.193  0.00  0.00     0.163 HD
HETATM  183  H   UNK N   1      27.184  14.836   4.269  0.00  0.00     0.163 HD
HETATM  184  H   UNK N   1      29.563  12.715   3.943  0.00  0.00     0.163 HD
HETATM  185  H   UNK N   1      31.091  14.618   6.019  0.00  0.00     0.163 HD
HETATM  186  H   UNK N   1      33.471  12.498   5.693  0.00  0.00     0.163 HD
HETATM  187  H   UNK N   1      36.040  13.110   7.372  0.00  0.00     0.163 HD
HETATM  188  H   UNK N   1      36.146  15.647   9.201  0.00  0.00     0.163 HD
HETATM  189  H   UNK N   1      33.253  16.563   8.434  0.00  0.00     0.163 HD
HETATM  190  H   UNK N   1      31.725  14.661   6.358  0.00  0.00     0.163 HD
HETATM  191  H   UNK N   1      29.346  16.782   6.684  0.00  0.00     0.163 HD
HETATM  192  H   UNK N   1      27.819  14.878   4.608  0.00  0.00     0.163 HD
HETATM  193  H   UNK N   1      25.438  16.999   4.934  0.00  0.00     0.163 HD
HETATM  194  H   UNK N   1      23.911  15.096   2.858  0.00  0.00     0.163 HD
HETATM  195  H   UNK N   1      21.531  17.216   3.183  0.00  0.00     0.163 HD
HETATM  196  H   UNK N   1      20.817  19.081   4.141  0.00  0.00     0.217 HD
HETATM  197  H   UNK N   1      24.623  16.976   4.521  0.00  0.00     0.210 HD
HETATM  198  H   UNK N   1      26.569  19.070   6.934  0.00  0.00     0.217 HD
HETATM  199  H   UNK N   1      28.943  18.865   7.947  0.00  0.00     0.217 HD
HETATM  200  H   UNK N   1      32.296  17.694   8.759  0.00  0.00     0.210 HD
HETATM  201  H   UNK N   1      38.770   9.487   6.165  0.00  0.00     0.210 HD
HETATM  202  H   UNK N   1      38.272   8.453   5.199  0.00  0.00     0.210 HD
HETATM  203  H   UNK N   1      37.181   5.732   2.763  0.00  0.00     0.210 HD
HETATM  204  H   UNK N   1      35.159   6.056   2.005  0.00  0.00     0.210 HD
HETATM  205  H   UNK N   1      33.864   7.848   2.629  0.00  0.00     0.210 HD
HETATM  206  H   UNK N   1      34.221  12.472   6.040  0.00  0.00     0.210 HD
HETATM  207  H   UNK N   1      32.292  10.380   3.636  0.00  0.00     0.217 HD
HETATM  208  H   UNK N   1      24.596  10.885   0.242  0.00  0.00     0.217 HD
HETATM  209  H   UNK N   1      20.082  13.541  -0.095  0.00  0.00     0.159 HD
HETATM  210  H   UNK N   1      18.742  14.592  -0.013  0.00  0.00     0.159 HD
ENDROOT
BRANCH  61 211
HETATM  211  N   UNK N   1      38.568  14.405   9.510  0.00  0.00    -0.430 N 
HETATM  212  H   UNK N   1      39.170  13.678   9.895  0.00  0.00     0.149 HD
HETATM  213  H   UNK N   1      38.771  15.387   9.696  0.00  0.00     0.149 HD
ENDBRANCH  61 211
BRANCH 137 214
HETATM  214  O   UNK N   1      38.550  10.411   6.705  0.00  0.00    -0.398 OA
HETATM  215  H   UNK N   1      38.608  10.640   7.646  0.00  0.00     0.209 HD
ENDBRANCH 137 214
BRANCH 147 216
HETATM  216  O   UNK N   1      37.952   6.226   3.483  0.00  0.00    -0.398 OA
HETATM  217  H   UNK N   1      37.549   5.465   3.037  0.00  0.00     0.209 HD
ENDBRANCH 147 216
BRANCH  94 218
HETATM  218  C   UNK N   1      24.189  18.409   5.313  0.00  0.00     0.111 C 
BRANCH 218 219
HETATM  219  N   UNK N   1      24.210  19.152   5.687  0.00  0.00    -0.430 N 
HETATM  220  H   UNK N   1      25.038  19.433   6.214  0.00  0.00     0.149 HD
HETATM  221  H   UNK N   1      23.410  19.780   5.621  0.00  0.00     0.149 HD
ENDBRANCH 218 219
ENDBRANCH  94 218
TORSDOF 13
ENDMDL
MODEL 2
REMARK VINA RESULT:     -27.1      6.624     10.778
REMARK  13 active torsions:
REMARK  status: ('A' for Active; 'I' for Inactive)
REMARK    1  A    between atoms: C_20  and  C_103 
REMARK    2  A    between atoms: C_61  and  N_62 
REMARK    3  A    between atoms: C_68  and  C_73 
REMARK    4  A    between atoms: C_95  and  C_96 
REMARK    5  A    between atoms: C_96  and  N_97 
REMARK    6  A    between atoms: C_105  and  C_111 
REMARK    7  A    between atoms: C_115  and  C_121 
REMARK    8  A    between atoms: C_122  and  C_128 
REMARK    9  A    between atoms: C_132  and  C_160 
REMARK   10  A    between atoms: C_140  and  O_141 
REMARK   11  A    between atoms: C_151  and  O_152 
REMARK   12  A    between atoms: C_164  and  C_170 
REMARK   13  A    between atoms: C_171  and  C_178 
ROOT
HETATM    1  C   UNK N   1      33.974  14.718   7.817  0.00  0.00     0.010 A 
HETATM    2  C   UNK N   1      34.231  14.738   8.503  0.00  0.00    -0.019 A 
HETATM    3  C   UNK N   1      34.128  13.905   8.433  0.00  0.00     0.010 A 
HETATM    4  C   UNK N   1      34.423  15.626   8.801  0.00  0.00     0.031 A 
HETATM    5  C   UNK N   1      34.162  15.836   8.047  0.00  0.00    -0.026 A 
HETATM    6  C   UNK N   1      33.833  15.547   7.235  0.00  0.00    -0.004 A 
HETATM    7  C   UNK N   1      33.572  14.889   6.693  0.00  0.00     0.005 A 
HETATM    8  C   UNK N   1      33.654  14.043   7.124  0.00  0.00     0.074 A 
HETATM    9  C   UNK N   1      33.828  13.396   7.750  0.00  0.00     0.241 A 
HETATM   10  O   UNK N   1      34.066  13.058   8.473  0.00  0.00    -0.269 OA
HETATM   11  N   UNK N   1      33.868  14.166   7.669  0.00  0.00    -0.344 N 
HETATM   12  C   UNK N   1      33.742  14.875   7.155  0.00  0.00     0.185 A 
HETATM   13  C   UNK N   1      33.477  14.313   6.580  0.00  0.00     0.137 A 
HETATM   14  C   UNK N   1      33.249  14.746   5.862  0.00  0.00     0.217 A 
HETATM   15  N   UNK N   1      33.203  15.447   5.564  0.00  0.00    -0.370 N 
HETATM   16  O   UNK N   1      33.076  13.903   5.604  0.00  0.00    -0.274 OA
HETATM   17  C   UNK N   1      33.553  15.566   6.477  0.00  0.00     0.241 A 
HETATM   18  O   UNK N   1      33.532  16.382   6.219  0.00  0.00    -0.271 OA
HETATM   19  N   UNK N   1      33.337  16.031   5.783  0.00  0.00    -0.343 N 
HETATM   20  C   UNK N   1      33.180  16.626   5.214  0.00  0.00     0.215 A 
HETATM   21  C   UNK N   1      32.888  16.541   4.448  0.00  0.00     0.255 A 
HETATM   22  O   UNK N   1      32.763  15.738   4.310  0.00  0.00    -0.302 OA
HETATM   23  C   UNK N   1      32.978  15.326   4.990  0.00  0.00     0.287 A 
HETATM   24  O   UNK N   1      33.003  16.075   4.873  0.00  0.00    -0.262 OA
HETATM   25  C   UNK N   1      33.020  14.482   5.311  0.00  0.00     0.217 A 
HETATM   26  N   UNK N   1      33.287  14.309   6.071  0.00  0.00    -0.342 N 
HETATM   27  C   UNK N   1      33.312  13.526   6.332  0.00  0.00     0.241 A 
HETATM   28  O   UNK N   1      33.100  12.783   5.944  0.00  0.00    -0.271 OA
HETATM   29  C   UNK N   1      33.580  13.354   7.094  0.00  0.00     0.172 A 
HETATM   30  C   UNK N   1      33.362  12.599   6.693  0.00  0.00     0.042 A 
HETATM   31  N   UNK N   1      33.605  12.572   7.354  0.00  0.00    -0.346 N 
HETATM   32  C   UNK N   1      33.872  12.399   8.115  0.00  0.00     0.241 A 
HETATM   33  O   UNK N   1      34.162  12.318   8.914  0.00  0.00    -0.271 OA
HETATM   34  C   UNK N   1      33.897  11.616   8.375  0.00  0.00     0.177 A 
HETATM   35  C   UNK N   1      33.623  11.037   7.781  0.00  0.00     0.038 A 
HETATM   36  C   UNK N   1      33.329  10.590   7.101  0.00  0.00    -0.020 A 
HETATM   37  C   UNK N   1      33.067  10.823   6.338  0.00  0.00     0.009 A 
HETATM   38  C   UNK N   1      33.154   9.812   6.820  0.00  0.00     0.009 A 
HETATM   39  N   UNK N   1      34.165  11.444   9.137  0.00  0.00    -0.346 N 
HETATM   40  C   UNK N   1      34.190  10.662   9.398  0.00  0.00     0.236 A 
HETATM   41  O   UNK N   1      33.976   9.957   8.994  0.00  0.00    -0.272 OA
HETATM   42  C   UNK N   1      34.457  10.489  10.158  0.00  0.00     0.225 A 
HETATM   43  N   UNK N   1      34.483   9.706  10.419  0.00  0.00    -0.350 N 
HETATM   44  C   UNK N   1      34.750   9.534  11.180  0.00  0.00     0.245 A 
HETATM   45  O   UNK N   1      35.039   9.883  11.871  0.00  0.00    -0.271 OA
HETATM   46  C   UNK N   1      34.775   8.752  11.441  0.00  0.00     0.210 A 
HETATM   47  N   UNK N   1      35.043   8.579  12.202  0.00  0.00    -0.342 N 
HETATM   48  C   UNK N   1      35.068   7.797  12.463  0.00  0.00     0.243 A 
HETATM   49  O   UNK N   1      34.813   7.307  11.899  0.00  0.00    -0.271 OA
HETATM   50  C   UNK N   1      35.335   7.624  13.224  0.00  0.00     0.205 A 
HETATM   51  N   UNK N   1      35.361   6.842  13.484  0.00  0.00    -0.343 N 
HETATM   52  C   UNK N   1      35.628   6.669  14.245  0.00  0.00     0.245 A 
HETATM   53  O   UNK N   1      35.763   7.456  14.416  0.00  0.00    -0.271 OA
HETATM   54  C   UNK N   1      35.653   5.887  14.507  0.00  0.00     0.210 A 
HETATM   55  N   UNK N   1      35.920   5.714  15.267  0.00  0.00    -0.342 N 
HETATM   56  C   UNK N   1      36.162   6.323  15.768  0.00  0.00     0.241 A 
HETATM   57  O   UNK N   1      36.058   6.991  15.323  0.00  0.00    -0.271 OA
HETATM   58  C   UNK N   1      36.430   6.150  16.529  0.00  0.00     0.176 A 
HETATM   59  C   UNK N   1      36.516   5.411  16.943  0.00  0.00     0.036 A 
HETATM   60  C   UNK N   1      36.659   4.786  17.481  0.00  0.00     0.021 A 
HETATM   61  C   UNK N   1      36.847   4.275  18.111  0.00  0.00     0.111 A 
HETATM   62  N   UNK N   1      36.672   6.760  17.029  0.00  0.00    -0.346 N 
HETATM   63  C   UNK N   1      36.646   7.543  16.769  0.00  0.00     0.241 A 
HETATM   64  O   UNK N   1      36.952   7.715  17.549  0.00  0.00    -0.271 OA
HETATM   65  C   UNK N   1      36.379   7.715  16.008  0.00  0.00     0.180 A 
HETATM   66  C   UNK N   1      36.637   8.333  16.550  0.00  0.00     0.073 A 
HETATM   67  C   UNK N   1      36.596   9.107  16.248  0.00  0.00    -0.056 A 
HETATM   68  C   UNK N   1      36.838   9.717  16.748  0.00  0.00     0.007 A 
HETATM   69  C   UNK N   1      36.813  10.499  16.488  0.00  0.00     0.001 A 
HETATM   70  C   UNK N   1      36.545  10.671  15.726  0.00  0.00     0.000 A 
HETATM   71  C   UNK N   1      36.325  10.410  15.199  0.00  0.00     0.001 A 
HETATM   72  C   UNK N   1      36.328   9.279  15.486  0.00  0.00     0.007 A 
HETATM   73  N   UNK N   1      36.354   8.498  15.747  0.00  0.00    -0.346 N 
HETATM   74  C   UNK N   1      36.087   8.670  14.986  0.00  0.00     0.243 A 
HETATM   75  O   UNK N   1      35.787   8.468  14.230  0.00  0.00    -0.271 OA
HETATM   76  C   UNK N   1      36.061   9.453  14.725  0.00  0.00     0.205 A 
HETATM   77  N   UNK N   1      35.794   9.625  13.964  0.00  0.00    -0.343 N 
HETATM   78  C   UNK N   1      35.768  10.408  13.703  0.00  0.00     0.245 A 
HETATM   79  O   UNK N   1      36.017  10.230  14.416  0.00  0.00    -0.271 OA
HETATM   80  C   UNK N   1      35.501  10.580  12.943  0.00  0.00     0.210 A 
HETATM   81  N   UNK N   1      35.476  11.363  12.682  0.00  0.00    -0.342 N 
HETATM   82  C   UNK N   1      35.209  11.535  11.920  0.00  0.00     0.246 A 
HETATM   83  O   UNK N   1      34.917  11.192  11.222  0.00  0.00    -0.271 OA
HETATM   84  C   UNK N   1      35.183  12.318  11.660  0.00  0.00     0.210 A 
HETATM   85  N   UNK N   1      34.916  12.490  10.899  0.00  0.00    -0.342 N 
HETATM   86  C   UNK N   1      34.891  13.273  10.638  0.00  0.00     0.243 A 
HETATM   87  O   UNK N   1      35.139  13.814  11.173  0.00  0.00    -0.271 OA
HETATM   88  C   UNK N   1      34.623  13.445   9.877  0.00  0.00     0.205 A 
HETATM   89  N   UNK N   1      34.598  14.228   9.616  0.00  0.00    -0.344 N 
HETATM   90  C   UNK N   1      34.331  14.400   8.856  0.00  0.00     0.241 A 
HETATM   91  O   UNK N   1      34.367  13.603   9.149  0.00  0.00    -0.271 OA
HETATM   92  C   UNK N   1      34.306  15.183   8.595  0.00  0.00     0.176 A 
HETATM   93  C   UNK N   1      34.644  15.573   9.408  0.00  0.00     0.036 A 
HETATM   94  C   UNK N   1      34.896  16.222   9.926  0.00  0.00     0.021 A 
HETATM   95  N   UNK N   1      34.038  15.355   7.833  0.00  0.00    -0.346 N 
HETATM   96  C   UNK N   1      34.013  16.138   7.573  0.00  0.00     0.245 A 
HETATM   97  O   UNK N   1      34.353  16.334   8.437  0.00  0.00    -0.271 OA
HETATM   98  C   UNK N   1      33.746  16.310   6.812  0.00  0.00     0.210 A 
HETATM   99  N   UNK N   1      33.720  17.093   6.551  0.00  0.00    -0.342 N 
HETATM  100  C   UNK N   1      33.453  17.266   5.790  0.00  0.00     0.244 A 
HETATM  101  O   UNK N   1      33.437  18.081   5.547  0.00  0.00    -0.271 OA
HETATM  102  C   UNK N   1      33.988  16.920   7.312  0.00  0.00    -0.026 A 
HETATM  103  C   UNK N   1      34.255  16.748   8.073  0.00  0.00     0.012 A 
HETATM  104  C   UNK N   1      34.497  17.358   8.574  0.00  0.00     0.037 A 
HETATM  105  C   UNK N   1      34.471  18.140   8.312  0.00  0.00     0.065 A 
HETATM  106  O   UNK N   1      34.676  18.866   8.685  0.00  0.00    -0.361 OA
HETATM  107  C   UNK N   1      34.204  18.313   7.552  0.00  0.00     0.037 A 
HETATM  108  C   UNK N   1      33.962  17.703   7.052  0.00  0.00     0.012 A 
HETATM  109  C   UNK N   1      34.874  14.193  10.367  0.00  0.00     0.146 A 
HETATM  110  C   UNK N   1      35.159  14.707  11.005  0.00  0.00     0.042 A 
HETATM  111  O   UNK N   1      34.936  15.040  10.324  0.00  0.00    -0.393 OA
HETATM  112  C   UNK N   1      35.425  12.927  12.160  0.00  0.00    -0.026 A 
HETATM  113  C   UNK N   1      35.693  12.754  12.922  0.00  0.00     0.012 A 
HETATM  114  C   UNK N   1      35.935  13.364  13.422  0.00  0.00     0.037 A 
HETATM  115  C   UNK N   1      35.909  14.146  13.161  0.00  0.00     0.065 A 
HETATM  116  O   UNK N   1      36.105  14.891  13.505  0.00  0.00    -0.361 OA
HETATM  117  C   UNK N   1      35.642  14.319  12.401  0.00  0.00     0.037 A 
HETATM  118  C   UNK N   1      35.400  13.709  11.900  0.00  0.00     0.012 A 
HETATM  119  C   UNK N   1      35.743  11.190  13.443  0.00  0.00    -0.026 A 
HETATM  120  C   UNK N   1      36.011  11.017  14.205  0.00  0.00     0.012 A 
HETATM  121  C   UNK N   1      36.253  11.627  14.705  0.00  0.00     0.037 A 
HETATM  122  C   UNK N   1      36.227  12.409  14.444  0.00  0.00     0.065 A 
HETATM  123  O   UNK N   1      36.492  12.973  15.017  0.00  0.00    -0.361 OA
HETATM  124  C   UNK N   1      35.960  12.581  13.682  0.00  0.00     0.037 A 
HETATM  125  C   UNK N   1      35.718  11.973  13.182  0.00  0.00     0.012 A 
HETATM  126  C   UNK N   1      36.328   9.965  15.317  0.00  0.00     0.146 A 
HETATM  127  C   UNK N   1      36.366  10.946  15.177  0.00  0.00     0.042 A 
HETATM  128  O   UNK N   1      36.604   9.910  16.073  0.00  0.00    -0.393 OA
HETATM  129  C   UNK N   1      35.411   5.277  14.006  0.00  0.00    -0.026 A 
HETATM  130  C   UNK N   1      35.144   5.449  13.245  0.00  0.00     0.012 A 
HETATM  131  C   UNK N   1      34.902   4.840  12.745  0.00  0.00     0.037 A 
HETATM  132  C   UNK N   1      34.927   4.058  13.005  0.00  0.00     0.072 A 
HETATM  133  O   UNK N   1      34.677   3.456  12.480  0.00  0.00    -0.318 OA
HETATM  134  C   UNK N   1      34.711   2.666  12.766  0.00  0.00     0.298 A 
HETATM  135  O   UNK N   1      34.984   2.537  13.533  0.00  0.00    -0.348 OA
HETATM  136  C   UNK N   1      35.026   1.771  13.833  0.00  0.00     0.179 A 
HETATM  137  C   UNK N   1      35.300   1.575  14.617  0.00  0.00     0.198 A 
HETATM  138  C   UNK N   1      34.794   1.131  13.366  0.00  0.00     0.180 A 
HETATM  139  O   UNK N   1      34.850   0.358  13.708  0.00  0.00    -0.390 OA
HETATM  140  C   UNK N   1      34.520   1.259  12.599  0.00  0.00     0.183 A 
HETATM  141  O   UNK N   1      34.418   0.422  12.530  0.00  0.00    -0.390 OA
HETATM  142  C   UNK N   1      34.478   2.027  12.298  0.00  0.00     0.211 A 
HETATM  143  O   UNK N   1      34.198   2.141  11.517  0.00  0.00    -0.346 OA
HETATM  144  C   UNK N   1      33.969   1.470  11.066  0.00  0.00     0.292 A 
HETATM  145  O   UNK N   1      34.021   0.714  11.393  0.00  0.00    -0.348 OA
HETATM  146  C   UNK N   1      33.796   0.056  10.949  0.00  0.00     0.179 A 
HETATM  147  C   UNK N   1      33.816  -0.756  11.202  0.00  0.00     0.198 A 
HETATM  148  C   UNK N   1      33.519   0.154  10.179  0.00  0.00     0.180 A 
HETATM  149  O   UNK N   1      33.265  -0.453   9.647  0.00  0.00    -0.390 OA
HETATM  150  C   UNK N   1      33.466   0.911   9.852  0.00  0.00     0.183 A 
HETATM  151  O   UNK N   1      33.183   1.021   9.063  0.00  0.00    -0.390 OA
HETATM  152  C   UNK N   1      33.692   1.568  10.296  0.00  0.00     0.204 A 
HETATM  153  O   UNK N   1      33.638   2.342   9.962  0.00  0.00    -0.388 OA
HETATM  154  C   UNK N   1      35.194   3.884  13.766  0.00  0.00     0.037 A 
HETATM  155  C   UNK N   1      35.436   4.494  14.266  0.00  0.00     0.012 A 
HETATM  156  C   UNK N   1      35.082   6.923  12.715  0.00  0.00     0.146 A 
HETATM  157  C   UNK N   1      34.792   6.441  12.055  0.00  0.00     0.042 A 
HETATM  158  O   UNK N   1      35.003   6.093  12.708  0.00  0.00    -0.393 OA
HETATM  159  C   UNK N   1      34.533   8.142  10.941  0.00  0.00    -0.026 A 
HETATM  160  C   UNK N   1      34.266   8.314  10.179  0.00  0.00     0.012 A 
HETATM  161  C   UNK N   1      34.024   7.705   9.679  0.00  0.00     0.037 A 
HETATM  162  C   UNK N   1      34.049   6.923   9.939  0.00  0.00     0.065 A 
HETATM  163  O   UNK N   1      33.841   6.203   9.557  0.00  0.00    -0.361 OA
HETATM  164  C   UNK N   1      34.317   6.750  10.701  0.00  0.00     0.037 A 
HETATM  165  C   UNK N   1      34.559   7.359  11.201  0.00  0.00     0.012 A 
HETATM  166  C   UNK N   1      32.782  13.861   4.823  0.00  0.00    -0.024 A 
HETATM  167  C   UNK N   1      32.512  14.016   4.059  0.00  0.00     0.036 A 
HETATM  168  C   UNK N   1      32.273  13.394   3.571  0.00  0.00     0.067 A 
HETATM  169 Cl   UNK N   1      31.998  13.557   2.791  0.00  0.00    -0.081 Cl
HETATM  170  C   UNK N   1      32.305  12.618   3.848  0.00  0.00     0.087 A 
HETATM  171  O   UNK N   1      32.115  11.861   3.524  0.00  0.00    -0.359 OA
HETATM  172  C   UNK N   1      32.575  12.462   4.612  0.00  0.00     0.039 A 
HETATM  173  C   UNK N   1      32.813  13.084   5.099  0.00  0.00     0.012 A 
HETATM  174  C   UNK N   1      32.699  17.101   3.802  0.00  0.00     0.247 A 
HETATM  175  N   UNK N   1      32.402  17.035   3.020  0.00  0.00    -0.368 N 
HETATM  176  O   UNK N   1      32.733  17.938   3.687  0.00  0.00    -0.271 OA
HETATM  177  H   UNK N   1      34.217  14.509   8.523  0.00  0.00     0.163 HD
HETATM  178  H   UNK N   1      32.872  15.573   4.645  0.00  0.00     0.159 HD
HETATM  179  H   UNK N   1      33.474  16.228   6.101  0.00  0.00     0.159 HD
HETATM  180  H   UNK N   1      33.060  15.269   5.224  0.00  0.00     0.163 HD
HETATM  181  H   UNK N   1      33.576  15.037   6.668  0.00  0.00     0.163 HD
HETATM  182  H   UNK N   1      33.316  11.844   6.757  0.00  0.00     0.163 HD
HETATM  183  H   UNK N   1      34.454  12.172   9.734  0.00  0.00     0.163 HD
HETATM  184  H   UNK N   1      34.194   8.979   9.822  0.00  0.00     0.163 HD
HETATM  185  H   UNK N   1      35.331   9.306  12.799  0.00  0.00     0.163 HD
HETATM  186  H   UNK N   1      35.072   6.114  12.887  0.00  0.00     0.163 HD
HETATM  187  H   UNK N   1      35.951   4.780  15.579  0.00  0.00     0.163 HD
HETATM  188  H   UNK N   1      36.991   6.554  17.938  0.00  0.00     0.163 HD
HETATM  189  H   UNK N   1      36.642   9.224  16.344  0.00  0.00     0.163 HD
HETATM  190  H   UNK N   1      35.505   8.898  13.367  0.00  0.00     0.163 HD
HETATM  191  H   UNK N   1      35.765  12.090  13.279  0.00  0.00     0.163 HD
HETATM  192  H   UNK N   1      34.627  11.763  10.302  0.00  0.00     0.163 HD
HETATM  193  H   UNK N   1      34.887  14.955  10.213  0.00  0.00     0.163 HD
HETATM  194  H   UNK N   1      33.749  14.629   7.236  0.00  0.00     0.163 HD
HETATM  195  H   UNK N   1      34.009  17.820   7.148  0.00  0.00     0.163 HD
HETATM  196  H   UNK N   1      34.578  19.673   8.221  0.00  0.00     0.217 HD
HETATM  197  H   UNK N   1      34.676  15.504   9.512  0.00  0.00     0.210 HD
HETATM  198  H   UNK N   1      35.993  15.679  13.010  0.00  0.00     0.217 HD
HETATM  199  H   UNK N   1      36.498  13.886  14.808  0.00  0.00     0.217 HD
HETATM  200  H   UNK N   1      36.858  10.711  16.557  0.00  0.00     0.210 HD
HETATM  201  H   UNK N   1      35.177   0.251  14.615  0.00  0.00     0.210 HD
HETATM  202  H   UNK N   1      34.642  -0.156  13.275  0.00  0.00     0.210 HD
HETATM  203  H   UNK N   1      33.285  -1.381   9.929  0.00  0.00     0.210 HD
HETATM  204  H   UNK N   1      32.915   0.255   8.532  0.00  0.00     0.210 HD
HETATM  205  H   UNK N   1      33.312   2.457   9.056  0.00  0.00     0.210 HD
HETATM  206  H   UNK N   1      35.247   5.575  13.490  0.00  0.00     0.210 HD
HETATM  207  H   UNK N   1      33.935   5.388  10.009  0.00  0.00     0.217 HD
HETATM  208  H   UNK N   1      32.236  11.088   4.039  0.00  0.00     0.217 HD
HETATM  209  H   UNK N   1      32.183  16.149   2.650  0.00  0.00     0.159 HD
HETATM  210  H   UNK N   1      32.272  17.842   2.472  0.00  0.00     0.159 HD
ENDROOT
BRANCH  61 211
HETATM  211  N   UNK N   1      37.092   3.971  18.847  0.00  0.00    -0.430 N 
HETATM  212  H   UNK N   1      36.868   3.010  19.102  0.00  0.00     0.149 HD
HETATM  213  H   UNK N   1      37.618   4.560  19.493  0.00  0.00     0.149 HD
ENDBRANCH  61 211
BRANCH 137 214
HETATM  214  O   UNK N   1      35.492   1.077  15.258  0.00  0.00    -0.398 OA
HETATM  215  H   UNK N   1      34.963   0.282  15.431  0.00  0.00     0.209 HD
ENDBRANCH 137 214
BRANCH 147 216
HETATM  216  O   UNK N   1      33.673  -1.557  11.014  0.00  0.00    -0.398 OA
HETATM  217  H   UNK N   1      33.582  -1.828  10.088  0.00  0.00     0.209 HD
ENDBRANCH 147 216
BRANCH  94 218
HETATM  218  C   UNK N   1      35.142  16.848  10.432  0.00  0.00     0.111 C 
BRANCH 218 219
HETATM  219  N   UNK N   1      35.313  17.359  11.066  0.00  0.00    -0.430 N 
HETATM  220  H   UNK N   1      36.003  17.090  11.767  0.00  0.00     0.149 HD
HETATM  221  H   UNK N   1      34.832  18.256  11.142  0.00  0.00     0.149 HD
ENDBRANCH 218 219
ENDBRANCH  94 218
TORSDOF 13
ENDMDL
MODEL 3
REMARK VINA RESULT:     -27.0      1.990     11.473
REMARK  13 active torsions:
REMARK  status: ('A' for Active; 'I' for Inactive)
REMARK    1  A    between atoms: C_20  and  C_103 
REMARK    2  A    between atoms: C_61  and  N_62 
REMARK    3  A    between atoms: C_68  and  C_73 
REMARK    4  A    between atoms: C_95  and  C_96 
REMARK    5  A    between atoms: C_96  and  N_97 
REMARK    6  A    between atoms: C_105  and  C_111 
REMARK    7  A    between atoms: C_115  and  C_121 
REMARK    8  A    between atoms: C_122  and  C_128 
REMARK    9  A    between atoms: C_132  and  C_160 
REMARK   10  A    between atoms: C_140  and  O_141 
REMARK   11  A    between atoms: C_151  and  O_152 
REMARK   12  A    between atoms: C_164  and  C_170 
REMARK   13  A    between atoms: C_171  and  C_178 
ROOT
HETATM    1  C   UNK N   1      35.337  13.358   8.052  0.00  0.00     0.010 A 
HETATM    2  C   UNK N   1      34.957  13.973   8.173  0.00  0.00    -0.019 A 
HETATM    3  C   UNK N   1      34.420  13.597   7.645  0.00  0.00     0.010 A 
HETATM    4  C   UNK N   1      35.402  14.571   8.773  0.00  0.00     0.031 A 
HETATM    5  C   UNK N   1      35.980  13.982   8.783  0.00  0.00    -0.026 A 
HETATM    6  C   UNK N   1      36.246  13.155   8.475  0.00  0.00    -0.004 A 
HETATM    7  C   UNK N   1      36.101  12.428   7.980  0.00  0.00     0.005 A 
HETATM    8  C   UNK N   1      35.267  12.490   7.523  0.00  0.00     0.074 A 
HETATM    9  C   UNK N   1      34.459  12.801   7.220  0.00  0.00     0.241 A 
HETATM   10  O   UNK N   1      33.810  13.314   7.124  0.00  0.00    -0.269 OA
HETATM   11  N   UNK N   1      35.040  13.019   7.685  0.00  0.00    -0.344 N 
HETATM   12  C   UNK N   1      35.825  12.831   8.044  0.00  0.00     0.185 A 
HETATM   13  C   UNK N   1      35.766  12.111   7.604  0.00  0.00     0.137 A 
HETATM   14  C   UNK N   1      36.479  11.638   7.759  0.00  0.00     0.217 A 
HETATM   15  N   UNK N   1      37.136  11.638   8.148  0.00  0.00    -0.370 N 
HETATM   16  O   UNK N   1      36.043  11.092   7.194  0.00  0.00    -0.274 OA
HETATM   17  C   UNK N   1      36.694  12.491   8.366  0.00  0.00     0.241 A 
HETATM   18  O   UNK N   1      37.408  12.570   8.833  0.00  0.00    -0.271 OA
HETATM   19  N   UNK N   1      37.415  12.051   8.545  0.00  0.00    -0.343 N 
HETATM   20  C   UNK N   1      38.153  11.771   8.824  0.00  0.00     0.215 A 
HETATM   21  C   UNK N   1      38.534  11.062   8.650  0.00  0.00     0.255 A 
HETATM   22  O   UNK N   1      38.057  10.637   8.129  0.00  0.00    -0.302 OA
HETATM   23  C   UNK N   1      37.381  11.084   7.981  0.00  0.00     0.287 A 
HETATM   24  O   UNK N   1      37.967  11.262   8.428  0.00  0.00    -0.262 OA
HETATM   25  C   UNK N   1      36.612  11.050   7.507  0.00  0.00     0.217 A 
HETATM   26  N   UNK N   1      36.056  11.658   7.521  0.00  0.00    -0.342 N 
HETATM   27  C   UNK N   1      35.364  11.595   7.076  0.00  0.00     0.241 A 
HETATM   28  O   UNK N   1      35.071  10.971   6.552  0.00  0.00    -0.271 OA
HETATM   29  C   UNK N   1      34.807  12.204   7.089  0.00  0.00     0.172 A 
HETATM   30  C   UNK N   1      34.514  11.565   6.557  0.00  0.00     0.042 A 
HETATM   31  N   UNK N   1      34.115  12.140   6.645  0.00  0.00    -0.346 N 
HETATM   32  C   UNK N   1      33.559  12.749   6.658  0.00  0.00     0.241 A 
HETATM   33  O   UNK N   1      33.044  13.426   6.734  0.00  0.00    -0.271 OA
HETATM   34  C   UNK N   1      32.867  12.685   6.213  0.00  0.00     0.177 A 
HETATM   35  C   UNK N   1      32.806  11.940   5.758  0.00  0.00     0.038 A 
HETATM   36  C   UNK N   1      32.887  11.170   5.373  0.00  0.00    -0.020 A 
HETATM   37  C   UNK N   1      33.486  10.582   5.397  0.00  0.00     0.009 A 
HETATM   38  C   UNK N   1      32.509  10.629   4.845  0.00  0.00     0.009 A 
HETATM   39  N   UNK N   1      32.310  13.294   6.227  0.00  0.00    -0.346 N 
HETATM   40  C   UNK N   1      31.618  13.230   5.782  0.00  0.00     0.236 A 
HETATM   41  O   UNK N   1      31.362  12.608   5.280  0.00  0.00    -0.272 OA
HETATM   42  C   UNK N   1      31.062  13.839   5.795  0.00  0.00     0.225 A 
HETATM   43  N   UNK N   1      30.370  13.775   5.350  0.00  0.00    -0.350 N 
HETATM   44  C   UNK N   1      29.814  14.384   5.364  0.00  0.00     0.245 A 
HETATM   45  O   UNK N   1      29.659  15.128   5.691  0.00  0.00    -0.271 OA
HETATM   46  C   UNK N   1      29.122  14.321   4.919  0.00  0.00     0.210 A 
HETATM   47  N   UNK N   1      28.565  14.929   4.932  0.00  0.00    -0.342 N 
HETATM   48  C   UNK N   1      27.873  14.866   4.488  0.00  0.00     0.243 A 
HETATM   49  O   UNK N   1      27.858  14.182   4.094  0.00  0.00    -0.271 OA
HETATM   50  C   UNK N   1      27.317  15.475   4.501  0.00  0.00     0.205 A 
HETATM   51  N   UNK N   1      26.625  15.411   4.056  0.00  0.00    -0.343 N 
HETATM   52  C   UNK N   1      26.069  16.019   4.070  0.00  0.00     0.245 A 
HETATM   53  O   UNK N   1      26.517  16.467   4.586  0.00  0.00    -0.271 OA
HETATM   54  C   UNK N   1      25.377  15.956   3.625  0.00  0.00     0.210 A 
HETATM   55  N   UNK N   1      24.820  16.565   3.639  0.00  0.00    -0.342 N 
HETATM   56  C   UNK N   1      24.955  17.237   4.096  0.00  0.00     0.241 A 
HETATM   57  O   UNK N   1      25.673  17.095   4.441  0.00  0.00    -0.271 OA
HETATM   58  C   UNK N   1      24.399  17.846   4.110  0.00  0.00     0.176 A 
HETATM   59  C   UNK N   1      23.648  17.934   3.716  0.00  0.00     0.036 A 
HETATM   60  C   UNK N   1      22.906  18.175   3.413  0.00  0.00     0.021 A 
HETATM   61  C   UNK N   1      22.191  18.541   3.196  0.00  0.00     0.111 A 
HETATM   62  N   UNK N   1      24.534  18.519   4.568  0.00  0.00    -0.346 N 
HETATM   63  C   UNK N   1      25.226  18.582   5.013  0.00  0.00     0.241 A 
HETATM   64  O   UNK N   1      24.898  19.338   5.244  0.00  0.00    -0.271 OA
HETATM   65  C   UNK N   1      25.782  17.974   5.000  0.00  0.00     0.180 A 
HETATM   66  C   UNK N   1      25.900  18.686   5.470  0.00  0.00     0.073 A 
HETATM   67  C   UNK N   1      26.609  18.710   5.903  0.00  0.00    -0.056 A 
HETATM   68  C   UNK N   1      26.745  19.382   6.361  0.00  0.00     0.007 A 
HETATM   69  C   UNK N   1      27.437  19.446   6.806  0.00  0.00     0.001 A 
HETATM   70  C   UNK N   1      27.993  18.837   6.792  0.00  0.00     0.000 A 
HETATM   71  C   UNK N   1      28.115  18.272   6.546  0.00  0.00     0.001 A 
HETATM   72  C   UNK N   1      27.166  18.101   5.889  0.00  0.00     0.007 A 
HETATM   73  N   UNK N   1      26.475  18.037   5.445  0.00  0.00    -0.346 N 
HETATM   74  C   UNK N   1      27.031  17.428   5.431  0.00  0.00     0.243 A 
HETATM   75  O   UNK N   1      27.325  16.683   5.185  0.00  0.00    -0.271 OA
HETATM   76  C   UNK N   1      27.723  17.492   5.876  0.00  0.00     0.205 A 
HETATM   77  N   UNK N   1      28.279  16.883   5.862  0.00  0.00    -0.343 N 
HETATM   78  C   UNK N   1      28.971  16.947   6.307  0.00  0.00     0.245 A 
HETATM   79  O   UNK N   1      28.439  17.510   6.310  0.00  0.00    -0.271 OA
HETATM   80  C   UNK N   1      29.528  16.338   6.294  0.00  0.00     0.210 A 
HETATM   81  N   UNK N   1      30.220  16.402   6.739  0.00  0.00    -0.342 N 
HETATM   82  C   UNK N   1      30.776  15.793   6.725  0.00  0.00     0.246 A 
HETATM   83  O   UNK N   1      30.939  15.045   6.401  0.00  0.00    -0.271 OA
HETATM   84  C   UNK N   1      31.468  15.857   7.170  0.00  0.00     0.210 A 
HETATM   85  N   UNK N   1      32.024  15.248   7.157  0.00  0.00    -0.342 N 
HETATM   86  C   UNK N   1      32.716  15.312   7.602  0.00  0.00     0.243 A 
HETATM   87  O   UNK N   1      32.785  15.989   8.023  0.00  0.00    -0.271 OA
HETATM   88  C   UNK N   1      33.273  14.703   7.588  0.00  0.00     0.205 A 
HETATM   89  N   UNK N   1      33.965  14.766   8.033  0.00  0.00    -0.344 N 
HETATM   90  C   UNK N   1      34.521  14.158   8.019  0.00  0.00     0.241 A 
HETATM   91  O   UNK N   1      33.800  14.118   7.571  0.00  0.00    -0.271 OA
HETATM   92  C   UNK N   1      35.213  14.222   8.464  0.00  0.00     0.176 A 
HETATM   93  C   UNK N   1      35.017  15.089   8.836  0.00  0.00     0.036 A 
HETATM   94  C   UNK N   1      35.169  15.792   9.322  0.00  0.00     0.021 A 
HETATM   95  N   UNK N   1      35.770  13.612   8.451  0.00  0.00    -0.346 N 
HETATM   96  C   UNK N   1      36.461  13.676   8.895  0.00  0.00     0.245 A 
HETATM   97  O   UNK N   1      36.102  14.516   9.155  0.00  0.00    -0.271 OA
HETATM   98  C   UNK N   1      37.018  13.068   8.882  0.00  0.00     0.210 A 
HETATM   99  N   UNK N   1      37.710  13.131   9.327  0.00  0.00    -0.342 N 
HETATM  100  C   UNK N   1      38.267  12.522   9.314  0.00  0.00     0.244 A 
HETATM  101  O   UNK N   1      38.971  12.614   9.782  0.00  0.00    -0.271 OA
HETATM  102  C   UNK N   1      37.153  13.740   9.340  0.00  0.00    -0.026 A 
HETATM  103  C   UNK N   1      36.597  14.348   9.354  0.00  0.00     0.012 A 
HETATM  104  C   UNK N   1      36.733  15.022   9.812  0.00  0.00     0.037 A 
HETATM  105  C   UNK N   1      37.425  15.085  10.257  0.00  0.00     0.065 A 
HETATM  106  O   UNK N   1      37.714  15.688  10.767  0.00  0.00    -0.361 OA
HETATM  107  C   UNK N   1      37.981  14.476  10.244  0.00  0.00     0.037 A 
HETATM  108  C   UNK N   1      37.845  13.804   9.785  0.00  0.00     0.012 A 
HETATM  109  C   UNK N   1      33.510  15.418   8.130  0.00  0.00     0.146 A 
HETATM  110  C   UNK N   1      33.501  16.176   8.551  0.00  0.00     0.042 A 
HETATM  111  O   UNK N   1      34.121  15.698   8.650  0.00  0.00    -0.393 OA
HETATM  112  C   UNK N   1      31.604  16.529   7.628  0.00  0.00    -0.026 A 
HETATM  113  C   UNK N   1      31.046  17.138   7.642  0.00  0.00     0.012 A 
HETATM  114  C   UNK N   1      31.182  17.810   8.100  0.00  0.00     0.037 A 
HETATM  115  C   UNK N   1      31.874  17.874   8.545  0.00  0.00     0.065 A 
HETATM  116  O   UNK N   1      32.193  18.459   9.062  0.00  0.00    -0.361 OA
HETATM  117  C   UNK N   1      32.430  17.266   8.531  0.00  0.00     0.037 A 
HETATM  118  C   UNK N   1      32.295  16.593   8.073  0.00  0.00     0.012 A 
HETATM  119  C   UNK N   1      29.663  17.011   6.752  0.00  0.00    -0.026 A 
HETATM  120  C   UNK N   1      29.106  17.620   6.765  0.00  0.00     0.012 A 
HETATM  121  C   UNK N   1      29.242  18.292   7.224  0.00  0.00     0.037 A 
HETATM  122  C   UNK N   1      29.934  18.356   7.669  0.00  0.00     0.065 A 
HETATM  123  O   UNK N   1      29.996  19.076   8.110  0.00  0.00    -0.361 OA
HETATM  124  C   UNK N   1      30.490  17.747   7.655  0.00  0.00     0.037 A 
HETATM  125  C   UNK N   1      30.355  17.074   7.197  0.00  0.00     0.012 A 
HETATM  126  C   UNK N   1      27.739  18.209   6.288  0.00  0.00     0.146 A 
HETATM  127  C   UNK N   1      28.499  18.454   6.876  0.00  0.00     0.042 A 
HETATM  128  O   UNK N   1      27.266  18.857   6.374  0.00  0.00    -0.393 OA
HETATM  129  C   UNK N   1      25.241  15.283   3.166  0.00  0.00    -0.026 A 
HETATM  130  C   UNK N   1      25.797  14.675   3.153  0.00  0.00     0.012 A 
HETATM  131  C   UNK N   1      25.663  14.002   2.695  0.00  0.00     0.037 A 
HETATM  132  C   UNK N   1      24.971  13.939   2.250  0.00  0.00     0.072 A 
HETATM  133  O   UNK N   1      24.855  13.247   1.793  0.00  0.00    -0.318 OA
HETATM  134  C   UNK N   1      24.143  13.202   1.347  0.00  0.00     0.298 A 
HETATM  135  O   UNK N   1      23.614  13.833   1.389  0.00  0.00    -0.348 OA
HETATM  136  C   UNK N   1      22.910  13.811   0.960  0.00  0.00     0.179 A 
HETATM  137  C   UNK N   1      22.325  14.431   0.963  0.00  0.00     0.198 A 
HETATM  138  C   UNK N   1      22.734  13.157   0.489  0.00  0.00     0.180 A 
HETATM  139  O   UNK N   1      22.002  13.168   0.062  0.00  0.00    -0.390 OA
HETATM  140  C   UNK N   1      23.264  12.526   0.447  0.00  0.00     0.183 A 
HETATM  141  O   UNK N   1      22.723  12.149  -0.085  0.00  0.00    -0.390 OA
HETATM  142  C   UNK N   1      23.968  12.548   0.876  0.00  0.00     0.211 A 
HETATM  143  O   UNK N   1      24.496  11.899   0.823  0.00  0.00    -0.346 OA
HETATM  144  C   UNK N   1      24.289  11.248   0.334  0.00  0.00     0.292 A 
HETATM  145  O   UNK N   1      23.578  11.253  -0.084  0.00  0.00    -0.348 OA
HETATM  146  C   UNK N   1      23.377  10.612  -0.563  0.00  0.00     0.179 A 
HETATM  147  C   UNK N   1      22.669  10.530  -1.028  0.00  0.00     0.198 A 
HETATM  148  C   UNK N   1      23.887   9.967  -0.624  0.00  0.00     0.180 A 
HETATM  149  O   UNK N   1      23.771   9.268  -1.086  0.00  0.00    -0.390 OA
HETATM  150  C   UNK N   1      24.599   9.962  -0.206  0.00  0.00     0.183 A 
HETATM  151  O   UNK N   1      25.128   9.305  -0.263  0.00  0.00    -0.390 OA
HETATM  152  C   UNK N   1      24.799  10.603   0.273  0.00  0.00     0.204 A 
HETATM  153  O   UNK N   1      25.528  10.598   0.701  0.00  0.00    -0.388 OA
HETATM  154  C   UNK N   1      24.414  14.547   2.263  0.00  0.00     0.037 A 
HETATM  155  C   UNK N   1      24.549  15.219   2.722  0.00  0.00     0.012 A 
HETATM  156  C   UNK N   1      27.123  14.760   3.985  0.00  0.00     0.146 A 
HETATM  157  C   UNK N   1      27.168  13.995   3.581  0.00  0.00     0.042 A 
HETATM  158  O   UNK N   1      26.552  14.441   3.468  0.00  0.00    -0.393 OA
HETATM  159  C   UNK N   1      28.986  13.648   4.461  0.00  0.00    -0.026 A 
HETATM  160  C   UNK N   1      29.543  13.039   4.447  0.00  0.00     0.012 A 
HETATM  161  C   UNK N   1      29.408  12.367   3.989  0.00  0.00     0.037 A 
HETATM  162  C   UNK N   1      28.716  12.303   3.544  0.00  0.00     0.065 A 
HETATM  163  O   UNK N   1      28.436  11.694   3.036  0.00  0.00    -0.361 OA
HETATM  164  C   UNK N   1      28.159  12.912   3.558  0.00  0.00     0.037 A 
HETATM  165  C   UNK N   1      28.294  13.584   4.016  0.00  0.00     0.012 A 
HETATM  166  C   UNK N   1      36.462  10.384   7.044  0.00  0.00    -0.024 A 
HETATM  167  C   UNK N   1      37.007   9.766   7.019  0.00  0.00     0.036 A 
HETATM  168  C   UNK N   1      36.856   9.101   6.556  0.00  0.00     0.067 A 
HETATM  169 Cl   UNK N   1      37.416   8.471   6.533  0.00  0.00    -0.081 Cl
HETATM  170  C   UNK N   1      36.160   9.053   6.117  0.00  0.00     0.087 A 
HETATM  171  O   UNK N   1      35.820   8.482   5.595  0.00  0.00    -0.359 OA
HETATM  172  C   UNK N   1      35.613   9.671   6.141  0.00  0.00     0.039 A 
HETATM  173  C   UNK N   1      35.764  10.337   6.605  0.00  0.00     0.012 A 
HETATM  174  C   UNK N   1      39.293  10.701   8.896  0.00  0.00     0.247 A 
HETATM  175  N   UNK N   1      39.696   9.983   8.730  0.00  0.00    -0.368 N 
HETATM  176  O   UNK N   1      39.939  10.914   9.397  0.00  0.00    -0.271 OA
HETATM  177  H   UNK N   1      34.787  13.904   8.034  0.00  0.00     0.163 HD
HETATM  178  H   UNK N   1      37.750  10.871   8.080  0.00  0.00     0.159 HD
HETATM  179  H   UNK N   1      37.369  12.407   8.718  0.00  0.00     0.159 HD
HETATM  180  H   UNK N   1      37.208  11.270   7.983  0.00  0.00     0.163 HD
HETATM  181  H   UNK N   1      36.217  12.461   8.068  0.00  0.00     0.163 HD
HETATM  182  H   UNK N   1      33.953  11.338   6.098  0.00  0.00     0.163 HD
HETATM  183  H   UNK N   1      32.472  14.097   6.774  0.00  0.00     0.163 HD
HETATM  184  H   UNK N   1      30.209  12.972   4.803  0.00  0.00     0.163 HD
HETATM  185  H   UNK N   1      28.726  15.731   5.479  0.00  0.00     0.163 HD
HETATM  186  H   UNK N   1      26.463  14.608   3.509  0.00  0.00     0.163 HD
HETATM  187  H   UNK N   1      23.994  16.489   3.107  0.00  0.00     0.163 HD
HETATM  188  H   UNK N   1      23.870  19.245   4.584  0.00  0.00     0.163 HD
HETATM  189  H   UNK N   1      26.635  18.839   5.991  0.00  0.00     0.163 HD
HETATM  190  H   UNK N   1      28.118  16.080   5.315  0.00  0.00     0.163 HD
HETATM  191  H   UNK N   1      30.381  17.205   7.286  0.00  0.00     0.163 HD
HETATM  192  H   UNK N   1      31.863  14.446   6.610  0.00  0.00     0.163 HD
HETATM  193  H   UNK N   1      34.126  15.569   8.580  0.00  0.00     0.163 HD
HETATM  194  H   UNK N   1      35.609  12.810   7.904  0.00  0.00     0.163 HD
HETATM  195  H   UNK N   1      37.872  13.933   9.874  0.00  0.00     0.163 HD
HETATM  196  H   UNK N   1      38.540  15.580  11.195  0.00  0.00     0.217 HD
HETATM  197  H   UNK N   1      34.909  15.155   8.809  0.00  0.00     0.210 HD
HETATM  198  H   UNK N   1      33.024  18.317   9.473  0.00  0.00     0.217 HD
HETATM  199  H   UNK N   1      30.749  19.234   8.644  0.00  0.00     0.217 HD
HETATM  200  H   UNK N   1      27.544  19.587   6.949  0.00  0.00     0.210 HD
HETATM  201  H   UNK N   1      21.408  13.931   0.140  0.00  0.00     0.210 HD
HETATM  202  H   UNK N   1      21.895  12.591  -0.326  0.00  0.00     0.210 HD
HETATM  203  H   UNK N   1      22.966   9.168  -1.618  0.00  0.00     0.210 HD
HETATM  204  H   UNK N   1      24.902   8.547  -0.823  0.00  0.00     0.210 HD
HETATM  205  H   UNK N   1      26.127   9.839   0.628  0.00  0.00     0.210 HD
HETATM  206  H   UNK N   1      25.744  14.939   3.270  0.00  0.00     0.210 HD
HETATM  207  H   UNK N   1      27.612  11.787   2.602  0.00  0.00     0.217 HD
HETATM  208  H   UNK N   1      34.989   8.647   5.196  0.00  0.00     0.217 HD
HETATM  209  H   UNK N   1      39.294   9.322   8.121  0.00  0.00     0.159 HD
HETATM  210  H   UNK N   1      40.570   9.801   9.145  0.00  0.00     0.159 HD
ENDROOT
BRANCH  61 211
HETATM  211  N   UNK N   1      21.558  19.078   3.123  0.00  0.00    -0.430 N 
HETATM  212  H   UNK N   1      20.871  18.959   2.379  0.00  0.00     0.149 HD
HETATM  213  H   UNK N   1      21.470  19.854   3.779  0.00  0.00     0.149 HD
ENDBRANCH  61 211
BRANCH 137 214
HETATM  214  O   UNK N   1      21.611  14.811   0.755  0.00  0.00    -0.398 OA
HETATM  215  H   UNK N   1      21.601  15.766   0.587  0.00  0.00     0.209 HD
ENDBRANCH 137 214
BRANCH 147 216
HETATM  216  O   UNK N   1      22.221  10.063  -1.555  0.00  0.00    -0.398 OA
HETATM  217  H   UNK N   1      22.667   9.434  -2.142  0.00  0.00     0.209 HD
ENDBRANCH 147 216
BRANCH  94 218
HETATM  218  C   UNK N   1      35.313  16.475   9.790  0.00  0.00     0.111 C 
BRANCH 218 219
HETATM  219  N   UNK N   1      35.270  17.170  10.247  0.00  0.00    -0.430 N 
HETATM  220  H   UNK N   1      34.375  17.643  10.372  0.00  0.00     0.149 HD
HETATM  221  H   UNK N   1      36.112  17.547  10.681  0.00  0.00     0.149 HD
ENDBRANCH 218 219
ENDBRANCH  94 218
TORSDOF 13
ENDMDL
MODEL 4
REMARK VINA RESULT:     -26.6      2.240     11.128
REMARK  13 active torsions:
REMARK  status: ('A' for Active; 'I' for Inactive)
REMARK    1  A    between atoms: C_20  and  C_103 
REMARK    2  A    between atoms: C_61  and  N_62 
REMARK    3  A    between atoms: C_68  and  C_73 
REMARK    4  A    between atoms: C_95  and  C_96 
REMARK    5  A    between atoms: C_96  and  N_97 
REMARK    6  A    between atoms: C_105  and  C_111 
REMARK    7  A    between atoms: C_115  and  C_121 
REMARK    8  A    between atoms: C_122  and  C_128 
REMARK    9  A    between atoms: C_132  and  C_160 
REMARK   10  A    between atoms: C_140  and  O_141 
REMARK   11  A    between atoms: C_151  and  O_152 
REMARK   12  A    between atoms: C_164  and  C_170 
REMARK   13  A    between atoms: C_171  and  C_178 
ROOT
HETATM    1  C   UNK N   1      31.237  15.190   6.250  0.00  0.00     0.010 A 
HETATM    2  C   UNK N   1      30.639  15.613   6.229  0.00  0.00    -0.019 A 
HETATM    3  C   UNK N   1      30.349  14.965   5.777  0.00  0.00     0.010 A 
HETATM    4  C   UNK N   1      30.753  16.438   6.700  0.00  0.00     0.031 A 
HETATM    5  C   UNK N   1      31.508  16.142   6.850  0.00  0.00    -0.026 A 
HETATM    6  C   UNK N   1      32.103  15.447   6.730  0.00  0.00    -0.004 A 
HETATM    7  C   UNK N   1      32.303  14.645   6.396  0.00  0.00     0.005 A 
HETATM    8  C   UNK N   1      31.564  14.286   5.914  0.00  0.00     0.074 A 
HETATM    9  C   UNK N   1      30.736  14.187   5.531  0.00  0.00     0.241 A 
HETATM   10  O   UNK N   1      29.955  14.372   5.313  0.00  0.00    -0.269 OA
HETATM   11  N   UNK N   1      31.135  14.700   5.956  0.00  0.00    -0.344 N 
HETATM   12  C   UNK N   1      31.888  14.910   6.367  0.00  0.00     0.185 A 
HETATM   13  C   UNK N   1      32.159  14.158   6.087  0.00  0.00     0.137 A 
HETATM   14  C   UNK N   1      32.978  14.046   6.357  0.00  0.00     0.217 A 
HETATM   15  N   UNK N   1      33.537  14.379   6.754  0.00  0.00    -0.370 N 
HETATM   16  O   UNK N   1      32.848  13.278   5.909  0.00  0.00    -0.274 OA
HETATM   17  C   UNK N   1      32.781  15.010   6.776  0.00  0.00     0.241 A 
HETATM   18  O   UNK N   1      33.354  15.451   7.234  0.00  0.00    -0.271 OA
HETATM   19  N   UNK N   1      33.591  14.934   7.063  0.00  0.00    -0.343 N 
HETATM   20  C   UNK N   1      34.346  15.029   7.414  0.00  0.00     0.215 A 
HETATM   21  C   UNK N   1      34.987  14.511   7.404  0.00  0.00     0.255 A 
HETATM   22  O   UNK N   1      34.769  13.844   6.972  0.00  0.00    -0.302 OA
HETATM   23  C   UNK N   1      33.993  13.949   6.715  0.00  0.00     0.287 A 
HETATM   24  O   UNK N   1      34.414  14.424   7.129  0.00  0.00    -0.262 OA
HETATM   25  C   UNK N   1      33.353  13.525   6.239  0.00  0.00     0.217 A 
HETATM   26  N   UNK N   1      32.607  13.852   6.109  0.00  0.00    -0.342 N 
HETATM   27  C   UNK N   1      32.045  13.437   5.669  0.00  0.00     0.241 A 
HETATM   28  O   UNK N   1      32.074  12.664   5.281  0.00  0.00    -0.271 OA
HETATM   29  C   UNK N   1      31.299  13.766   5.539  0.00  0.00     0.172 A 
HETATM   30  C   UNK N   1      31.333  12.977   5.145  0.00  0.00     0.042 A 
HETATM   31  N   UNK N   1      30.738  13.351   5.099  0.00  0.00    -0.346 N 
HETATM   32  C   UNK N   1      29.992  13.678   4.969  0.00  0.00     0.241 A 
HETATM   33  O   UNK N   1      29.251  14.096   4.887  0.00  0.00    -0.271 OA
HETATM   34  C   UNK N   1      29.430  13.264   4.530  0.00  0.00     0.177 A 
HETATM   35  C   UNK N   1      29.711  12.487   4.241  0.00  0.00     0.038 A 
HETATM   36  C   UNK N   1      30.122  11.757   4.029  0.00  0.00    -0.020 A 
HETATM   37  C   UNK N   1      30.895  11.472   4.192  0.00  0.00     0.009 A 
HETATM   38  C   UNK N   1      30.041  11.023   3.617  0.00  0.00     0.009 A 
HETATM   39  N   UNK N   1      28.684  13.592   4.400  0.00  0.00    -0.346 N 
HETATM   40  C   UNK N   1      28.123  13.177   3.960  0.00  0.00     0.236 A 
HETATM   41  O   UNK N   1      28.181  12.424   3.594  0.00  0.00    -0.272 OA
HETATM   42  C   UNK N   1      27.377  13.505   3.830  0.00  0.00     0.225 A 
HETATM   43  N   UNK N   1      26.815  13.090   3.390  0.00  0.00    -0.350 N 
HETATM   44  C   UNK N   1      26.069  13.418   3.260  0.00  0.00     0.245 A 
HETATM   45  O   UNK N   1      25.606  14.084   3.419  0.00  0.00    -0.271 OA
HETATM   46  C   UNK N   1      25.508  13.004   2.821  0.00  0.00     0.210 A 
HETATM   47  N   UNK N   1      24.762  13.331   2.691  0.00  0.00    -0.342 N 
HETATM   48  C   UNK N   1      24.200  12.917   2.251  0.00  0.00     0.243 A 
HETATM   49  O   UNK N   1      24.491  12.224   2.010  0.00  0.00    -0.271 OA
HETATM   50  C   UNK N   1      23.454  13.245   2.121  0.00  0.00     0.205 A 
HETATM   51  N   UNK N   1      22.893  12.830   1.682  0.00  0.00    -0.343 N 
HETATM   52  C   UNK N   1      22.147  13.157   1.552  0.00  0.00     0.245 A 
HETATM   53  O   UNK N   1      22.330  13.833   1.974  0.00  0.00    -0.271 OA
HETATM   54  C   UNK N   1      21.585  12.743   1.112  0.00  0.00     0.210 A 
HETATM   55  N   UNK N   1      20.839  13.071   0.982  0.00  0.00    -0.342 N 
HETATM   56  C   UNK N   1      20.655  13.812   1.291  0.00  0.00     0.241 A 
HETATM   57  O   UNK N   1      21.331  14.034   1.677  0.00  0.00    -0.271 OA
HETATM   58  C   UNK N   1      19.909  14.141   1.161  0.00  0.00     0.176 A 
HETATM   59  C   UNK N   1      19.230  13.848   0.738  0.00  0.00     0.036 A 
HETATM   60  C   UNK N   1      18.490  13.714   0.371  0.00  0.00     0.021 A 
HETATM   61  C   UNK N   1      17.716  13.717   0.063  0.00  0.00     0.111 A 
HETATM   62  N   UNK N   1      19.725  14.883   1.471  0.00  0.00    -0.346 N 
HETATM   63  C   UNK N   1      20.287  15.297   1.911  0.00  0.00     0.241 A 
HETATM   64  O   UNK N   1      19.670  15.888   1.968  0.00  0.00    -0.271 OA
HETATM   65  C   UNK N   1      21.032  14.970   2.041  0.00  0.00     0.180 A 
HETATM   66  C   UNK N   1      20.815  15.743   2.353  0.00  0.00     0.073 A 
HETATM   67  C   UNK N   1      21.409  16.126   2.790  0.00  0.00    -0.056 A 
HETATM   68  C   UNK N   1      21.226  16.868   3.099  0.00  0.00     0.007 A 
HETATM   69  C   UNK N   1      21.787  17.283   3.539  0.00  0.00     0.001 A 
HETATM   70  C   UNK N   1      22.533  16.955   3.669  0.00  0.00     0.000 A 
HETATM   71  C   UNK N   1      22.889  16.451   3.551  0.00  0.00     0.001 A 
HETATM   72  C   UNK N   1      22.156  15.798   2.919  0.00  0.00     0.007 A 
HETATM   73  N   UNK N   1      21.594  15.384   2.480  0.00  0.00    -0.346 N 
HETATM   74  C   UNK N   1      22.340  15.056   2.610  0.00  0.00     0.243 A 
HETATM   75  O   UNK N   1      22.923  14.459   2.535  0.00  0.00    -0.271 OA
HETATM   76  C   UNK N   1      22.902  15.471   3.050  0.00  0.00     0.205 A 
HETATM   77  N   UNK N   1      23.648  15.143   3.180  0.00  0.00    -0.343 N 
HETATM   78  C   UNK N   1      24.209  15.558   3.620  0.00  0.00     0.245 A 
HETATM   79  O   UNK N   1      23.505  15.853   3.489  0.00  0.00    -0.271 OA
HETATM   80  C   UNK N   1      24.955  15.230   3.750  0.00  0.00     0.210 A 
HETATM   81  N   UNK N   1      25.517  15.645   4.189  0.00  0.00    -0.342 N 
HETATM   82  C   UNK N   1      26.263  15.317   4.319  0.00  0.00     0.246 A 
HETATM   83  O   UNK N   1      26.735  14.650   4.164  0.00  0.00    -0.271 OA
HETATM   84  C   UNK N   1      26.825  15.731   4.759  0.00  0.00     0.210 A 
HETATM   85  N   UNK N   1      27.570  15.404   4.889  0.00  0.00    -0.342 N 
HETATM   86  C   UNK N   1      28.132  15.819   5.328  0.00  0.00     0.243 A 
HETATM   87  O   UNK N   1      27.888  16.531   5.599  0.00  0.00    -0.271 OA
HETATM   88  C   UNK N   1      28.878  15.490   5.458  0.00  0.00     0.205 A 
HETATM   89  N   UNK N   1      29.440  15.905   5.898  0.00  0.00    -0.344 N 
HETATM   90  C   UNK N   1      30.185  15.578   6.028  0.00  0.00     0.241 A 
HETATM   91  O   UNK N   1      29.588  15.172   5.579  0.00  0.00    -0.271 OA
HETATM   92  C   UNK N   1      30.747  15.992   6.468  0.00  0.00     0.176 A 
HETATM   93  C   UNK N   1      30.193  16.761   6.643  0.00  0.00     0.036 A 
HETATM   94  C   UNK N   1      30.010  17.543   6.973  0.00  0.00     0.021 A 
HETATM   95  N   UNK N   1      31.493  15.664   6.598  0.00  0.00    -0.346 N 
HETATM   96  C   UNK N   1      32.055  16.079   7.037  0.00  0.00     0.245 A 
HETATM   97  O   UNK N   1      31.374  16.737   7.104  0.00  0.00    -0.271 OA
HETATM   98  C   UNK N   1      32.800  15.751   7.167  0.00  0.00     0.210 A 
HETATM   99  N   UNK N   1      33.362  16.165   7.607  0.00  0.00    -0.342 N 
HETATM  100  C   UNK N   1      34.108  15.838   7.737  0.00  0.00     0.244 A 
HETATM  101  O   UNK N   1      34.668  16.287   8.194  0.00  0.00    -0.271 OA
HETATM  102  C   UNK N   1      32.616  16.494   7.477  0.00  0.00    -0.026 A 
HETATM  103  C   UNK N   1      31.871  16.821   7.347  0.00  0.00     0.012 A 
HETATM  104  C   UNK N   1      31.686  17.564   7.657  0.00  0.00     0.037 A 
HETATM  105  C   UNK N   1      32.249  17.978   8.096  0.00  0.00     0.065 A 
HETATM  106  O   UNK N   1      32.227  18.728   8.476  0.00  0.00    -0.361 OA
HETATM  107  C   UNK N   1      32.994  17.650   8.226  0.00  0.00     0.037 A 
HETATM  108  C   UNK N   1      33.178  16.908   7.917  0.00  0.00     0.012 A 
HETATM  109  C   UNK N   1      28.761  16.327   5.844  0.00  0.00     0.146 A 
HETATM  110  C   UNK N   1      28.416  17.082   6.095  0.00  0.00     0.042 A 
HETATM  111  O   UNK N   1      29.158  16.918   6.308  0.00  0.00    -0.393 OA
HETATM  112  C   UNK N   1      26.641  16.474   5.069  0.00  0.00    -0.026 A 
HETATM  113  C   UNK N   1      25.894  16.801   4.938  0.00  0.00     0.012 A 
HETATM  114  C   UNK N   1      25.710  17.543   5.248  0.00  0.00     0.037 A 
HETATM  115  C   UNK N   1      26.272  17.958   5.688  0.00  0.00     0.065 A 
HETATM  116  O   UNK N   1      26.284  18.706   6.078  0.00  0.00    -0.361 OA
HETATM  117  C   UNK N   1      27.017  17.631   5.817  0.00  0.00     0.037 A 
HETATM  118  C   UNK N   1      27.202  16.888   5.508  0.00  0.00     0.012 A 
HETATM  119  C   UNK N   1      24.771  15.972   4.059  0.00  0.00    -0.026 A 
HETATM  120  C   UNK N   1      24.024  16.300   3.929  0.00  0.00     0.012 A 
HETATM  121  C   UNK N   1      23.841  17.042   4.239  0.00  0.00     0.037 A 
HETATM  122  C   UNK N   1      24.402  17.457   4.678  0.00  0.00     0.065 A 
HETATM  123  O   UNK N   1      24.135  18.209   4.960  0.00  0.00    -0.361 OA
HETATM  124  C   UNK N   1      25.148  17.129   4.808  0.00  0.00     0.037 A 
HETATM  125  C   UNK N   1      25.333  16.387   4.499  0.00  0.00     0.012 A 
HETATM  126  C   UNK N   1      22.596  16.197   3.302  0.00  0.00     0.146 A 
HETATM  127  C   UNK N   1      23.135  16.828   3.844  0.00  0.00     0.042 A 
HETATM  128  O   UNK N   1      21.904  16.607   3.236  0.00  0.00    -0.393 OA
HETATM  129  C   UNK N   1      21.769  12.000   0.802  0.00  0.00    -0.026 A 
HETATM  130  C   UNK N   1      22.515  11.673   0.932  0.00  0.00     0.012 A 
HETATM  131  C   UNK N   1      22.699  10.931   0.623  0.00  0.00     0.037 A 
HETATM  132  C   UNK N   1      22.137  10.517   0.183  0.00  0.00     0.072 A 
HETATM  133  O   UNK N   1      22.346   9.765  -0.121  0.00  0.00    -0.318 OA
HETATM  134  C   UNK N   1      21.759   9.360  -0.566  0.00  0.00     0.298 A 
HETATM  135  O   UNK N   1      21.027   9.723  -0.672  0.00  0.00    -0.348 OA
HETATM  136  C   UNK N   1      20.437   9.344  -1.105  0.00  0.00     0.179 A 
HETATM  137  C   UNK N   1      19.661   9.669  -1.249  0.00  0.00     0.198 A 
HETATM  138  C   UNK N   1      20.578   8.600  -1.433  0.00  0.00     0.180 A 
HETATM  139  O   UNK N   1      19.949   8.241  -1.871  0.00  0.00    -0.390 OA
HETATM  140  C   UNK N   1      21.311   8.236  -1.327  0.00  0.00     0.183 A 
HETATM  141  O   UNK N   1      21.017   7.585  -1.781  0.00  0.00    -0.390 OA
HETATM  142  C   UNK N   1      21.902   8.616  -0.893  0.00  0.00     0.211 A 
HETATM  143  O   UNK N   1      22.641   8.234  -0.794  0.00  0.00    -0.346 OA
HETATM  144  C   UNK N   1      22.755   7.476  -1.140  0.00  0.00     0.292 A 
HETATM  145  O   UNK N   1      22.146   7.120  -1.568  0.00  0.00    -0.348 OA
HETATM  146  C   UNK N   1      22.260   6.377  -1.907  0.00  0.00     0.179 A 
HETATM  147  C   UNK N   1      21.692   5.935  -2.362  0.00  0.00     0.198 A 
HETATM  148  C   UNK N   1      22.982   5.989  -1.817  0.00  0.00     0.180 A 
HETATM  149  O   UNK N   1      23.194   5.230  -2.124  0.00  0.00    -0.390 OA
HETATM  150  C   UNK N   1      23.591   6.346  -1.388  0.00  0.00     0.183 A 
HETATM  151  O   UNK N   1      24.335   5.956  -1.291  0.00  0.00    -0.390 OA
HETATM  152  C   UNK N   1      23.477   7.089  -1.050  0.00  0.00     0.204 A 
HETATM  153  O   UNK N   1      24.100   7.453  -0.612  0.00  0.00    -0.388 OA
HETATM  154  C   UNK N   1      21.391  10.844   0.053  0.00  0.00     0.037 A 
HETATM  155  C   UNK N   1      21.207  11.586   0.362  0.00  0.00     0.012 A 
HETATM  156  C   UNK N   1      23.607  12.431   1.762  0.00  0.00     0.146 A 
HETATM  157  C   UNK N   1      23.986  11.687   1.530  0.00  0.00     0.042 A 
HETATM  158  O   UNK N   1      23.262  11.822   1.309  0.00  0.00    -0.393 OA
HETATM  159  C   UNK N   1      25.691  12.261   2.511  0.00  0.00    -0.026 A 
HETATM  160  C   UNK N   1      26.437  11.933   2.641  0.00  0.00     0.012 A 
HETATM  161  C   UNK N   1      26.622  11.192   2.332  0.00  0.00     0.037 A 
HETATM  162  C   UNK N   1      26.060  10.777   1.892  0.00  0.00     0.065 A 
HETATM  163  O   UNK N   1      26.093  10.025   1.517  0.00  0.00    -0.361 OA
HETATM  164  C   UNK N   1      25.314  11.105   1.762  0.00  0.00     0.037 A 
HETATM  165  C   UNK N   1      25.130  11.847   2.071  0.00  0.00     0.012 A 
HETATM  166  C   UNK N   1      33.521  12.782   5.922  0.00  0.00    -0.024 A 
HETATM  167  C   UNK N   1      34.262  12.440   6.043  0.00  0.00     0.036 A 
HETATM  168  C   UNK N   1      34.429  11.696   5.726  0.00  0.00     0.067 A 
HETATM  169 Cl   UNK N   1      35.187  11.350   5.851  0.00  0.00    -0.081 Cl
HETATM  170  C   UNK N   1      33.856  11.296   5.289  0.00  0.00     0.087 A 
HETATM  171  O   UNK N   1      33.822  10.551   4.890  0.00  0.00    -0.359 OA
HETATM  172  C   UNK N   1      33.115  11.637   5.168  0.00  0.00     0.039 A 
HETATM  173  C   UNK N   1      32.947  12.381   5.485  0.00  0.00     0.012 A 
HETATM  174  C   UNK N   1      35.795  14.534   7.740  0.00  0.00     0.247 A 
HETATM  175  N   UNK N   1      36.458  14.020   7.741  0.00  0.00    -0.368 N 
HETATM  176  O   UNK N   1      36.251  15.075   8.203  0.00  0.00    -0.271 OA
HETATM  177  H   UNK N   1      30.525  15.458   6.103  0.00  0.00     0.163 HD
HETATM  178  H   UNK N   1      34.403  13.923   6.866  0.00  0.00     0.159 HD
HETATM  179  H   UNK N   1      33.394  15.267   7.156  0.00  0.00     0.159 HD
HETATM  180  H   UNK N   1      33.763  14.047   6.673  0.00  0.00     0.163 HD
HETATM  181  H   UNK N   1      32.388  14.738   6.478  0.00  0.00     0.163 HD
HETATM  182  H   UNK N   1      30.957  12.465   4.730  0.00  0.00     0.163 HD
HETATM  183  H   UNK N   1      28.465  14.478   4.769  0.00  0.00     0.163 HD
HETATM  184  H   UNK N   1      27.035  12.204   3.021  0.00  0.00     0.163 HD
HETATM  185  H   UNK N   1      24.542  14.216   3.060  0.00  0.00     0.163 HD
HETATM  186  H   UNK N   1      23.112  11.944   1.312  0.00  0.00     0.163 HD
HETATM  187  H   UNK N   1      20.168  12.576   0.457  0.00  0.00     0.163 HD
HETATM  188  H   UNK N   1      18.835  15.274   1.316  0.00  0.00     0.163 HD
HETATM  189  H   UNK N   1      21.374  16.269   2.849  0.00  0.00     0.163 HD
HETATM  190  H   UNK N   1      23.867  14.257   2.810  0.00  0.00     0.163 HD
HETATM  191  H   UNK N   1      25.297  16.531   4.559  0.00  0.00     0.163 HD
HETATM  192  H   UNK N   1      27.790  14.518   4.519  0.00  0.00     0.163 HD
HETATM  193  H   UNK N   1      29.220  16.791   6.268  0.00  0.00     0.163 HD
HETATM  194  H   UNK N   1      31.713  14.779   6.229  0.00  0.00     0.163 HD
HETATM  195  H   UNK N   1      33.143  17.051   7.976  0.00  0.00     0.163 HD
HETATM  196  H   UNK N   1      32.979  19.040   8.938  0.00  0.00     0.217 HD
HETATM  197  H   UNK N   1      30.072  16.773   6.600  0.00  0.00     0.210 HD
HETATM  198  H   UNK N   1      27.055  18.984   6.532  0.00  0.00     0.217 HD
HETATM  199  H   UNK N   1      24.706  18.749   5.468  0.00  0.00     0.217 HD
HETATM  200  H   UNK N   1      21.816  17.479   3.651  0.00  0.00     0.210 HD
HETATM  201  H   UNK N   1      19.102   8.703  -1.972  0.00  0.00     0.210 HD
HETATM  202  H   UNK N   1      20.114   7.608  -2.132  0.00  0.00     0.210 HD
HETATM  203  H   UNK N   1      22.552   4.722  -2.644  0.00  0.00     0.210 HD
HETATM  204  H   UNK N   1      24.480   5.081  -1.685  0.00  0.00     0.210 HD
HETATM  205  H   UNK N   1      24.950   6.997  -0.507  0.00  0.00     0.210 HD
HETATM  206  H   UNK N   1      22.351  11.911   0.990  0.00  0.00     0.210 HD
HETATM  207  H   UNK N   1      25.349   9.701   1.051  0.00  0.00     0.217 HD
HETATM  208  H   UNK N   1      33.039  10.295   4.444  0.00  0.00     0.217 HD
HETATM  209  H   UNK N   1      36.410  13.154   7.274  0.00  0.00     0.159 HD
HETATM  210  H   UNK N   1      37.285  14.281   8.207  0.00  0.00     0.159 HD
ENDROOT
BRANCH  61 211
HETATM  211  N   UNK N   1      16.938  13.934  -0.138  0.00  0.00    -0.430 N 
HETATM  212  H   UNK N   1      16.148  13.488   0.328  0.00  0.00     0.149 HD
HETATM  213  H   UNK N   1      16.773  14.646  -0.849  0.00  0.00     0.149 HD
ENDBRANCH  61 211
BRANCH 137 214
HETATM  214  O   UNK N   1      18.883   9.687  -1.551  0.00  0.00    -0.398 OA
HETATM  215  H   UNK N   1      18.337  10.480  -1.435  0.00  0.00     0.209 HD
ENDBRANCH 137 214
BRANCH 147 216
HETATM  216  O   UNK N   1      21.519   5.241  -2.791  0.00  0.00    -0.398 OA
HETATM  217  H   UNK N   1      21.936   5.087  -3.652  0.00  0.00     0.209 HD
ENDBRANCH 147 216
BRANCH  94 218
HETATM  218  C   UNK N   1      29.828  18.300   7.291  0.00  0.00     0.111 C 
BRANCH 218 219
HETATM  219  N   UNK N   1      29.489  18.966   7.657  0.00  0.00    -0.430 N 
HETATM  220  H   UNK N   1      28.476  19.040   7.745  0.00  0.00     0.149 HD
HETATM  221  H   UNK N   1      30.088  19.709   8.017  0.00  0.00     0.149 HD
ENDBRANCH 218 219
ENDBRANCH  94 218
TORSDOF 13
ENDMDL
MODEL 5
REMARK VINA RESULT:     -26.5      2.782      5.966
REMARK  13 active torsions:
REMARK  status: ('A' for Active; 'I' for Inactive)
REMARK    1  A    between atoms: C_20  and  C_103 
REMARK    2  A    between atoms: C_61  and  N_62 
REMARK    3  A    between atoms: C_68  and  C_73 
REMARK    4  A    between atoms: C_95  and  C_96 
REMARK    5  A    between atoms: C_96  and  N_97 
REMARK    6  A    between atoms: C_105  and  C_111 
REMARK    7  A    between atoms: C_115  and  C_121 
REMARK    8  A    between atoms: C_122  and  C_128 
REMARK    9  A    between atoms: C_132  and  C_160 
REMARK   10  A    between atoms: C_140  and  O_141 
REMARK   11  A    between atoms: C_151  and  O_152 
REMARK   12  A    between atoms: C_164  and  C_170 
REMARK   13  A    between atoms: C_171  and  C_178 
ROOT
HETATM    1  C   UNK N   1      29.794  16.482   5.844  0.00  0.00     0.010 A 
HETATM    2  C   UNK N   1      30.307  16.532   6.364  0.00  0.00    -0.019 A 
HETATM    3  C   UNK N   1      30.667  15.936   5.892  0.00  0.00     0.010 A 
HETATM    4  C   UNK N   1      30.093  17.181   7.034  0.00  0.00     0.031 A 
HETATM    5  C   UNK N   1      29.414  17.290   6.579  0.00  0.00    -0.026 A 
HETATM    6  C   UNK N   1      28.938  17.041   5.829  0.00  0.00    -0.004 A 
HETATM    7  C   UNK N   1      28.852  16.544   5.094  0.00  0.00     0.005 A 
HETATM    8  C   UNK N   1      29.600  15.964   4.988  0.00  0.00     0.074 A 
HETATM    9  C   UNK N   1      30.400  15.536   5.128  0.00  0.00     0.241 A 
HETATM   10  O   UNK N   1      31.119  15.334   5.495  0.00  0.00    -0.269 OA
HETATM   11  N   UNK N   1      29.955  16.081   5.455  0.00  0.00    -0.344 N 
HETATM   12  C   UNK N   1      29.211  16.558   5.430  0.00  0.00     0.185 A 
HETATM   13  C   UNK N   1      29.052  16.127   4.719  0.00  0.00     0.137 A 
HETATM   14  C   UNK N   1      28.288  16.398   4.403  0.00  0.00     0.217 A 
HETATM   15  N   UNK N   1      27.713  16.881   4.535  0.00  0.00    -0.370 N 
HETATM   16  O   UNK N   1      28.511  15.783   3.786  0.00  0.00    -0.274 OA
HETATM   17  C   UNK N   1      28.350  17.014   5.274  0.00  0.00     0.241 A 
HETATM   18  O   UNK N   1      27.748  17.582   5.494  0.00  0.00    -0.271 OA
HETATM   19  N   UNK N   1      27.590  17.308   4.992  0.00  0.00    -0.343 N 
HETATM   20  C   UNK N   1      26.860  17.701   4.868  0.00  0.00     0.215 A 
HETATM   21  C   UNK N   1      26.318  17.600   4.256  0.00  0.00     0.255 A 
HETATM   22  O   UNK N   1      26.612  17.021   3.748  0.00  0.00    -0.302 OA
HETATM   23  C   UNK N   1      27.336  16.764   4.047  0.00  0.00     0.287 A 
HETATM   24  O   UNK N   1      26.874  17.291   4.337  0.00  0.00    -0.262 OA
HETATM   25  C   UNK N   1      27.999  16.180   3.860  0.00  0.00     0.217 A 
HETATM   26  N   UNK N   1      28.665  16.097   4.339  0.00  0.00    -0.342 N 
HETATM   27  C   UNK N   1      29.253  15.554   4.138  0.00  0.00     0.241 A 
HETATM   28  O   UNK N   1      29.327  15.003   3.474  0.00  0.00    -0.271 OA
HETATM   29  C   UNK N   1      29.920  15.472   4.618  0.00  0.00     0.172 A 
HETATM   30  C   UNK N   1      29.989  14.913   3.939  0.00  0.00     0.042 A 
HETATM   31  N   UNK N   1      30.507  14.928   4.417  0.00  0.00    -0.346 N 
HETATM   32  C   UNK N   1      31.173  14.846   4.896  0.00  0.00     0.241 A 
HETATM   33  O   UNK N   1      31.823  14.831   5.450  0.00  0.00    -0.271 OA
HETATM   34  C   UNK N   1      31.761  14.302   4.696  0.00  0.00     0.177 A 
HETATM   35  C   UNK N   1      31.595  13.858   3.961  0.00  0.00     0.038 A 
HETATM   36  C   UNK N   1      31.299  13.504   3.230  0.00  0.00    -0.020 A 
HETATM   37  C   UNK N   1      30.601  13.629   2.779  0.00  0.00     0.009 A 
HETATM   38  C   UNK N   1      31.471  12.934   2.629  0.00  0.00     0.009 A 
HETATM   39  N   UNK N   1      32.428  14.220   5.176  0.00  0.00    -0.346 N 
HETATM   40  C   UNK N   1      33.015  13.677   4.975  0.00  0.00     0.236 A 
HETATM   41  O   UNK N   1      33.057  13.154   4.319  0.00  0.00    -0.272 OA
HETATM   42  C   UNK N   1      33.681  13.594   5.454  0.00  0.00     0.225 A 
HETATM   43  N   UNK N   1      34.269  13.051   5.253  0.00  0.00    -0.350 N 
HETATM   44  C   UNK N   1      34.935  12.969   5.733  0.00  0.00     0.245 A 
HETATM   45  O   UNK N   1      35.289  13.255   6.424  0.00  0.00    -0.271 OA
HETATM   46  C   UNK N   1      35.523  12.426   5.533  0.00  0.00     0.210 A 
HETATM   47  N   UNK N   1      36.189  12.343   6.012  0.00  0.00    -0.342 N 
HETATM   48  C   UNK N   1      36.777  11.800   5.812  0.00  0.00     0.243 A 
HETATM   49  O   UNK N   1      36.590  11.421   5.145  0.00  0.00    -0.271 OA
HETATM   50  C   UNK N   1      37.443  11.718   6.291  0.00  0.00     0.205 A 
HETATM   51  N   UNK N   1      38.031  11.174   6.090  0.00  0.00    -0.343 N 
HETATM   52  C   UNK N   1      38.697  11.092   6.570  0.00  0.00     0.245 A 
HETATM   53  O   UNK N   1      38.436  11.662   7.094  0.00  0.00    -0.271 OA
HETATM   54  C   UNK N   1      39.285  10.549   6.370  0.00  0.00     0.210 A 
HETATM   55  N   UNK N   1      39.951  10.466   6.849  0.00  0.00    -0.342 N 
HETATM   56  C   UNK N   1      40.030  10.926   7.528  0.00  0.00     0.241 A 
HETATM   57  O   UNK N   1      39.359  11.378   7.534  0.00  0.00    -0.271 OA
HETATM   58  C   UNK N   1      40.697  10.844   8.008  0.00  0.00     0.176 A 
HETATM   59  C   UNK N   1      41.380  10.339   7.943  0.00  0.00     0.036 A 
HETATM   60  C   UNK N   1      42.101   9.923   8.028  0.00  0.00     0.021 A 
HETATM   61  C   UNK N   1      42.835   9.593   8.240  0.00  0.00     0.111 A 
HETATM   62  N   UNK N   1      40.775  11.305   8.688  0.00  0.00    -0.346 N 
HETATM   63  C   UNK N   1      40.187  11.849   8.888  0.00  0.00     0.241 A 
HETATM   64  O   UNK N   1      40.697  12.013   9.555  0.00  0.00    -0.271 OA
HETATM   65  C   UNK N   1      39.521  11.931   8.409  0.00  0.00     0.180 A 
HETATM   66  C   UNK N   1      39.627  12.400   9.124  0.00  0.00     0.073 A 
HETATM   67  C   UNK N   1      39.013  12.935   9.289  0.00  0.00    -0.056 A 
HETATM   68  C   UNK N   1      39.091  13.396   9.968  0.00  0.00     0.007 A 
HETATM   69  C   UNK N   1      38.504  13.939  10.169  0.00  0.00     0.001 A 
HETATM   70  C   UNK N   1      37.837  14.021   9.689  0.00  0.00     0.000 A 
HETATM   71  C   UNK N   1      37.565  13.807   9.166  0.00  0.00     0.001 A 
HETATM   72  C   UNK N   1      38.346  13.017   8.809  0.00  0.00     0.007 A 
HETATM   73  N   UNK N   1      38.933  12.474   8.609  0.00  0.00    -0.346 N 
HETATM   74  C   UNK N   1      38.267  12.557   8.130  0.00  0.00     0.243 A 
HETATM   75  O   UNK N   1      37.791  12.372   7.465  0.00  0.00    -0.271 OA
HETATM   76  C   UNK N   1      37.680  13.100   8.330  0.00  0.00     0.205 A 
HETATM   77  N   UNK N   1      37.013  13.182   7.850  0.00  0.00    -0.343 N 
HETATM   78  C   UNK N   1      36.425  13.726   8.051  0.00  0.00     0.245 A 
HETATM   79  O   UNK N   1      37.057  13.637   8.491  0.00  0.00    -0.271 OA
HETATM   80  C   UNK N   1      35.759  13.808   7.572  0.00  0.00     0.210 A 
HETATM   81  N   UNK N   1      35.172  14.351   7.773  0.00  0.00    -0.342 N 
HETATM   82  C   UNK N   1      34.505  14.434   7.293  0.00  0.00     0.246 A 
HETATM   83  O   UNK N   1      34.143  14.152   6.600  0.00  0.00    -0.271 OA
HETATM   84  C   UNK N   1      33.918  14.977   7.493  0.00  0.00     0.210 A 
HETATM   85  N   UNK N   1      33.252  15.059   7.014  0.00  0.00    -0.342 N 
HETATM   86  C   UNK N   1      32.664  15.603   7.215  0.00  0.00     0.243 A 
HETATM   87  O   UNK N   1      32.803  16.017   7.885  0.00  0.00    -0.271 OA
HETATM   88  C   UNK N   1      31.997  15.685   6.735  0.00  0.00     0.205 A 
HETATM   89  N   UNK N   1      31.410  16.228   6.936  0.00  0.00    -0.344 N 
HETATM   90  C   UNK N   1      30.744  16.311   6.457  0.00  0.00     0.241 A 
HETATM   91  O   UNK N   1      31.364  15.759   6.273  0.00  0.00    -0.271 OA
HETATM   92  C   UNK N   1      30.156  16.854   6.657  0.00  0.00     0.176 A 
HETATM   93  C   UNK N   1      30.583  17.175   7.459  0.00  0.00     0.036 A 
HETATM   94  C   UNK N   1      30.655  17.666   8.172  0.00  0.00     0.021 A 
HETATM   95  N   UNK N   1      29.490  16.936   6.177  0.00  0.00    -0.346 N 
HETATM   96  C   UNK N   1      28.902  17.480   6.378  0.00  0.00     0.245 A 
HETATM   97  O   UNK N   1      29.464  17.666   7.120  0.00  0.00    -0.271 OA
HETATM   98  C   UNK N   1      28.236  17.562   5.899  0.00  0.00     0.210 A 
HETATM   99  N   UNK N   1      27.648  18.105   6.099  0.00  0.00    -0.342 N 
HETATM  100  C   UNK N   1      26.981  18.188   5.620  0.00  0.00     0.244 A 
HETATM  101  O   UNK N   1      26.391  18.756   5.850  0.00  0.00    -0.271 OA
HETATM  102  C   UNK N   1      28.314  18.023   6.578  0.00  0.00    -0.026 A 
HETATM  103  C   UNK N   1      28.980  17.941   7.057  0.00  0.00     0.012 A 
HETATM  104  C   UNK N   1      29.059  18.402   7.738  0.00  0.00     0.037 A 
HETATM  105  C   UNK N   1      28.471  18.945   7.937  0.00  0.00     0.065 A 
HETATM  106  O   UNK N   1      28.394  19.482   8.581  0.00  0.00    -0.361 OA
HETATM  107  C   UNK N   1      27.805  19.028   7.458  0.00  0.00     0.037 A 
HETATM  108  C   UNK N   1      27.727  18.567   6.779  0.00  0.00     0.012 A 
HETATM  109  C   UNK N   1      32.000  16.243   7.476  0.00  0.00     0.146 A 
HETATM  110  C   UNK N   1      32.230  16.644   8.211  0.00  0.00     0.042 A 
HETATM  111  O   UNK N   1      31.546  16.844   7.871  0.00  0.00    -0.393 OA
HETATM  112  C   UNK N   1      33.996  15.438   8.173  0.00  0.00    -0.026 A 
HETATM  113  C   UNK N   1      34.663  15.355   8.652  0.00  0.00     0.012 A 
HETATM  114  C   UNK N   1      34.742  15.816   9.332  0.00  0.00     0.037 A 
HETATM  115  C   UNK N   1      34.154  16.360   9.533  0.00  0.00     0.065 A 
HETATM  116  O   UNK N   1      34.046  16.909  10.164  0.00  0.00    -0.361 OA
HETATM  117  C   UNK N   1      33.488  16.442   9.054  0.00  0.00     0.037 A 
HETATM  118  C   UNK N   1      33.409  15.981   8.373  0.00  0.00     0.012 A 
HETATM  119  C   UNK N   1      35.838  14.269   8.252  0.00  0.00    -0.026 A 
HETATM  120  C   UNK N   1      36.505  14.186   8.731  0.00  0.00     0.012 A 
HETATM  121  C   UNK N   1      36.583  14.647   9.411  0.00  0.00     0.037 A 
HETATM  122  C   UNK N   1      35.996  15.191   9.611  0.00  0.00     0.065 A 
HETATM  123  O   UNK N   1      36.153  15.623  10.322  0.00  0.00    -0.361 OA
HETATM  124  C   UNK N   1      35.329  15.273   9.131  0.00  0.00     0.037 A 
HETATM  125  C   UNK N   1      35.250  14.812   8.452  0.00  0.00     0.012 A 
HETATM  126  C   UNK N   1      37.876  13.497   9.029  0.00  0.00     0.146 A 
HETATM  127  C   UNK N   1      37.282  14.188   9.419  0.00  0.00     0.042 A 
HETATM  128  O   UNK N   1      38.480  13.497   9.563  0.00  0.00    -0.393 OA
HETATM  129  C   UNK N   1      39.206  10.087   5.689  0.00  0.00    -0.026 A 
HETATM  130  C   UNK N   1      38.540  10.170   5.210  0.00  0.00     0.012 A 
HETATM  131  C   UNK N   1      38.461   9.709   4.531  0.00  0.00     0.037 A 
HETATM  132  C   UNK N   1      39.049   9.166   4.331  0.00  0.00     0.072 A 
HETATM  133  O   UNK N   1      38.947   8.709   3.636  0.00  0.00    -0.318 OA
HETATM  134  C   UNK N   1      39.558   8.162   3.450  0.00  0.00     0.298 A 
HETATM  135  O   UNK N   1      40.207   8.111   3.957  0.00  0.00    -0.348 OA
HETATM  136  C   UNK N   1      40.817   7.581   3.794  0.00  0.00     0.179 A 
HETATM  137  C   UNK N   1      41.512   7.484   4.278  0.00  0.00     0.198 A 
HETATM  138  C   UNK N   1      40.779   7.101   3.124  0.00  0.00     0.180 A 
HETATM  139  O   UNK N   1      41.424   6.568   2.988  0.00  0.00    -0.390 OA
HETATM  140  C   UNK N   1      40.130   7.151   2.618  0.00  0.00     0.183 A 
HETATM  141  O   UNK N   1      40.493   6.551   2.144  0.00  0.00    -0.390 OA
HETATM  142  C   UNK N   1      39.519   7.682   2.780  0.00  0.00     0.211 A 
HETATM  143  O   UNK N   1      38.866   7.721   2.257  0.00  0.00    -0.346 OA
HETATM  144  C   UNK N   1      38.856   7.219   1.583  0.00  0.00     0.292 A 
HETATM  145  O   UNK N   1      39.481   6.698   1.445  0.00  0.00    -0.348 OA
HETATM  146  C   UNK N   1      39.469   6.206   0.783  0.00  0.00     0.179 A 
HETATM  147  C   UNK N   1      40.066   5.641   0.561  0.00  0.00     0.198 A 
HETATM  148  C   UNK N   1      38.833   6.235   0.259  0.00  0.00     0.180 A 
HETATM  149  O   UNK N   1      38.730   5.774  -0.442  0.00  0.00    -0.390 OA
HETATM  150  C   UNK N   1      38.208   6.756   0.397  0.00  0.00     0.183 A 
HETATM  151  O   UNK N   1      37.551   6.793  -0.134  0.00  0.00    -0.390 OA
HETATM  152  C   UNK N   1      38.220   7.248   1.059  0.00  0.00     0.204 A 
HETATM  153  O   UNK N   1      37.580   7.781   1.201  0.00  0.00    -0.388 OA
HETATM  154  C   UNK N   1      39.715   9.083   4.809  0.00  0.00     0.037 A 
HETATM  155  C   UNK N   1      39.794   9.544   5.489  0.00  0.00     0.012 A 
HETATM  156  C   UNK N   1      37.404  11.191   5.559  0.00  0.00     0.146 A 
HETATM  157  C   UNK N   1      37.140  10.813   4.825  0.00  0.00     0.042 A 
HETATM  158  O   UNK N   1      37.810  10.600   5.135  0.00  0.00    -0.393 OA
HETATM  159  C   UNK N   1      35.445  11.965   4.853  0.00  0.00    -0.026 A 
HETATM  160  C   UNK N   1      34.778  12.047   4.373  0.00  0.00     0.012 A 
HETATM  161  C   UNK N   1      34.699  11.586   3.694  0.00  0.00     0.037 A 
HETATM  162  C   UNK N   1      35.287  11.043   3.493  0.00  0.00     0.065 A 
HETATM  163  O   UNK N   1      35.353  10.510   2.846  0.00  0.00    -0.361 OA
HETATM  164  C   UNK N   1      35.953  10.961   3.973  0.00  0.00     0.037 A 
HETATM  165  C   UNK N   1      36.032  11.421   4.653  0.00  0.00     0.012 A 
HETATM  166  C   UNK N   1      27.936  15.712   3.184  0.00  0.00    -0.024 A 
HETATM  167  C   UNK N   1      27.276  15.781   2.693  0.00  0.00     0.036 A 
HETATM  168  C   UNK N   1      27.213  15.312   2.017  0.00  0.00     0.067 A 
HETATM  169 Cl   UNK N   1      26.538  15.386   1.518  0.00  0.00    -0.081 Cl
HETATM  170  C   UNK N   1      27.810  14.774   1.831  0.00  0.00     0.087 A 
HETATM  171  O   UNK N   1      27.939  14.218   1.209  0.00  0.00    -0.359 OA
HETATM  172  C   UNK N   1      28.470  14.704   2.321  0.00  0.00     0.039 A 
HETATM  173  C   UNK N   1      28.533  15.173   2.998  0.00  0.00     0.012 A 
HETATM  174  C   UNK N   1      25.547  17.965   4.058  0.00  0.00     0.247 A 
HETATM  175  N   UNK N   1      24.984  17.876   3.442  0.00  0.00    -0.368 N 
HETATM  176  O   UNK N   1      25.044  18.554   4.394  0.00  0.00    -0.271 OA
HETATM  177  H   UNK N   1      30.436  16.370   6.263  0.00  0.00     0.163 HD
HETATM  178  H   UNK N   1      26.950  16.921   3.914  0.00  0.00     0.159 HD
HETATM  179  H   UNK N   1      27.734  17.465   5.328  0.00  0.00     0.159 HD
HETATM  180  H   UNK N   1      27.542  16.736   4.192  0.00  0.00     0.163 HD
HETATM  181  H   UNK N   1      28.759  16.647   5.150  0.00  0.00     0.163 HD
HETATM  182  H   UNK N   1      30.413  14.378   3.606  0.00  0.00     0.163 HD
HETATM  183  H   UNK N   1      32.521  14.770   5.987  0.00  0.00     0.163 HD
HETATM  184  H   UNK N   1      34.175  12.501   4.442  0.00  0.00     0.163 HD
HETATM  185  H   UNK N   1      36.284  12.893   6.823  0.00  0.00     0.163 HD
HETATM  186  H   UNK N   1      37.937  10.624   5.279  0.00  0.00     0.163 HD
HETATM  187  H   UNK N   1      40.653   9.817   6.610  0.00  0.00     0.163 HD
HETATM  188  H   UNK N   1      41.571  11.207   9.259  0.00  0.00     0.163 HD
HETATM  189  H   UNK N   1      39.028  13.024   9.420  0.00  0.00     0.163 HD
HETATM  190  H   UNK N   1      36.919  12.632   7.039  0.00  0.00     0.163 HD
HETATM  191  H   UNK N   1      35.266  14.902   8.584  0.00  0.00     0.163 HD
HETATM  192  H   UNK N   1      33.158  14.509   6.203  0.00  0.00     0.163 HD
HETATM  193  H   UNK N   1      31.504  16.778   7.747  0.00  0.00     0.163 HD
HETATM  194  H   UNK N   1      29.395  16.387   5.366  0.00  0.00     0.163 HD
HETATM  195  H   UNK N   1      27.742  18.655   6.910  0.00  0.00     0.163 HD
HETATM  196  H   UNK N   1      27.639  20.032   8.642  0.00  0.00     0.217 HD
HETATM  197  H   UNK N   1      30.696  17.132   7.502  0.00  0.00     0.210 HD
HETATM  198  H   UNK N   1      33.277  17.443  10.193  0.00  0.00     0.217 HD
HETATM  199  H   UNK N   1      35.539  16.262  10.626  0.00  0.00     0.217 HD
HETATM  200  H   UNK N   1      38.451  14.094  10.327  0.00  0.00     0.210 HD
HETATM  201  H   UNK N   1      42.168   6.540   3.609  0.00  0.00     0.210 HD
HETATM  202  H   UNK N   1      41.349   6.179   2.407  0.00  0.00     0.210 HD
HETATM  203  H   UNK N   1      39.406   5.128  -0.700  0.00  0.00     0.210 HD
HETATM  204  H   UNK N   1      37.527   6.219  -0.916  0.00  0.00     0.210 HD
HETATM  205  H   UNK N   1      36.832   7.815   0.584  0.00  0.00     0.210 HD
HETATM  206  H   UNK N   1      38.664  10.273   5.456  0.00  0.00     0.210 HD
HETATM  207  H   UNK N   1      36.102   9.954   2.772  0.00  0.00     0.217 HD
HETATM  208  H   UNK N   1      28.717  13.695   1.203  0.00  0.00     0.217 HD
HETATM  209  H   UNK N   1      25.142  17.225   2.720  0.00  0.00     0.159 HD
HETATM  210  H   UNK N   1      24.164  18.422   3.441  0.00  0.00     0.159 HD
ENDROOT
BRANCH  61 211
HETATM  211  N   UNK N   1      43.547   9.416   8.634  0.00  0.00    -0.430 N 
HETATM  212  H   UNK N   1      43.560   8.713   9.373  0.00  0.00     0.149 HD
HETATM  213  H   UNK N   1      44.407   9.901   8.377  0.00  0.00     0.149 HD
ENDBRANCH  61 211
BRANCH 137 214
HETATM  214  O   UNK N   1      42.249   7.163   4.504  0.00  0.00    -0.398 OA
HETATM  215  H   UNK N   1      42.346   6.730   5.367  0.00  0.00     0.209 HD
ENDBRANCH 137 214
BRANCH 147 216
HETATM  216  O   UNK N   1      40.320   5.061   0.019  0.00  0.00    -0.398 OA
HETATM  217  H   UNK N   1      41.267   4.894  -0.102  0.00  0.00     0.209 HD
ENDBRANCH 147 216
BRANCH  94 218
HETATM  218  C   UNK N   1      30.730  18.138   8.864  0.00  0.00     0.111 C 
BRANCH 218 219
HETATM  219  N   UNK N   1      30.940  18.688   9.452  0.00  0.00    -0.430 N 
HETATM  220  H   UNK N   1      31.871  19.106   9.450  0.00  0.00     0.149 HD
HETATM  221  H   UNK N   1      30.268  18.942  10.175  0.00  0.00     0.149 HD
ENDBRANCH 218 219
ENDBRANCH  94 218
TORSDOF 13
ENDMDL
MODEL 6
REMARK VINA RESULT:     -26.1      3.184     10.488
REMARK  13 active torsions:
REMARK  status: ('A' for Active; 'I' for Inactive)
REMARK    1  A    between atoms: C_20  and  C_103 
REMARK    2  A    between atoms: C_61  and  N_62 
REMARK    3  A    between atoms: C_68  and  C_73 
REMARK    4  A    between atoms: C_95  and  C_96 
REMARK    5  A    between atoms: C_96  and  N_97 
REMARK    6  A    between atoms: C_105  and  C_111 
REMARK    7  A    between atoms: C_115  and  C_121 
REMARK    8  A    between atoms: C_122  and  C_128 
REMARK    9  A    between atoms: C_132  and  C_160 
REMARK   10  A    between atoms: C_140  and  O_141 
REMARK   11  A    between atoms: C_151  and  O_152 
REMARK   12  A    between atoms: C_164  and  C_170 
REMARK   13  A    between atoms: C_171  and  C_178 
ROOT
HETATM    1  C   UNK N   1      30.266  16.142   6.374  0.00  0.00     0.010 A 
HETATM    2  C   UNK N   1      29.534  16.177   6.381  0.00  0.00    -0.019 A 
HETATM    3  C   UNK N   1      29.624  15.581   5.793  0.00  0.00     0.010 A 
HETATM    4  C   UNK N   1      29.200  16.819   7.006  0.00  0.00     0.031 A 
HETATM    5  C   UNK N   1      30.000  16.946   7.162  0.00  0.00    -0.026 A 
HETATM    6  C   UNK N   1      30.871  16.716   6.966  0.00  0.00    -0.004 A 
HETATM    7  C   UNK N   1      31.461  16.230   6.506  0.00  0.00     0.005 A 
HETATM    8  C   UNK N   1      31.018  15.640   5.904  0.00  0.00     0.074 A 
HETATM    9  C   UNK N   1      30.362  15.197   5.440  0.00  0.00     0.241 A 
HETATM   10  O   UNK N   1      29.598  14.979   5.194  0.00  0.00    -0.269 OA
HETATM   11  N   UNK N   1      30.434  15.744   5.985  0.00  0.00    -0.344 N 
HETATM   12  C   UNK N   1      30.969  16.234   6.491  0.00  0.00     0.185 A 
HETATM   13  C   UNK N   1      31.593  15.816   6.100  0.00  0.00     0.137 A 
HETATM   14  C   UNK N   1      32.351  16.103   6.414  0.00  0.00     0.217 A 
HETATM   15  N   UNK N   1      32.655  16.594   6.913  0.00  0.00    -0.370 N 
HETATM   16  O   UNK N   1      32.642  15.494   5.821  0.00  0.00    -0.274 OA
HETATM   17  C   UNK N   1      31.680  16.706   6.987  0.00  0.00     0.241 A 
HETATM   18  O   UNK N   1      31.939  17.280   7.567  0.00  0.00    -0.271 OA
HETATM   19  N   UNK N   1      32.411  17.016   7.323  0.00  0.00    -0.343 N 
HETATM   20  C   UNK N   1      33.007  17.423   7.749  0.00  0.00     0.215 A 
HETATM   21  C   UNK N   1      33.825  17.340   7.698  0.00  0.00     0.255 A 
HETATM   22  O   UNK N   1      33.987  16.763   7.131  0.00  0.00    -0.302 OA
HETATM   23  C   UNK N   1      33.269  16.490   6.833  0.00  0.00     0.287 A 
HETATM   24  O   UNK N   1      33.381  17.020   7.363  0.00  0.00    -0.262 OA
HETATM   25  C   UNK N   1      32.944  15.898   6.233  0.00  0.00     0.217 A 
HETATM   26  N   UNK N   1      32.136  15.798   6.103  0.00  0.00    -0.342 N 
HETATM   27  C   UNK N   1      31.872  15.248   5.547  0.00  0.00     0.241 A 
HETATM   28  O   UNK N   1      32.300  14.706   5.025  0.00  0.00    -0.271 OA
HETATM   29  C   UNK N   1      31.063  15.148   5.417  0.00  0.00     0.172 A 
HETATM   30  C   UNK N   1      31.504  14.597   4.887  0.00  0.00     0.042 A 
HETATM   31  N   UNK N   1      30.800  14.598   4.861  0.00  0.00    -0.346 N 
HETATM   32  C   UNK N   1      29.992  14.498   4.731  0.00  0.00     0.241 A 
HETATM   33  O   UNK N   1      29.141  14.464   4.666  0.00  0.00    -0.271 OA
HETATM   34  C   UNK N   1      29.729  13.948   4.175  0.00  0.00     0.177 A 
HETATM   35  C   UNK N   1      30.374  13.516   3.772  0.00  0.00     0.038 A 
HETATM   36  C   UNK N   1      31.107  13.178   3.463  0.00  0.00    -0.020 A 
HETATM   37  C   UNK N   1      31.916  13.321   3.636  0.00  0.00     0.009 A 
HETATM   38  C   UNK N   1      31.421  12.614   2.916  0.00  0.00     0.009 A 
HETATM   39  N   UNK N   1      28.920  13.848   4.046  0.00  0.00    -0.346 N 
HETATM   40  C   UNK N   1      28.656  13.298   3.490  0.00  0.00     0.236 A 
HETATM   41  O   UNK N   1      29.100  12.783   2.996  0.00  0.00    -0.272 OA
HETATM   42  C   UNK N   1      27.848  13.198   3.360  0.00  0.00     0.225 A 
HETATM   43  N   UNK N   1      27.585  12.648   2.804  0.00  0.00    -0.350 N 
HETATM   44  C   UNK N   1      26.776  12.548   2.674  0.00  0.00     0.245 A 
HETATM   45  O   UNK N   1      26.032  12.818   2.914  0.00  0.00    -0.271 OA
HETATM   46  C   UNK N   1      26.512  11.998   2.118  0.00  0.00     0.210 A 
HETATM   47  N   UNK N   1      25.704  11.898   1.988  0.00  0.00    -0.342 N 
HETATM   48  C   UNK N   1      25.440  11.348   1.433  0.00  0.00     0.243 A 
HETATM   49  O   UNK N   1      26.051  10.982   1.092  0.00  0.00    -0.271 OA
HETATM   50  C   UNK N   1      24.632  11.248   1.303  0.00  0.00     0.205 A 
HETATM   51  N   UNK N   1      24.369  10.698   0.747  0.00  0.00    -0.343 N 
HETATM   52  C   UNK N   1      23.561  10.598   0.617  0.00  0.00     0.245 A 
HETATM   53  O   UNK N   1      23.364  11.164   1.172  0.00  0.00    -0.271 OA
HETATM   54  C   UNK N   1      23.296  10.048   0.061  0.00  0.00     0.210 A 
HETATM   55  N   UNK N   1      22.488   9.948  -0.069  0.00  0.00    -0.342 N 
HETATM   56  C   UNK N   1      21.943  10.397   0.357  0.00  0.00     0.241 A 
HETATM   57  O   UNK N   1      22.405  10.860   0.833  0.00  0.00    -0.271 OA
HETATM   58  C   UNK N   1      21.134  10.297   0.227  0.00  0.00     0.176 A 
HETATM   59  C   UNK N   1      20.707   9.782  -0.301  0.00  0.00     0.036 A 
HETATM   60  C   UNK N   1      20.145   9.353  -0.748  0.00  0.00     0.021 A 
HETATM   61  C   UNK N   1      19.482   9.008  -1.115  0.00  0.00     0.111 A 
HETATM   62  N   UNK N   1      20.590  10.747   0.653  0.00  0.00    -0.346 N 
HETATM   63  C   UNK N   1      20.853  11.297   1.209  0.00  0.00     0.241 A 
HETATM   64  O   UNK N   1      20.018  11.443   1.322  0.00  0.00    -0.271 OA
HETATM   65  C   UNK N   1      21.661  11.397   1.339  0.00  0.00     0.180 A 
HETATM   66  C   UNK N   1      21.072  11.854   1.770  0.00  0.00     0.073 A 
HETATM   67  C   UNK N   1      21.379  12.396   2.320  0.00  0.00    -0.056 A 
HETATM   68  C   UNK N   1      20.835  12.846   2.746  0.00  0.00     0.007 A 
HETATM   69  C   UNK N   1      21.098  13.396   3.301  0.00  0.00     0.001 A 
HETATM   70  C   UNK N   1      21.907  13.496   3.431  0.00  0.00     0.000 A 
HETATM   71  C   UNK N   1      22.474  13.294   3.252  0.00  0.00     0.001 A 
HETATM   72  C   UNK N   1      22.188  12.496   2.449  0.00  0.00     0.007 A 
HETATM   73  N   UNK N   1      21.925  11.947   1.894  0.00  0.00    -0.346 N 
HETATM   74  C   UNK N   1      22.733  12.047   2.024  0.00  0.00     0.243 A 
HETATM   75  O   UNK N   1      23.543  11.880   1.889  0.00  0.00    -0.271 OA
HETATM   76  C   UNK N   1      22.997  12.597   2.580  0.00  0.00     0.205 A 
HETATM   77  N   UNK N   1      23.806  12.697   2.710  0.00  0.00    -0.343 N 
HETATM   78  C   UNK N   1      24.069  13.247   3.266  0.00  0.00     0.245 A 
HETATM   79  O   UNK N   1      23.313  13.142   3.133  0.00  0.00    -0.271 OA
HETATM   80  C   UNK N   1      24.877  13.347   3.396  0.00  0.00     0.210 A 
HETATM   81  N   UNK N   1      25.140  13.897   3.951  0.00  0.00    -0.342 N 
HETATM   82  C   UNK N   1      25.949  13.997   4.081  0.00  0.00     0.246 A 
HETATM   83  O   UNK N   1      26.701  13.731   3.846  0.00  0.00    -0.271 OA
HETATM   84  C   UNK N   1      26.213  14.547   4.637  0.00  0.00     0.210 A 
HETATM   85  N   UNK N   1      27.021  14.647   4.767  0.00  0.00    -0.342 N 
HETATM   86  C   UNK N   1      27.284  15.197   5.323  0.00  0.00     0.243 A 
HETATM   87  O   UNK N   1      26.704  15.599   5.700  0.00  0.00    -0.271 OA
HETATM   88  C   UNK N   1      28.093  15.297   5.453  0.00  0.00     0.205 A 
HETATM   89  N   UNK N   1      28.357  15.847   6.009  0.00  0.00    -0.344 N 
HETATM   90  C   UNK N   1      29.165  15.947   6.139  0.00  0.00     0.241 A 
HETATM   91  O   UNK N   1      28.866  15.388   5.572  0.00  0.00    -0.271 OA
HETATM   92  C   UNK N   1      29.428  16.497   6.694  0.00  0.00     0.176 A 
HETATM   93  C   UNK N   1      28.553  16.800   6.962  0.00  0.00     0.036 A 
HETATM   94  C   UNK N   1      27.989  17.278   7.415  0.00  0.00     0.021 A 
HETATM   95  N   UNK N   1      30.237  16.597   6.824  0.00  0.00    -0.346 N 
HETATM   96  C   UNK N   1      30.500  17.147   7.380  0.00  0.00     0.245 A 
HETATM   97  O   UNK N   1      29.575  17.313   7.510  0.00  0.00    -0.271 OA
HETATM   98  C   UNK N   1      31.308  17.247   7.510  0.00  0.00     0.210 A 
HETATM   99  N   UNK N   1      31.573  17.797   8.066  0.00  0.00    -0.342 N 
HETATM  100  C   UNK N   1      32.381  17.897   8.196  0.00  0.00     0.244 A 
HETATM  101  O   UNK N   1      32.624  18.471   8.775  0.00  0.00    -0.271 OA
HETATM  102  C   UNK N   1      30.764  17.697   7.936  0.00  0.00    -0.026 A 
HETATM  103  C   UNK N   1      29.956  17.597   7.806  0.00  0.00     0.012 A 
HETATM  104  C   UNK N   1      29.410  18.047   8.232  0.00  0.00     0.037 A 
HETATM  105  C   UNK N   1      29.674  18.596   8.788  0.00  0.00     0.065 A 
HETATM  106  O   UNK N   1      29.264  19.125   9.297  0.00  0.00    -0.361 OA
HETATM  107  C   UNK N   1      30.482  18.697   8.918  0.00  0.00     0.037 A 
HETATM  108  C   UNK N   1      31.027  18.247   8.492  0.00  0.00     0.012 A 
HETATM  109  C   UNK N   1      27.557  15.845   5.976  0.00  0.00     0.146 A 
HETATM  110  C   UNK N   1      26.867  16.231   6.333  0.00  0.00     0.042 A 
HETATM  111  O   UNK N   1      27.587  16.447   6.575  0.00  0.00    -0.393 OA
HETATM  112  C   UNK N   1      25.668  14.997   5.063  0.00  0.00    -0.026 A 
HETATM  113  C   UNK N   1      24.859  14.896   4.933  0.00  0.00     0.012 A 
HETATM  114  C   UNK N   1      24.314  15.346   5.359  0.00  0.00     0.037 A 
HETATM  115  C   UNK N   1      24.577  15.896   5.914  0.00  0.00     0.065 A 
HETATM  116  O   UNK N   1      24.197  16.438   6.437  0.00  0.00    -0.361 OA
HETATM  117  C   UNK N   1      25.385  15.996   6.044  0.00  0.00     0.037 A 
HETATM  118  C   UNK N   1      25.931  15.546   5.618  0.00  0.00     0.012 A 
HETATM  119  C   UNK N   1      24.332  13.797   3.822  0.00  0.00    -0.026 A 
HETATM  120  C   UNK N   1      23.523  13.696   3.691  0.00  0.00     0.012 A 
HETATM  121  C   UNK N   1      22.978  14.146   4.117  0.00  0.00     0.037 A 
HETATM  122  C   UNK N   1      23.242  14.696   4.673  0.00  0.00     0.065 A 
HETATM  123  O   UNK N   1      22.620  15.116   5.066  0.00  0.00    -0.361 OA
HETATM  124  C   UNK N   1      24.051  14.796   4.803  0.00  0.00     0.037 A 
HETATM  125  C   UNK N   1      24.596  14.347   4.377  0.00  0.00     0.012 A 
HETATM  126  C   UNK N   1      22.356  12.980   2.936  0.00  0.00     0.146 A 
HETATM  127  C   UNK N   1      22.487  13.675   3.631  0.00  0.00     0.042 A 
HETATM  128  O   UNK N   1      21.551  12.964   2.889  0.00  0.00    -0.393 OA
HETATM  129  C   UNK N   1      23.842   9.598  -0.365  0.00  0.00    -0.026 A 
HETATM  130  C   UNK N   1      24.650   9.698  -0.235  0.00  0.00     0.012 A 
HETATM  131  C   UNK N   1      25.195   9.249  -0.660  0.00  0.00     0.037 A 
HETATM  132  C   UNK N   1      24.932   8.699  -1.216  0.00  0.00     0.072 A 
HETATM  133  O   UNK N   1      25.503   8.254  -1.636  0.00  0.00    -0.318 OA
HETATM  134  C   UNK N   1      25.213   7.699  -2.198  0.00  0.00     0.298 A 
HETATM  135  O   UNK N   1      24.397   7.631  -2.297  0.00  0.00    -0.348 OA
HETATM  136  C   UNK N   1      24.091   7.093  -2.841  0.00  0.00     0.179 A 
HETATM  137  C   UNK N   1      23.259   6.978  -2.988  0.00  0.00     0.198 A 
HETATM  138  C   UNK N   1      24.601   6.623  -3.289  0.00  0.00     0.180 A 
HETATM  139  O   UNK N   1      24.251   6.082  -3.839  0.00  0.00    -0.390 OA
HETATM  140  C   UNK N   1      25.417   6.691  -3.190  0.00  0.00     0.183 A 
HETATM  141  O   UNK N   1      25.506   6.092  -3.782  0.00  0.00    -0.390 OA
HETATM  142  C   UNK N   1      25.723   7.229  -2.645  0.00  0.00     0.211 A 
HETATM  143  O   UNK N   1      26.555   7.287  -2.556  0.00  0.00    -0.346 OA
HETATM  144  C   UNK N   1      27.047   6.795  -3.026  0.00  0.00     0.292 A 
HETATM  145  O   UNK N   1      26.713   6.266  -3.563  0.00  0.00    -0.348 OA
HETATM  146  C   UNK N   1      27.199   5.784  -4.024  0.00  0.00     0.179 A 
HETATM  147  C   UNK N   1      26.945   5.212  -4.601  0.00  0.00     0.198 A 
HETATM  148  C   UNK N   1      28.019   5.830  -3.947  0.00  0.00     0.180 A 
HETATM  149  O   UNK N   1      28.596   5.381  -4.370  0.00  0.00    -0.390 OA
HETATM  150  C   UNK N   1      28.353   6.360  -3.408  0.00  0.00     0.183 A 
HETATM  151  O   UNK N   1      29.192   6.415  -3.322  0.00  0.00    -0.390 OA
HETATM  152  C   UNK N   1      27.867   6.842  -2.949  0.00  0.00     0.204 A 
HETATM  153  O   UNK N   1      28.209   7.384  -2.398  0.00  0.00    -0.388 OA
HETATM  154  C   UNK N   1      24.123   8.598  -1.347  0.00  0.00     0.037 A 
HETATM  155  C   UNK N   1      23.579   9.048  -0.921  0.00  0.00     0.012 A 
HETATM  156  C   UNK N   1      25.188  10.733   0.812  0.00  0.00     0.146 A 
HETATM  157  C   UNK N   1      25.900  10.369   0.479  0.00  0.00     0.042 A 
HETATM  158  O   UNK N   1      25.211  10.141   0.226  0.00  0.00    -0.393 OA
HETATM  159  C   UNK N   1      27.057  11.548   1.692  0.00  0.00    -0.026 A 
HETATM  160  C   UNK N   1      27.866  11.648   1.822  0.00  0.00     0.012 A 
HETATM  161  C   UNK N   1      28.411  11.199   1.397  0.00  0.00     0.037 A 
HETATM  162  C   UNK N   1      28.148  10.649   0.841  0.00  0.00     0.065 A 
HETATM  163  O   UNK N   1      28.569  10.124   0.336  0.00  0.00    -0.361 OA
HETATM  164  C   UNK N   1      27.339  10.549   0.711  0.00  0.00     0.037 A 
HETATM  165  C   UNK N   1      26.794  10.998   1.137  0.00  0.00     0.012 A 
HETATM  166  C   UNK N   1      33.475  15.441   5.799  0.00  0.00    -0.024 A 
HETATM  167  C   UNK N   1      34.287  15.528   5.916  0.00  0.00     0.036 A 
HETATM  168  C   UNK N   1      34.819  15.070   5.482  0.00  0.00     0.067 A 
HETATM  169 Cl   UNK N   1      35.648  15.162   5.605  0.00  0.00    -0.081 Cl
HETATM  170  C   UNK N   1      34.539  14.525   4.930  0.00  0.00     0.087 A 
HETATM  171  O   UNK N   1      34.898  13.975   4.398  0.00  0.00    -0.359 OA
HETATM  172  C   UNK N   1      33.727  14.437   4.812  0.00  0.00     0.039 A 
HETATM  173  C   UNK N   1      33.195  14.895   5.247  0.00  0.00     0.012 A 
HETATM  174  C   UNK N   1      34.503  17.720   8.100  0.00  0.00     0.247 A 
HETATM  175  N   UNK N   1      35.339  17.649   8.061  0.00  0.00    -0.368 N 
HETATM  176  O   UNK N   1      34.610  18.313   8.693  0.00  0.00    -0.271 OA
HETATM  177  H   UNK N   1      29.518  16.014   6.218  0.00  0.00     0.163 HD
HETATM  178  H   UNK N   1      33.633  16.656   7.011  0.00  0.00     0.159 HD
HETATM  179  H   UNK N   1      32.069  17.167   7.459  0.00  0.00     0.159 HD
HETATM  180  H   UNK N   1      33.022  16.457   6.790  0.00  0.00     0.163 HD
HETATM  181  H   UNK N   1      31.485  16.334   6.611  0.00  0.00     0.163 HD
HETATM  182  H   UNK N   1      31.450  14.061   4.353  0.00  0.00     0.163 HD
HETATM  183  H   UNK N   1      28.269  14.385   4.554  0.00  0.00     0.163 HD
HETATM  184  H   UNK N   1      28.235  12.111   2.296  0.00  0.00     0.163 HD
HETATM  185  H   UNK N   1      25.054  12.434   2.496  0.00  0.00     0.163 HD
HETATM  186  H   UNK N   1      25.019  10.161   0.239  0.00  0.00     0.163 HD
HETATM  187  H   UNK N   1      22.174   9.291  -0.732  0.00  0.00     0.163 HD
HETATM  188  H   UNK N   1      19.625  10.627   0.497  0.00  0.00     0.163 HD
HETATM  189  H   UNK N   1      21.275  12.483   2.402  0.00  0.00     0.163 HD
HETATM  190  H   UNK N   1      24.456  12.160   2.202  0.00  0.00     0.163 HD
HETATM  191  H   UNK N   1      24.490  14.434   4.460  0.00  0.00     0.163 HD
HETATM  192  H   UNK N   1      27.671  14.110   4.259  0.00  0.00     0.163 HD
HETATM  193  H   UNK N   1      27.706  16.384   6.517  0.00  0.00     0.163 HD
HETATM  194  H   UNK N   1      30.888  16.061   6.317  0.00  0.00     0.163 HD
HETATM  195  H   UNK N   1      30.922  18.333   8.574  0.00  0.00     0.163 HD
HETATM  196  H   UNK N   1      29.744  19.687   9.873  0.00  0.00     0.217 HD
HETATM  197  H   UNK N   1      28.444  16.754   6.912  0.00  0.00     0.210 HD
HETATM  198  H   UNK N   1      24.711  16.984   7.000  0.00  0.00     0.217 HD
HETATM  199  H   UNK N   1      22.826  15.760   5.713  0.00  0.00     0.217 HD
HETATM  200  H   UNK N   1      21.020  13.549   3.450  0.00  0.00     0.210 HD
HETATM  201  H   UNK N   1      23.286   6.033  -3.924  0.00  0.00     0.210 HD
HETATM  202  H   UNK N   1      24.722   5.703  -4.198  0.00  0.00     0.210 HD
HETATM  203  H   UNK N   1      28.313   4.728  -5.029  0.00  0.00     0.210 HD
HETATM  204  H   UNK N   1      29.773   5.852  -3.859  0.00  0.00     0.210 HD
HETATM  205  H   UNK N   1      29.174   7.438  -2.307  0.00  0.00     0.210 HD
HETATM  206  H   UNK N   1      24.386   9.795  -0.148  0.00  0.00     0.210 HD
HETATM  207  H   UNK N   1      28.102   9.557  -0.244  0.00  0.00     0.217 HD
HETATM  208  H   UNK N   1      34.362  13.440   3.847  0.00  0.00     0.217 HD
HETATM  209  H   UNK N   1      35.750  17.006   7.439  0.00  0.00     0.159 HD
HETATM  210  H   UNK N   1      35.909  18.208   8.638  0.00  0.00     0.159 HD
ENDROOT
BRANCH  61 211
HETATM  211  N   UNK N   1      18.703   8.814  -1.338  0.00  0.00    -0.430 N 
HETATM  212  H   UNK N   1      17.942   9.465  -1.150  0.00  0.00     0.149 HD
HETATM  213  H   UNK N   1      18.511   7.924  -1.798  0.00  0.00     0.149 HD
ENDBRANCH  61 211
BRANCH 137 214
HETATM  214  O   UNK N   1      22.584   6.642  -3.347  0.00  0.00    -0.398 OA
HETATM  215  H   UNK N   1      21.951   6.138  -2.813  0.00  0.00     0.209 HD
ENDBRANCH 137 214
BRANCH 147 216
HETATM  216  O   UNK N   1      27.159   4.636  -5.165  0.00  0.00    -0.398 OA
HETATM  217  H   UNK N   1      26.747   3.759  -5.142  0.00  0.00     0.209 HD
ENDBRANCH 147 216
BRANCH  94 218
HETATM  218  C   UNK N   1      27.438  17.739   7.852  0.00  0.00     0.111 C 
BRANCH 218 219
HETATM  219  N   UNK N   1      26.880  18.293   8.127  0.00  0.00    -0.430 N 
HETATM  220  H   UNK N   1      26.158  18.645   7.499  0.00  0.00     0.149 HD
HETATM  221  H   UNK N   1      26.919  18.620   9.093  0.00  0.00     0.149 HD
ENDBRANCH 218 219
ENDBRANCH  94 218
TORSDOF 13
ENDMDL
MODEL 7
REMARK VINA RESULT:     -25.6      5.003      9.244
REMARK  13 active torsions:
REMARK  status: ('A' for Active; 'I' for Inactive)
REMARK    1  A    between atoms: C_20  and  C_103 
REMARK    2  A    between atoms: C_61  and  N_62 
REMARK    3  A    between atoms: C_68  and  C_73 
REMARK    4  A    between atoms: C_95  and  C_96 
REMARK    5  A    between atoms: C_96  and  N_97 
REMARK    6  A    between atoms: C_105  and  C_111 
REMARK    7  A    between atoms: C_115  and  C_121 
REMARK    8  A    between atoms: C_122  and  C_128 
REMARK    9  A    between atoms: C_132  and  C_160 
REMARK   10  A    between atoms: C_140  and  O_141 
REMARK   11  A    between atoms: C_151  and  O_152 
REMARK   12  A    between atoms: C_164  and  C_170 
REMARK   13  A    between atoms: C_171  and  C_178 
ROOT
HETATM    1  C   UNK N   1      29.903  15.612   5.492  0.00  0.00     0.010 A 
HETATM    2  C   UNK N   1      29.551  15.178   5.018  0.00  0.00    -0.019 A 
HETATM    3  C   UNK N   1      30.333  15.071   4.727  0.00  0.00     0.010 A 
HETATM    4  C   UNK N   1      28.607  15.151   5.171  0.00  0.00     0.031 A 
HETATM    5  C   UNK N   1      28.786  15.669   5.787  0.00  0.00    -0.026 A 
HETATM    6  C   UNK N   1      29.441  16.134   6.240  0.00  0.00    -0.004 A 
HETATM    7  C   UNK N   1      30.296  16.359   6.352  0.00  0.00     0.005 A 
HETATM    8  C   UNK N   1      30.847  15.930   5.704  0.00  0.00     0.074 A 
HETATM    9  C   UNK N   1      31.124  15.413   4.999  0.00  0.00     0.241 A 
HETATM   10  O   UNK N   1      31.075  14.890   4.353  0.00  0.00    -0.269 OA
HETATM   11  N   UNK N   1      30.471  15.605   5.371  0.00  0.00    -0.344 N 
HETATM   12  C   UNK N   1      30.084  16.062   6.022  0.00  0.00     0.185 A 
HETATM   13  C   UNK N   1      30.869  16.326   6.196  0.00  0.00     0.137 A 
HETATM   14  C   UNK N   1      30.830  16.863   6.879  0.00  0.00     0.217 A 
HETATM   15  N   UNK N   1      30.345  17.181   7.375  0.00  0.00    -0.370 N 
HETATM   16  O   UNK N   1      31.713  16.874   6.716  0.00  0.00    -0.274 OA
HETATM   17  C   UNK N   1      29.793  16.621   6.781  0.00  0.00     0.241 A 
HETATM   18  O   UNK N   1      29.185  16.934   7.296  0.00  0.00    -0.271 OA
HETATM   19  N   UNK N   1      29.714  17.148   7.459  0.00  0.00    -0.343 N 
HETATM   20  C   UNK N   1      29.456  17.620   8.102  0.00  0.00     0.215 A 
HETATM   21  C   UNK N   1      29.905  18.092   8.606  0.00  0.00     0.255 A 
HETATM   22  O   UNK N   1      30.695  18.034   8.376  0.00  0.00    -0.302 OA
HETATM   23  C   UNK N   1      30.734  17.525   7.728  0.00  0.00     0.287 A 
HETATM   24  O   UNK N   1      30.118  17.737   8.117  0.00  0.00    -0.262 OA
HETATM   25  C   UNK N   1      31.336  17.166   7.158  0.00  0.00     0.217 A 
HETATM   26  N   UNK N   1      31.121  16.650   6.553  0.00  0.00    -0.342 N 
HETATM   27  C   UNK N   1      31.697  16.341   6.050  0.00  0.00     0.241 A 
HETATM   28  O   UNK N   1      32.555  16.453   6.019  0.00  0.00    -0.271 OA
HETATM   29  C   UNK N   1      31.481  15.824   5.444  0.00  0.00     0.172 A 
HETATM   30  C   UNK N   1      32.355  15.941   5.417  0.00  0.00     0.042 A 
HETATM   31  N   UNK N   1      32.058  15.515   4.941  0.00  0.00    -0.346 N 
HETATM   32  C   UNK N   1      31.842  14.998   4.335  0.00  0.00     0.241 A 
HETATM   33  O   UNK N   1      31.526  14.474   3.740  0.00  0.00    -0.271 OA
HETATM   34  C   UNK N   1      32.419  14.689   3.832  0.00  0.00     0.177 A 
HETATM   35  C   UNK N   1      33.230  14.963   4.014  0.00  0.00     0.038 A 
HETATM   36  C   UNK N   1      33.962  15.314   4.309  0.00  0.00    -0.020 A 
HETATM   37  C   UNK N   1      34.125  15.843   4.941  0.00  0.00     0.009 A 
HETATM   38  C   UNK N   1      34.798  15.351   4.189  0.00  0.00     0.009 A 
HETATM   39  N   UNK N   1      32.203  14.172   3.226  0.00  0.00    -0.346 N 
HETATM   40  C   UNK N   1      32.779  13.863   2.723  0.00  0.00     0.236 A 
HETATM   41  O   UNK N   1      33.609  13.992   2.719  0.00  0.00    -0.272 OA
HETATM   42  C   UNK N   1      32.564  13.347   2.117  0.00  0.00     0.225 A 
HETATM   43  N   UNK N   1      33.140  13.038   1.614  0.00  0.00    -0.350 N 
HETATM   44  C   UNK N   1      32.924  12.521   1.008  0.00  0.00     0.245 A 
HETATM   45  O   UNK N   1      32.274  12.144   0.665  0.00  0.00    -0.271 OA
HETATM   46  C   UNK N   1      33.501  12.212   0.505  0.00  0.00     0.210 A 
HETATM   47  N   UNK N   1      33.285  11.695  -0.100  0.00  0.00    -0.342 N 
HETATM   48  C   UNK N   1      33.861  11.386  -0.604  0.00  0.00     0.243 A 
HETATM   49  O   UNK N   1      34.576  11.656  -0.407  0.00  0.00    -0.271 OA
HETATM   50  C   UNK N   1      33.646  10.869  -1.209  0.00  0.00     0.205 A 
HETATM   51  N   UNK N   1      34.222  10.560  -1.712  0.00  0.00    -0.343 N 
HETATM   52  C   UNK N   1      34.007  10.044  -2.318  0.00  0.00     0.245 A 
HETATM   53  O   UNK N   1      33.216  10.079  -2.116  0.00  0.00    -0.271 OA
HETATM   54  C   UNK N   1      34.583   9.734  -2.821  0.00  0.00     0.210 A 
HETATM   55  N   UNK N   1      34.367   9.218  -3.427  0.00  0.00    -0.342 N 
HETATM   56  C   UNK N   1      33.576   9.010  -3.530  0.00  0.00     0.241 A 
HETATM   57  O   UNK N   1      33.193   9.415  -2.945  0.00  0.00    -0.271 OA
HETATM   58  C   UNK N   1      33.360   8.493  -4.136  0.00  0.00     0.176 A 
HETATM   59  C   UNK N   1      33.824   8.094  -4.730  0.00  0.00     0.036 A 
HETATM   60  C   UNK N   1      34.123   7.637  -5.363  0.00  0.00     0.021 A 
HETATM   61  C   UNK N   1      34.275   7.142  -6.015  0.00  0.00     0.111 A 
HETATM   62  N   UNK N   1      32.568   8.285  -4.239  0.00  0.00    -0.346 N 
HETATM   63  C   UNK N   1      31.992   8.595  -3.736  0.00  0.00     0.241 A 
HETATM   64  O   UNK N   1      31.457   8.129  -4.214  0.00  0.00    -0.271 OA
HETATM   65  C   UNK N   1      32.207   9.111  -3.130  0.00  0.00     0.180 A 
HETATM   66  C   UNK N   1      31.388   8.879  -3.259  0.00  0.00     0.073 A 
HETATM   67  C   UNK N   1      30.840   9.212  -2.730  0.00  0.00    -0.056 A 
HETATM   68  C   UNK N   1      30.048   9.005  -2.833  0.00  0.00     0.007 A 
HETATM   69  C   UNK N   1      29.471   9.314  -2.330  0.00  0.00     0.001 A 
HETATM   70  C   UNK N   1      29.687   9.831  -1.724  0.00  0.00     0.000 A 
HETATM   71  C   UNK N   1      30.179  10.119  -1.460  0.00  0.00     0.001 A 
HETATM   72  C   UNK N   1      31.056   9.729  -2.124  0.00  0.00     0.007 A 
HETATM   73  N   UNK N   1      31.631   9.421  -2.627  0.00  0.00    -0.346 N 
HETATM   74  C   UNK N   1      31.847   9.937  -2.021  0.00  0.00     0.243 A 
HETATM   75  O   UNK N   1      32.397  10.382  -1.572  0.00  0.00    -0.271 OA
HETATM   76  C   UNK N   1      31.270  10.246  -1.518  0.00  0.00     0.205 A 
HETATM   77  N   UNK N   1      31.486  10.763  -0.912  0.00  0.00    -0.343 N 
HETATM   78  C   UNK N   1      30.910  11.072  -0.409  0.00  0.00     0.245 A 
HETATM   79  O   UNK N   1      30.723  10.585  -0.983  0.00  0.00    -0.271 OA
HETATM   80  C   UNK N   1      31.125  11.589   0.197  0.00  0.00     0.210 A 
HETATM   81  N   UNK N   1      30.549  11.898   0.700  0.00  0.00    -0.342 N 
HETATM   82  C   UNK N   1      30.765  12.415   1.306  0.00  0.00     0.246 A 
HETATM   83  O   UNK N   1      31.414  12.797   1.657  0.00  0.00    -0.271 OA
HETATM   84  C   UNK N   1      30.189  12.724   1.809  0.00  0.00     0.210 A 
HETATM   85  N   UNK N   1      30.404  13.240   2.414  0.00  0.00    -0.342 N 
HETATM   86  C   UNK N   1      29.827  13.549   2.917  0.00  0.00     0.243 A 
HETATM   87  O   UNK N   1      29.081  13.307   2.762  0.00  0.00    -0.271 OA
HETATM   88  C   UNK N   1      30.044  14.066   3.523  0.00  0.00     0.205 A 
HETATM   89  N   UNK N   1      29.467  14.375   4.026  0.00  0.00    -0.344 N 
HETATM   90  C   UNK N   1      29.682  14.892   4.632  0.00  0.00     0.241 A 
HETATM   91  O   UNK N   1      30.256  14.559   4.100  0.00  0.00    -0.271 OA
HETATM   92  C   UNK N   1      29.106  15.201   5.135  0.00  0.00     0.176 A 
HETATM   93  C   UNK N   1      28.359  14.754   4.722  0.00  0.00     0.036 A 
HETATM   94  C   UNK N   1      27.523  14.542   4.623  0.00  0.00     0.021 A 
HETATM   95  N   UNK N   1      29.322  15.718   5.741  0.00  0.00    -0.346 N 
HETATM   96  C   UNK N   1      28.746  16.027   6.244  0.00  0.00     0.245 A 
HETATM   97  O   UNK N   1      28.148  15.512   5.716  0.00  0.00    -0.271 OA
HETATM   98  C   UNK N   1      28.961  16.543   6.850  0.00  0.00     0.210 A 
HETATM   99  N   UNK N   1      28.385  16.853   7.353  0.00  0.00    -0.342 N 
HETATM  100  C   UNK N   1      28.600  17.370   7.959  0.00  0.00     0.244 A 
HETATM  101  O   UNK N   1      27.986  17.673   8.463  0.00  0.00    -0.271 OA
HETATM  102  C   UNK N   1      28.169  16.336   6.747  0.00  0.00    -0.026 A 
HETATM  103  C   UNK N   1      27.954  15.819   6.142  0.00  0.00     0.012 A 
HETATM  104  C   UNK N   1      27.161  15.611   6.038  0.00  0.00     0.037 A 
HETATM  105  C   UNK N   1      26.586  15.921   6.542  0.00  0.00     0.065 A 
HETATM  106  O   UNK N   1      25.752  15.816   6.577  0.00  0.00    -0.361 OA
HETATM  107  C   UNK N   1      26.801  16.437   7.148  0.00  0.00     0.037 A 
HETATM  108  C   UNK N   1      27.593  16.645   7.250  0.00  0.00     0.012 A 
HETATM  109  C   UNK N   1      29.133  13.890   3.484  0.00  0.00     0.146 A 
HETATM  110  C   UNK N   1      28.359  13.578   3.246  0.00  0.00     0.042 A 
HETATM  111  O   UNK N   1      28.392  14.072   3.860  0.00  0.00    -0.393 OA
HETATM  112  C   UNK N   1      29.397  12.516   1.706  0.00  0.00    -0.026 A 
HETATM  113  C   UNK N   1      29.181  11.999   1.099  0.00  0.00     0.012 A 
HETATM  114  C   UNK N   1      28.390  11.792   0.997  0.00  0.00     0.037 A 
HETATM  115  C   UNK N   1      27.813  12.101   1.500  0.00  0.00     0.065 A 
HETATM  116  O   UNK N   1      26.976  12.017   1.563  0.00  0.00    -0.361 OA
HETATM  117  C   UNK N   1      28.029  12.617   2.105  0.00  0.00     0.037 A 
HETATM  118  C   UNK N   1      28.821  12.825   2.209  0.00  0.00     0.012 A 
HETATM  119  C   UNK N   1      30.334  11.381   0.094  0.00  0.00    -0.026 A 
HETATM  120  C   UNK N   1      30.118  10.864  -0.513  0.00  0.00     0.012 A 
HETATM  121  C   UNK N   1      29.326  10.656  -0.615  0.00  0.00     0.037 A 
HETATM  122  C   UNK N   1      28.750  10.965  -0.112  0.00  0.00     0.065 A 
HETATM  123  O   UNK N   1      27.964  10.703  -0.285  0.00  0.00    -0.361 OA
HETATM  124  C   UNK N   1      28.966  11.482   0.494  0.00  0.00     0.037 A 
HETATM  125  C   UNK N   1      29.757  11.690   0.597  0.00  0.00     0.012 A 
HETATM  126  C   UNK N   1      30.522   9.963  -1.725  0.00  0.00     0.146 A 
HETATM  127  C   UNK N   1      29.708  10.231  -1.226  0.00  0.00     0.042 A 
HETATM  128  O   UNK N   1      30.203   9.471  -2.279  0.00  0.00    -0.393 OA
HETATM  129  C   UNK N   1      35.375   9.942  -2.718  0.00  0.00    -0.026 A 
HETATM  130  C   UNK N   1      35.590  10.459  -2.113  0.00  0.00     0.012 A 
HETATM  131  C   UNK N   1      36.381  10.666  -2.010  0.00  0.00     0.037 A 
HETATM  132  C   UNK N   1      36.958  10.357  -2.513  0.00  0.00     0.072 A 
HETATM  133  O   UNK N   1      37.755  10.582  -2.390  0.00  0.00    -0.318 OA
HETATM  134  C   UNK N   1      38.326  10.256  -2.913  0.00  0.00     0.298 A 
HETATM  135  O   UNK N   1      38.068   9.743  -3.505  0.00  0.00    -0.348 OA
HETATM  136  C   UNK N   1      38.610   9.411  -4.030  0.00  0.00     0.179 A 
HETATM  137  C   UNK N   1      38.404   8.876  -4.661  0.00  0.00     0.198 A 
HETATM  138  C   UNK N   1      39.413   9.592  -3.963  0.00  0.00     0.180 A 
HETATM  139  O   UNK N   1      39.941   9.233  -4.519  0.00  0.00    -0.390 OA
HETATM  140  C   UNK N   1      39.671  10.105  -3.371  0.00  0.00     0.183 A 
HETATM  141  O   UNK N   1      40.458   9.996  -3.664  0.00  0.00    -0.390 OA
HETATM  142  C   UNK N   1      39.128  10.437  -2.846  0.00  0.00     0.211 A 
HETATM  143  O   UNK N   1      39.406  10.956  -2.249  0.00  0.00    -0.346 OA
HETATM  144  C   UNK N   1      40.229  11.120  -2.207  0.00  0.00     0.292 A 
HETATM  145  O   UNK N   1      40.749  10.774  -2.745  0.00  0.00    -0.348 OA
HETATM  146  C   UNK N   1      41.557  10.937  -2.702  0.00  0.00     0.179 A 
HETATM  147  C   UNK N   1      42.164  10.628  -3.212  0.00  0.00     0.198 A 
HETATM  148  C   UNK N   1      41.844  11.446  -2.120  0.00  0.00     0.180 A 
HETATM  149  O   UNK N   1      42.649  11.674  -1.995  0.00  0.00    -0.390 OA
HETATM  150  C   UNK N   1      41.323  11.792  -1.581  0.00  0.00     0.183 A 
HETATM  151  O   UNK N   1      41.609  12.315  -0.981  0.00  0.00    -0.390 OA
HETATM  152  C   UNK N   1      40.516  11.629  -1.625  0.00  0.00     0.204 A 
HETATM  153  O   UNK N   1      39.983  11.984  -1.073  0.00  0.00    -0.388 OA
HETATM  154  C   UNK N   1      36.743   9.840  -3.119  0.00  0.00     0.037 A 
HETATM  155  C   UNK N   1      35.951   9.633  -3.221  0.00  0.00     0.012 A 
HETATM  156  C   UNK N   1      34.524  11.065  -1.138  0.00  0.00     0.146 A 
HETATM  157  C   UNK N   1      35.278  11.398  -0.871  0.00  0.00     0.042 A 
HETATM  158  O   UNK N   1      35.273  10.919  -1.472  0.00  0.00    -0.393 OA
HETATM  159  C   UNK N   1      34.293  12.419   0.608  0.00  0.00    -0.026 A 
HETATM  160  C   UNK N   1      34.509  12.936   1.214  0.00  0.00     0.012 A 
HETATM  161  C   UNK N   1      35.300  13.144   1.317  0.00  0.00     0.037 A 
HETATM  162  C   UNK N   1      35.876  12.835   0.814  0.00  0.00     0.065 A 
HETATM  163  O   UNK N   1      36.709  12.947   0.789  0.00  0.00    -0.361 OA
HETATM  164  C   UNK N   1      35.660  12.318   0.208  0.00  0.00     0.037 A 
HETATM  165  C   UNK N   1      34.869  12.110   0.105  0.00  0.00     0.012 A 
HETATM  166  C   UNK N   1      32.132  17.364   7.248  0.00  0.00    -0.024 A 
HETATM  167  C   UNK N   1      32.365  17.879   7.849  0.00  0.00     0.036 A 
HETATM  168  C   UNK N   1      33.161  18.077   7.937  0.00  0.00     0.067 A 
HETATM  169 Cl   UNK N   1      33.395  18.603   8.552  0.00  0.00    -0.081 Cl
HETATM  170  C   UNK N   1      33.724  17.759   7.426  0.00  0.00     0.087 A 
HETATM  171  O   UNK N   1      34.563  17.826   7.344  0.00  0.00    -0.359 OA
HETATM  172  C   UNK N   1      33.492  17.243   6.825  0.00  0.00     0.039 A 
HETATM  173  C   UNK N   1      32.696  17.046   6.736  0.00  0.00     0.012 A 
HETATM  174  C   UNK N   1      29.716  18.606   9.290  0.00  0.00     0.247 A 
HETATM  175  N   UNK N   1      30.157  19.093   9.812  0.00  0.00    -0.368 N 
HETATM  176  O   UNK N   1      29.021  18.832   9.712  0.00  0.00    -0.271 OA
HETATM  177  H   UNK N   1      29.747  15.124   4.910  0.00  0.00     0.163 HD
HETATM  178  H   UNK N   1      30.680  17.790   8.072  0.00  0.00     0.159 HD
HETATM  179  H   UNK N   1      29.382  16.982   7.316  0.00  0.00     0.159 HD
HETATM  180  H   UNK N   1      30.671  17.366   7.541  0.00  0.00     0.163 HD
HETATM  181  H   UNK N   1      30.176  16.402   6.430  0.00  0.00     0.163 HD
HETATM  182  H   UNK N   1      33.003  15.763   5.063  0.00  0.00     0.163 HD
HETATM  183  H   UNK N   1      31.258  13.925   3.103  0.00  0.00     0.163 HD
HETATM  184  H   UNK N   1      34.085  13.285   1.737  0.00  0.00     0.163 HD
HETATM  185  H   UNK N   1      32.341  11.447  -0.224  0.00  0.00     0.163 HD
HETATM  186  H   UNK N   1      35.167  10.808  -1.590  0.00  0.00     0.163 HD
HETATM  187  H   UNK N   1      35.055   8.849  -4.028  0.00  0.00     0.163 HD
HETATM  188  H   UNK N   1      32.311   7.669  -4.962  0.00  0.00     0.163 HD
HETATM  189  H   UNK N   1      30.687   9.172  -2.750  0.00  0.00     0.163 HD
HETATM  190  H   UNK N   1      32.431  11.011  -0.789  0.00  0.00     0.163 HD
HETATM  191  H   UNK N   1      29.604  11.650   0.577  0.00  0.00     0.163 HD
HETATM  192  H   UNK N   1      31.349  13.488   2.537  0.00  0.00     0.163 HD
HETATM  193  H   UNK N   1      28.522  14.128   3.904  0.00  0.00     0.163 HD
HETATM  194  H   UNK N   1      30.266  15.966   5.864  0.00  0.00     0.163 HD
HETATM  195  H   UNK N   1      27.440  16.605   7.231  0.00  0.00     0.163 HD
HETATM  196  H   UNK N   1      25.252  16.260   7.233  0.00  0.00     0.217 HD
HETATM  197  H   UNK N   1      28.371  14.675   4.621  0.00  0.00     0.210 HD
HETATM  198  H   UNK N   1      26.509  12.477   2.233  0.00  0.00     0.217 HD
HETATM  199  H   UNK N   1      27.245  11.003   0.236  0.00  0.00     0.217 HD
HETATM  200  H   UNK N   1      29.247   9.308  -2.292  0.00  0.00     0.210 HD
HETATM  201  H   UNK N   1      39.596   8.636  -5.201  0.00  0.00     0.210 HD
HETATM  202  H   UNK N   1      40.615   9.415  -4.425  0.00  0.00     0.210 HD
HETATM  203  H   UNK N   1      43.346  11.324  -2.572  0.00  0.00     0.210 HD
HETATM  204  H   UNK N   1      42.556  12.514  -0.921  0.00  0.00     0.210 HD
HETATM  205  H   UNK N   1      40.321  12.582  -0.389  0.00  0.00     0.210 HD
HETATM  206  H   UNK N   1      35.358  10.325  -2.234  0.00  0.00     0.210 HD
HETATM  207  H   UNK N   1      37.221  12.510   0.138  0.00  0.00     0.217 HD
HETATM  208  H   UNK N   1      35.006  17.357   6.666  0.00  0.00     0.217 HD
HETATM  209  H   UNK N   1      31.134  19.167   9.711  0.00  0.00     0.159 HD
HETATM  210  H   UNK N   1      29.699  19.590  10.528  0.00  0.00     0.159 HD
ENDROOT
BRANCH  61 211
HETATM  211  N   UNK N   1      34.190   6.617  -6.657  0.00  0.00    -0.430 N 
HETATM  212  H   UNK N   1      33.336   6.069  -6.757  0.00  0.00     0.149 HD
HETATM  213  H   UNK N   1      34.940   6.523  -7.342  0.00  0.00     0.149 HD
ENDBRANCH  61 211
BRANCH 137 214
HETATM  214  O   UNK N   1      38.540   8.376  -5.316  0.00  0.00    -0.398 OA
HETATM  215  H   UNK N   1      37.804   7.885  -5.712  0.00  0.00     0.209 HD
ENDBRANCH 137 214
BRANCH 147 216
HETATM  216  O   UNK N   1      42.975  10.601  -3.407  0.00  0.00    -0.398 OA
HETATM  217  H   UNK N   1      43.411   9.747  -3.548  0.00  0.00     0.209 HD
ENDBRANCH 147 216
BRANCH  94 218
HETATM  218  C   UNK N   1      26.714  14.334   4.523  0.00  0.00     0.111 C 
BRANCH 218 219
HETATM  219  N   UNK N   1      25.972  14.066   4.259  0.00  0.00    -0.430 N 
HETATM  220  H   UNK N   1      25.266  13.773   4.934  0.00  0.00     0.149 HD
HETATM  221  H   UNK N   1      25.768  14.032   3.260  0.00  0.00     0.149 HD
ENDBRANCH 218 219
ENDBRANCH  94 218
TORSDOF 13
ENDMDL
MODEL 8
REMARK VINA RESULT:     -25.4      2.303     10.978
REMARK  13 active torsions:
REMARK  status: ('A' for Active; 'I' for Inactive)
REMARK    1  A    between atoms: C_20  and  C_103 
REMARK    2  A    between atoms: C_61  and  N_62 
REMARK    3  A    between atoms: C_68  and  C_73 
REMARK    4  A    between atoms: C_95  and  C_96 
REMARK    5  A    between atoms: C_96  and  N_97 
REMARK    6  A    between atoms: C_105  and  C_111 
REMARK    7  A    between atoms: C_115  and  C_121 
REMARK    8  A    between atoms: C_122  and  C_128 
REMARK    9  A    between atoms: C_132  and  C_160 
REMARK   10  A    between atoms: C_140  and  O_141 
REMARK   11  A    between atoms: C_151  and  O_152 
REMARK   12  A    between atoms: C_164  and  C_170 
REMARK   13  A    between atoms: C_171  and  C_178 
ROOT
HETATM    1  C   UNK N   1      33.812  14.503   7.574  0.00  0.00     0.010 A 
HETATM    2  C   UNK N   1      33.226  14.943   7.555  0.00  0.00    -0.019 A 
HETATM    3  C   UNK N   1      32.951  14.346   7.029  0.00  0.00     0.010 A 
HETATM    4  C   UNK N   1      33.327  15.719   8.106  0.00  0.00     0.031 A 
HETATM    5  C   UNK N   1      34.064  15.390   8.274  0.00  0.00    -0.026 A 
HETATM    6  C   UNK N   1      34.651  14.693   8.128  0.00  0.00    -0.004 A 
HETATM    7  C   UNK N   1      34.854  13.919   7.735  0.00  0.00     0.005 A 
HETATM    8  C   UNK N   1      34.140  13.624   7.178  0.00  0.00     0.074 A 
HETATM    9  C   UNK N   1      33.337  13.583   6.737  0.00  0.00     0.241 A 
HETATM   10  O   UNK N   1      32.575  13.808   6.489  0.00  0.00    -0.269 OA
HETATM   11  N   UNK N   1      33.718  14.045   7.230  0.00  0.00    -0.344 N 
HETATM   12  C   UNK N   1      34.448  14.196   7.705  0.00  0.00     0.185 A 
HETATM   13  C   UNK N   1      34.720  13.466   7.374  0.00  0.00     0.137 A 
HETATM   14  C   UNK N   1      35.517  13.307   7.683  0.00  0.00     0.217 A 
HETATM   15  N   UNK N   1      36.058  13.588   8.143  0.00  0.00    -0.370 N 
HETATM   16  O   UNK N   1      35.400  12.587   7.160  0.00  0.00    -0.274 OA
HETATM   17  C   UNK N   1      35.315  14.234   8.176  0.00  0.00     0.241 A 
HETATM   18  O   UNK N   1      35.867  14.617   8.706  0.00  0.00    -0.271 OA
HETATM   19  N   UNK N   1      36.104  14.112   8.503  0.00  0.00    -0.343 N 
HETATM   20  C   UNK N   1      36.836  14.154   8.908  0.00  0.00     0.215 A 
HETATM   21  C   UNK N   1      37.465  13.622   8.890  0.00  0.00     0.255 A 
HETATM   22  O   UNK N   1      37.261  13.002   8.386  0.00  0.00    -0.302 OA
HETATM   23  C   UNK N   1      36.505  13.151   8.092  0.00  0.00     0.287 A 
HETATM   24  O   UNK N   1      36.910  13.576   8.574  0.00  0.00    -0.262 OA
HETATM   25  C   UNK N   1      35.888  12.789   7.541  0.00  0.00     0.217 A 
HETATM   26  N   UNK N   1      35.159  13.147   7.396  0.00  0.00    -0.342 N 
HETATM   27  C   UNK N   1      34.618  12.789   6.886  0.00  0.00     0.241 A 
HETATM   28  O   UNK N   1      34.654  12.053   6.432  0.00  0.00    -0.271 OA
HETATM   29  C   UNK N   1      33.889  13.147   6.741  0.00  0.00     0.172 A 
HETATM   30  C   UNK N   1      33.931  12.397   6.280  0.00  0.00     0.042 A 
HETATM   31  N   UNK N   1      33.347  12.789   6.232  0.00  0.00    -0.346 N 
HETATM   32  C   UNK N   1      32.619  13.147   6.087  0.00  0.00     0.241 A 
HETATM   33  O   UNK N   1      31.894  13.590   5.998  0.00  0.00    -0.271 OA
HETATM   34  C   UNK N   1      32.077  12.789   5.577  0.00  0.00     0.177 A 
HETATM   35  C   UNK N   1      32.359  12.034   5.237  0.00  0.00     0.038 A 
HETATM   36  C   UNK N   1      32.767  11.315   4.985  0.00  0.00    -0.020 A 
HETATM   37  C   UNK N   1      33.522  10.995   5.168  0.00  0.00     0.009 A 
HETATM   38  C   UNK N   1      32.697  10.623   4.503  0.00  0.00     0.009 A 
HETATM   39  N   UNK N   1      31.348  13.148   5.432  0.00  0.00    -0.346 N 
HETATM   40  C   UNK N   1      30.807  12.789   4.923  0.00  0.00     0.236 A 
HETATM   41  O   UNK N   1      30.872  12.070   4.494  0.00  0.00    -0.272 OA
HETATM   42  C   UNK N   1      30.079  13.147   4.778  0.00  0.00     0.225 A 
HETATM   43  N   UNK N   1      29.537  12.789   4.268  0.00  0.00    -0.350 N 
HETATM   44  C   UNK N   1      28.808  13.148   4.123  0.00  0.00     0.245 A 
HETATM   45  O   UNK N   1      28.351  13.809   4.313  0.00  0.00    -0.271 OA
HETATM   46  C   UNK N   1      28.267  12.790   3.614  0.00  0.00     0.210 A 
HETATM   47  N   UNK N   1      27.538  13.148   3.469  0.00  0.00    -0.342 N 
HETATM   48  C   UNK N   1      26.996  12.790   2.960  0.00  0.00     0.243 A 
HETATM   49  O   UNK N   1      27.287  12.114   2.675  0.00  0.00    -0.271 OA
HETATM   50  C   UNK N   1      26.268  13.148   2.814  0.00  0.00     0.205 A 
HETATM   51  N   UNK N   1      25.726  12.790   2.305  0.00  0.00    -0.343 N 
HETATM   52  C   UNK N   1      24.998  13.148   2.160  0.00  0.00     0.245 A 
HETATM   53  O   UNK N   1      25.168  13.777   2.652  0.00  0.00    -0.271 OA
HETATM   54  C   UNK N   1      24.456  12.790   1.651  0.00  0.00     0.210 A 
HETATM   55  N   UNK N   1      23.728  13.148   1.506  0.00  0.00    -0.342 N 
HETATM   56  C   UNK N   1      23.540  13.864   1.869  0.00  0.00     0.241 A 
HETATM   57  O   UNK N   1      24.194  14.031   2.314  0.00  0.00    -0.271 OA
HETATM   58  C   UNK N   1      22.811  14.223   1.724  0.00  0.00     0.176 A 
HETATM   59  C   UNK N   1      22.154  13.988   1.235  0.00  0.00     0.036 A 
HETATM   60  C   UNK N   1      21.436  13.907   0.813  0.00  0.00     0.021 A 
HETATM   61  C   UNK N   1      20.684  13.959   0.459  0.00  0.00     0.111 A 
HETATM   62  N   UNK N   1      22.624  14.939   2.088  0.00  0.00    -0.346 N 
HETATM   63  C   UNK N   1      23.165  15.297   2.598  0.00  0.00     0.241 A 
HETATM   64  O   UNK N   1      22.559  15.896   2.671  0.00  0.00    -0.271 OA
HETATM   65  C   UNK N   1      23.893  14.939   2.743  0.00  0.00     0.180 A 
HETATM   66  C   UNK N   1      23.674  15.686   3.110  0.00  0.00     0.073 A 
HETATM   67  C   UNK N   1      24.247  16.013   3.616  0.00  0.00    -0.056 A 
HETATM   68  C   UNK N   1      24.060  16.729   3.980  0.00  0.00     0.007 A 
HETATM   69  C   UNK N   1      24.601  17.087   4.489  0.00  0.00     0.001 A 
HETATM   70  C   UNK N   1      25.330  16.728   4.634  0.00  0.00     0.000 A 
HETATM   71  C   UNK N   1      25.681  16.228   4.493  0.00  0.00     0.001 A 
HETATM   72  C   UNK N   1      24.976  15.654   3.761  0.00  0.00     0.007 A 
HETATM   73  N   UNK N   1      24.435  15.296   3.252  0.00  0.00    -0.346 N 
HETATM   74  C   UNK N   1      25.164  14.939   3.397  0.00  0.00     0.243 A 
HETATM   75  O   UNK N   1      25.737  14.334   3.304  0.00  0.00    -0.271 OA
HETATM   76  C   UNK N   1      25.705  15.297   3.907  0.00  0.00     0.205 A 
HETATM   77  N   UNK N   1      26.434  14.938   4.052  0.00  0.00    -0.343 N 
HETATM   78  C   UNK N   1      26.976  15.296   4.561  0.00  0.00     0.245 A 
HETATM   79  O   UNK N   1      26.287  15.621   4.415  0.00  0.00    -0.271 OA
HETATM   80  C   UNK N   1      27.704  14.938   4.706  0.00  0.00     0.210 A 
HETATM   81  N   UNK N   1      28.245  15.296   5.216  0.00  0.00    -0.342 N 
HETATM   82  C   UNK N   1      28.975  14.938   5.361  0.00  0.00     0.246 A 
HETATM   83  O   UNK N   1      29.441  14.275   5.175  0.00  0.00    -0.271 OA
HETATM   84  C   UNK N   1      29.516  15.296   5.870  0.00  0.00     0.210 A 
HETATM   85  N   UNK N   1      30.244  14.938   6.015  0.00  0.00    -0.342 N 
HETATM   86  C   UNK N   1      30.786  15.296   6.524  0.00  0.00     0.243 A 
HETATM   87  O   UNK N   1      30.541  15.988   6.843  0.00  0.00    -0.271 OA
HETATM   88  C   UNK N   1      31.515  14.937   6.670  0.00  0.00     0.205 A 
HETATM   89  N   UNK N   1      32.056  15.296   7.179  0.00  0.00    -0.344 N 
HETATM   90  C   UNK N   1      32.785  14.938   7.324  0.00  0.00     0.241 A 
HETATM   91  O   UNK N   1      32.209  14.590   6.804  0.00  0.00    -0.271 OA
HETATM   92  C   UNK N   1      33.326  15.296   7.833  0.00  0.00     0.176 A 
HETATM   93  C   UNK N   1      32.779  16.061   8.043  0.00  0.00     0.036 A 
HETATM   94  C   UNK N   1      32.592  16.814   8.432  0.00  0.00     0.021 A 
HETATM   95  N   UNK N   1      34.055  14.937   7.978  0.00  0.00    -0.346 N 
HETATM   96  C   UNK N   1      34.597  15.295   8.488  0.00  0.00     0.245 A 
HETATM   97  O   UNK N   1      33.927  15.963   8.572  0.00  0.00    -0.271 OA
HETATM   98  C   UNK N   1      35.325  14.937   8.633  0.00  0.00     0.210 A 
HETATM   99  N   UNK N   1      35.867  15.295   9.142  0.00  0.00    -0.342 N 
HETATM  100  C   UNK N   1      36.596  14.937   9.288  0.00  0.00     0.244 A 
HETATM  101  O   UNK N   1      37.135  15.328   9.817  0.00  0.00    -0.271 OA
HETATM  102  C   UNK N   1      35.138  15.654   8.997  0.00  0.00    -0.026 A 
HETATM  103  C   UNK N   1      34.409  16.012   8.852  0.00  0.00     0.012 A 
HETATM  104  C   UNK N   1      34.222  16.728   9.216  0.00  0.00     0.037 A 
HETATM  105  C   UNK N   1      34.764  17.086   9.726  0.00  0.00     0.065 A 
HETATM  106  O   UNK N   1      34.734  17.800  10.170  0.00  0.00    -0.361 OA
HETATM  107  C   UNK N   1      35.492  16.728   9.871  0.00  0.00     0.037 A 
HETATM  108  C   UNK N   1      35.679  16.012   9.507  0.00  0.00     0.012 A 
HETATM  109  C   UNK N   1      31.392  15.739   7.122  0.00  0.00     0.146 A 
HETATM  110  C   UNK N   1      31.047  16.477   7.419  0.00  0.00     0.042 A 
HETATM  111  O   UNK N   1      31.771  16.275   7.662  0.00  0.00    -0.393 OA
HETATM  112  C   UNK N   1      29.329  16.012   6.234  0.00  0.00    -0.026 A 
HETATM  113  C   UNK N   1      28.599  16.370   6.089  0.00  0.00     0.012 A 
HETATM  114  C   UNK N   1      28.412  17.086   6.453  0.00  0.00     0.037 A 
HETATM  115  C   UNK N   1      28.953  17.445   6.962  0.00  0.00     0.065 A 
HETATM  116  O   UNK N   1      28.956  18.153   7.420  0.00  0.00    -0.361 OA
HETATM  117  C   UNK N   1      29.682  17.087   7.107  0.00  0.00     0.037 A 
HETATM  118  C   UNK N   1      29.870  16.370   6.743  0.00  0.00     0.012 A 
HETATM  119  C   UNK N   1      27.517  15.654   5.070  0.00  0.00    -0.026 A 
HETATM  120  C   UNK N   1      26.787  16.013   4.925  0.00  0.00     0.012 A 
HETATM  121  C   UNK N   1      26.600  16.729   5.289  0.00  0.00     0.037 A 
HETATM  122  C   UNK N   1      27.142  17.087   5.798  0.00  0.00     0.065 A 
HETATM  123  O   UNK N   1      26.873  17.818   6.130  0.00  0.00    -0.361 OA
HETATM  124  C   UNK N   1      27.871  16.728   5.943  0.00  0.00     0.037 A 
HETATM  125  C   UNK N   1      28.058  16.013   5.580  0.00  0.00     0.012 A 
HETATM  126  C   UNK N   1      25.400  16.005   4.205  0.00  0.00     0.146 A 
HETATM  127  C   UNK N   1      25.916  16.570   4.834  0.00  0.00     0.042 A 
HETATM  128  O   UNK N   1      24.723  16.438   4.134  0.00  0.00    -0.393 OA
HETATM  129  C   UNK N   1      24.644  12.074   1.286  0.00  0.00    -0.026 A 
HETATM  130  C   UNK N   1      25.372  11.716   1.431  0.00  0.00     0.012 A 
HETATM  131  C   UNK N   1      25.560  11.000   1.068  0.00  0.00     0.037 A 
HETATM  132  C   UNK N   1      25.019  10.642   0.559  0.00  0.00     0.072 A 
HETATM  133  O   UNK N   1      25.230   9.915   0.200  0.00  0.00    -0.318 OA
HETATM  134  C   UNK N   1      24.664   9.567  -0.315  0.00  0.00     0.298 A 
HETATM  135  O   UNK N   1      23.948   9.959  -0.432  0.00  0.00    -0.348 OA
HETATM  136  C   UNK N   1      23.379   9.636  -0.933  0.00  0.00     0.179 A 
HETATM  137  C   UNK N   1      22.621   9.993  -1.094  0.00  0.00     0.198 A 
HETATM  138  C   UNK N   1      23.525   8.921  -1.318  0.00  0.00     0.180 A 
HETATM  139  O   UNK N   1      22.917   8.619  -1.825  0.00  0.00    -0.390 OA
HETATM  140  C   UNK N   1      24.241   8.529  -1.201  0.00  0.00     0.183 A 
HETATM  141  O   UNK N   1      23.963   7.930  -1.730  0.00  0.00    -0.390 OA
HETATM  142  C   UNK N   1      24.811   8.852  -0.699  0.00  0.00     0.211 A 
HETATM  143  O   UNK N   1      25.534   8.443  -0.590  0.00  0.00    -0.346 OA
HETATM  144  C   UNK N   1      25.653   7.717  -0.996  0.00  0.00     0.292 A 
HETATM  145  O   UNK N   1      25.066   7.417  -1.491  0.00  0.00    -0.348 OA
HETATM  146  C   UNK N   1      25.185   6.704  -1.889  0.00  0.00     0.179 A 
HETATM  147  C   UNK N   1      24.638   6.321  -2.417  0.00  0.00     0.198 A 
HETATM  148  C   UNK N   1      25.891   6.291  -1.791  0.00  0.00     0.180 A 
HETATM  149  O   UNK N   1      26.107   5.557  -2.152  0.00  0.00    -0.390 OA
HETATM  150  C   UNK N   1      26.480   6.590  -1.295  0.00  0.00     0.183 A 
HETATM  151  O   UNK N   1      27.207   6.173  -1.188  0.00  0.00    -0.390 OA
HETATM  152  C   UNK N   1      26.360   7.303  -0.898  0.00  0.00     0.204 A 
HETATM  153  O   UNK N   1      26.962   7.610  -0.390  0.00  0.00    -0.388 OA
HETATM  154  C   UNK N   1      24.290  10.999   0.413  0.00  0.00     0.037 A 
HETATM  155  C   UNK N   1      24.102  11.715   0.777  0.00  0.00     0.012 A 
HETATM  156  C   UNK N   1      26.426  12.366   2.393  0.00  0.00     0.146 A 
HETATM  157  C   UNK N   1      26.803  11.636   2.117  0.00  0.00     0.042 A 
HETATM  158  O   UNK N   1      26.097  11.810   1.866  0.00  0.00    -0.393 OA
HETATM  159  C   UNK N   1      28.454  12.074   3.250  0.00  0.00    -0.026 A 
HETATM  160  C   UNK N   1      29.183  11.715   3.395  0.00  0.00     0.012 A 
HETATM  161  C   UNK N   1      29.371  10.999   3.031  0.00  0.00     0.037 A 
HETATM  162  C   UNK N   1      28.829  10.641   2.522  0.00  0.00     0.065 A 
HETATM  163  O   UNK N   1      28.870   9.925   2.082  0.00  0.00    -0.361 OA
HETATM  164  C   UNK N   1      28.100  11.000   2.377  0.00  0.00     0.037 A 
HETATM  165  C   UNK N   1      27.912  11.715   2.740  0.00  0.00     0.012 A 
HETATM  166  C   UNK N   1      36.060  12.073   7.169  0.00  0.00    -0.024 A 
HETATM  167  C   UNK N   1      36.784  11.701   7.303  0.00  0.00     0.036 A 
HETATM  168  C   UNK N   1      36.955  10.985   6.931  0.00  0.00     0.067 A 
HETATM  169 Cl   UNK N   1      37.696  10.608   7.070  0.00  0.00    -0.081 Cl
HETATM  170  C   UNK N   1      36.403  10.641   6.425  0.00  0.00     0.087 A 
HETATM  171  O   UNK N   1      36.377   9.937   5.959  0.00  0.00    -0.359 OA
HETATM  172  C   UNK N   1      35.678  11.012   6.290  0.00  0.00     0.039 A 
HETATM  173  C   UNK N   1      35.507  11.728   6.662  0.00  0.00     0.012 A 
HETATM  174  C   UNK N   1      38.251  13.593   9.276  0.00  0.00     0.247 A 
HETATM  175  N   UNK N   1      38.901  13.062   9.270  0.00  0.00    -0.368 N 
HETATM  176  O   UNK N   1      38.687  14.077   9.812  0.00  0.00    -0.271 OA
HETATM  177  H   UNK N   1      33.117  14.803   7.408  0.00  0.00     0.163 HD
HETATM  178  H   UNK N   1      36.904  13.101   8.265  0.00  0.00     0.159 HD
HETATM  179  H   UNK N   1      35.908  14.440   8.614  0.00  0.00     0.159 HD
HETATM  180  H   UNK N   1      36.281  13.258   8.045  0.00  0.00     0.163 HD
HETATM  181  H   UNK N   1      34.936  14.001   7.830  0.00  0.00     0.163 HD
HETATM  182  H   UNK N   1      33.571  11.934   5.797  0.00  0.00     0.163 HD
HETATM  183  H   UNK N   1      31.125  14.002   5.867  0.00  0.00     0.163 HD
HETATM  184  H   UNK N   1      29.761  11.934   3.834  0.00  0.00     0.163 HD
HETATM  185  H   UNK N   1      27.314  14.002   3.903  0.00  0.00     0.163 HD
HETATM  186  H   UNK N   1      25.950  11.935   1.870  0.00  0.00     0.163 HD
HETATM  187  H   UNK N   1      23.081  12.721   0.897  0.00  0.00     0.163 HD
HETATM  188  H   UNK N   1      21.753  15.366   1.915  0.00  0.00     0.163 HD
HETATM  189  H   UNK N   1      24.211  16.151   3.686  0.00  0.00     0.163 HD
HETATM  190  H   UNK N   1      26.658  14.083   3.617  0.00  0.00     0.163 HD
HETATM  191  H   UNK N   1      28.022  16.151   5.650  0.00  0.00     0.163 HD
HETATM  192  H   UNK N   1      30.468  14.083   5.581  0.00  0.00     0.163 HD
HETATM  193  H   UNK N   1      31.833  16.150   7.613  0.00  0.00     0.163 HD
HETATM  194  H   UNK N   1      34.279  14.083   7.545  0.00  0.00     0.163 HD
HETATM  195  H   UNK N   1      35.643  16.150   9.577  0.00  0.00     0.163 HD
HETATM  196  H   UNK N   1      35.462  18.048  10.704  0.00  0.00     0.217 HD
HETATM  197  H   UNK N   1      32.661  16.079   7.995  0.00  0.00     0.210 HD
HETATM  198  H   UNK N   1      29.703  18.369   7.943  0.00  0.00     0.217 HD
HETATM  199  H   UNK N   1      27.422  18.295   6.720  0.00  0.00     0.217 HD
HETATM  200  H   UNK N   1      24.627  17.271   4.621  0.00  0.00     0.210 HD
HETATM  201  H   UNK N   1      22.089   9.111  -1.936  0.00  0.00     0.210 HD
HETATM  202  H   UNK N   1      23.085   8.008  -2.132  0.00  0.00     0.210 HD
HETATM  203  H   UNK N   1      25.488   5.115  -2.755  0.00  0.00     0.210 HD
HETATM  204  H   UNK N   1      27.358   5.334  -1.650  0.00  0.00     0.210 HD
HETATM  205  H   UNK N   1      27.793   7.123  -0.275  0.00  0.00     0.210 HD
HETATM  206  H   UNK N   1      25.211  11.952   1.500  0.00  0.00     0.210 HD
HETATM  207  H   UNK N   1      28.150   9.664   1.544  0.00  0.00     0.217 HD
HETATM  208  H   UNK N   1      35.619   9.743   5.443  0.00  0.00     0.217 HD
HETATM  209  H   UNK N   1      38.864  12.244   8.724  0.00  0.00     0.159 HD
HETATM  210  H   UNK N   1      39.702  13.258   9.808  0.00  0.00     0.159 HD
ENDROOT
BRANCH  61 211
HETATM  211  N   UNK N   1      19.924  14.214   0.231  0.00  0.00    -0.430 N 
HETATM  212  H   UNK N   1      19.639  15.179   0.398  0.00  0.00     0.149 HD
HETATM  213  H   UNK N   1      19.279  13.562  -0.214  0.00  0.00     0.149 HD
ENDBRANCH  61 211
BRANCH 137 214
HETATM  214  O   UNK N   1      21.864  10.060  -1.441  0.00  0.00    -0.398 OA
HETATM  215  H   UNK N   1      21.522  10.932  -1.692  0.00  0.00     0.209 HD
ENDBRANCH 137 214
BRANCH 147 216
HETATM  216  O   UNK N   1      24.478   5.673  -2.917  0.00  0.00    -0.398 OA
HETATM  217  H   UNK N   1      24.153   5.824  -3.817  0.00  0.00     0.209 HD
ENDBRANCH 147 216
BRANCH  94 218
HETATM  218  C   UNK N   1      32.406  17.544   8.806  0.00  0.00     0.111 C 
BRANCH 218 219
HETATM  219  N   UNK N   1      32.076  18.264   9.063  0.00  0.00    -0.430 N 
HETATM  220  H   UNK N   1      32.663  18.959   9.522  0.00  0.00     0.149 HD
HETATM  221  H   UNK N   1      31.084  18.449   8.918  0.00  0.00     0.149 HD
ENDBRANCH 218 219
ENDBRANCH  94 218
TORSDOF 13
ENDMDL
MODEL 9
REMARK VINA RESULT:     -24.7      3.610      7.876
REMARK  13 active torsions:
REMARK  status: ('A' for Active; 'I' for Inactive)
REMARK    1  A    between atoms: C_20  and  C_103 
REMARK    2  A    between atoms: C_61  and  N_62 
REMARK    3  A    between atoms: C_68  and  C_73 
REMARK    4  A    between atoms: C_95  and  C_96 
REMARK    5  A    between atoms: C_96  and  N_97 
REMARK    6  A    between atoms: C_105  and  C_111 
REMARK    7  A    between atoms: C_115  and  C_121 
REMARK    8  A    between atoms: C_122  and  C_128 
REMARK    9  A    between atoms: C_132  and  C_160 
REMARK   10  A    between atoms: C_140  and  O_141 
REMARK   11  A    between atoms: C_151  and  O_152 
REMARK   12  A    between atoms: C_164  and  C_170 
REMARK   13  A    between atoms: C_171  and  C_178 
ROOT
HETATM    1  C   UNK N   1      29.164  16.961   6.152  0.00  0.00     0.010 A 
HETATM    2  C   UNK N   1      29.738  16.545   6.340  0.00  0.00    -0.019 A 
HETATM    3  C   UNK N   1      29.512  16.136   5.640  0.00  0.00     0.010 A 
HETATM    4  C   UNK N   1      30.164  16.844   7.142  0.00  0.00     0.031 A 
HETATM    5  C   UNK N   1      29.581  17.427   7.125  0.00  0.00    -0.026 A 
HETATM    6  C   UNK N   1      28.849  17.774   6.685  0.00  0.00    -0.004 A 
HETATM    7  C   UNK N   1      28.266  17.753   6.010  0.00  0.00     0.005 A 
HETATM    8  C   UNK N   1      28.453  17.025   5.425  0.00  0.00     0.074 A 
HETATM    9  C   UNK N   1      28.842  16.282   5.052  0.00  0.00     0.241 A 
HETATM   10  O   UNK N   1      29.374  15.649   4.956  0.00  0.00    -0.269 OA
HETATM   11  N   UNK N   1      28.930  16.753   5.662  0.00  0.00    -0.344 N 
HETATM   12  C   UNK N   1      28.647  17.458   6.114  0.00  0.00     0.185 A 
HETATM   13  C   UNK N   1      28.056  17.509   5.510  0.00  0.00     0.137 A 
HETATM   14  C   UNK N   1      27.547  18.192   5.685  0.00  0.00     0.217 A 
HETATM   15  N   UNK N   1      27.441  18.759   6.185  0.00  0.00    -0.370 N 
HETATM   16  O   UNK N   1      27.163  17.893   4.930  0.00  0.00    -0.274 OA
HETATM   17  C   UNK N   1      28.223  18.256   6.511  0.00  0.00     0.241 A 
HETATM   18  O   UNK N   1      28.174  18.861   7.115  0.00  0.00    -0.271 OA
HETATM   19  N   UNK N   1      27.741  18.941   6.717  0.00  0.00    -0.343 N 
HETATM   20  C   UNK N   1      27.388  19.618   7.062  0.00  0.00     0.215 A 
HETATM   21  C   UNK N   1      26.736  20.048   6.801  0.00  0.00     0.255 A 
HETATM   22  O   UNK N   1      26.459  19.697   6.108  0.00  0.00    -0.302 OA
HETATM   23  C   UNK N   1      26.941  19.049   5.941  0.00  0.00     0.287 A 
HETATM   24  O   UNK N   1      26.994  19.531   6.525  0.00  0.00    -0.262 OA
HETATM   25  C   UNK N   1      27.036  18.391   5.330  0.00  0.00     0.217 A 
HETATM   26  N   UNK N   1      27.633  17.824   5.379  0.00  0.00    -0.342 N 
HETATM   27  C   UNK N   1      27.691  17.235   4.803  0.00  0.00     0.241 A 
HETATM   28  O   UNK N   1      27.219  17.072   4.097  0.00  0.00    -0.271 OA
HETATM   29  C   UNK N   1      28.289  16.668   4.853  0.00  0.00     0.172 A 
HETATM   30  C   UNK N   1      27.804  16.506   4.134  0.00  0.00     0.042 A 
HETATM   31  N   UNK N   1      28.347  16.080   4.277  0.00  0.00    -0.346 N 
HETATM   32  C   UNK N   1      28.944  15.513   4.326  0.00  0.00     0.241 A 
HETATM   33  O   UNK N   1      29.591  14.972   4.460  0.00  0.00    -0.271 OA
HETATM   34  C   UNK N   1      29.002  14.925   3.751  0.00  0.00     0.177 A 
HETATM   35  C   UNK N   1      28.392  14.979   3.127  0.00  0.00     0.038 A 
HETATM   36  C   UNK N   1      27.737  15.158   2.591  0.00  0.00    -0.020 A 
HETATM   37  C   UNK N   1      27.151  15.760   2.590  0.00  0.00     0.009 A 
HETATM   38  C   UNK N   1      27.347  14.909   1.883  0.00  0.00     0.009 A 
HETATM   39  N   UNK N   1      29.600  14.357   3.800  0.00  0.00    -0.346 N 
HETATM   40  C   UNK N   1      29.658  13.769   3.224  0.00  0.00     0.236 A 
HETATM   41  O   UNK N   1      29.181  13.637   2.546  0.00  0.00    -0.272 OA
HETATM   42  C   UNK N   1      30.255  13.202   3.274  0.00  0.00     0.225 A 
HETATM   43  N   UNK N   1      30.313  12.614   2.698  0.00  0.00    -0.350 N 
HETATM   44  C   UNK N   1      30.911  12.047   2.747  0.00  0.00     0.245 A 
HETATM   45  O   UNK N   1      31.555  11.807   3.207  0.00  0.00    -0.271 OA
HETATM   46  C   UNK N   1      30.969  11.459   2.172  0.00  0.00     0.210 A 
HETATM   47  N   UNK N   1      31.566  10.892   2.221  0.00  0.00    -0.342 N 
HETATM   48  C   UNK N   1      31.625  10.303   1.646  0.00  0.00     0.243 A 
HETATM   49  O   UNK N   1      31.058  10.387   1.103  0.00  0.00    -0.271 OA
HETATM   50  C   UNK N   1      32.222   9.736   1.695  0.00  0.00     0.205 A 
HETATM   51  N   UNK N   1      32.280   9.148   1.119  0.00  0.00    -0.343 N 
HETATM   52  C   UNK N   1      32.877   8.581   1.168  0.00  0.00     0.245 A 
HETATM   53  O   UNK N   1      33.178   8.904   1.856  0.00  0.00    -0.271 OA
HETATM   54  C   UNK N   1      32.936   7.992   0.593  0.00  0.00     0.210 A 
HETATM   55  N   UNK N   1      33.533   7.426   0.642  0.00  0.00    -0.342 N 
HETATM   56  C   UNK N   1      34.071   7.446   1.266  0.00  0.00     0.241 A 
HETATM   57  O   UNK N   1      33.837   8.086   1.702  0.00  0.00    -0.271 OA
HETATM   58  C   UNK N   1      34.669   6.879   1.316  0.00  0.00     0.176 A 
HETATM   59  C   UNK N   1      34.863   6.218   0.813  0.00  0.00     0.036 A 
HETATM   60  C   UNK N   1      35.183   5.544   0.436  0.00  0.00     0.021 A 
HETATM   61  C   UNK N   1      35.604   4.874   0.176  0.00  0.00     0.111 A 
HETATM   62  N   UNK N   1      35.207   6.900   1.940  0.00  0.00    -0.346 N 
HETATM   63  C   UNK N   1      35.148   7.488   2.516  0.00  0.00     0.241 A 
HETATM   64  O   UNK N   1      35.831   7.097   2.853  0.00  0.00    -0.271 OA
HETATM   65  C   UNK N   1      34.552   8.055   2.467  0.00  0.00     0.180 A 
HETATM   66  C   UNK N   1      35.126   8.055   3.109  0.00  0.00     0.073 A 
HETATM   67  C   UNK N   1      35.031   8.664   3.667  0.00  0.00    -0.056 A 
HETATM   68  C   UNK N   1      35.570   8.685   4.292  0.00  0.00     0.007 A 
HETATM   69  C   UNK N   1      35.511   9.273   4.867  0.00  0.00     0.001 A 
HETATM   70  C   UNK N   1      34.914   9.840   4.818  0.00  0.00     0.000 A 
HETATM   71  C   UNK N   1      34.424  10.026   4.472  0.00  0.00     0.001 A 
HETATM   72  C   UNK N   1      34.434   9.231   3.617  0.00  0.00     0.007 A 
HETATM   73  N   UNK N   1      34.492   8.644   3.042  0.00  0.00    -0.346 N 
HETATM   74  C   UNK N   1      33.896   9.211   2.993  0.00  0.00     0.243 A 
HETATM   75  O   UNK N   1      33.227   9.570   2.638  0.00  0.00    -0.271 OA
HETATM   76  C   UNK N   1      33.837   9.799   3.569  0.00  0.00     0.205 A 
HETATM   77  N   UNK N   1      33.240  10.366   3.519  0.00  0.00    -0.343 N 
HETATM   78  C   UNK N   1      33.181  10.954   4.095  0.00  0.00     0.245 A 
HETATM   79  O   UNK N   1      33.737  10.414   4.128  0.00  0.00    -0.271 OA
HETATM   80  C   UNK N   1      32.585  11.521   4.046  0.00  0.00     0.210 A 
HETATM   81  N   UNK N   1      32.526  12.109   4.622  0.00  0.00    -0.342 N 
HETATM   82  C   UNK N   1      31.929  12.677   4.572  0.00  0.00     0.246 A 
HETATM   83  O   UNK N   1      31.279  12.924   4.116  0.00  0.00    -0.271 OA
HETATM   84  C   UNK N   1      31.870  13.265   5.148  0.00  0.00     0.210 A 
HETATM   85  N   UNK N   1      31.274  13.832   5.099  0.00  0.00    -0.342 N 
HETATM   86  C   UNK N   1      31.215  14.420   5.674  0.00  0.00     0.243 A 
HETATM   87  O   UNK N   1      31.768  14.382   6.252  0.00  0.00    -0.271 OA
HETATM   88  C   UNK N   1      30.618  14.987   5.625  0.00  0.00     0.205 A 
HETATM   89  N   UNK N   1      30.559  15.576   6.201  0.00  0.00    -0.344 N 
HETATM   90  C   UNK N   1      29.963  16.142   6.151  0.00  0.00     0.241 A 
HETATM   91  O   UNK N   1      30.045  15.526   5.572  0.00  0.00    -0.271 OA
HETATM   92  C   UNK N   1      29.904  16.731   6.727  0.00  0.00     0.176 A 
HETATM   93  C   UNK N   1      30.658  16.437   7.251  0.00  0.00     0.036 A 
HETATM   94  C   UNK N   1      31.219  16.469   7.912  0.00  0.00     0.021 A 
HETATM   95  N   UNK N   1      29.307  17.298   6.678  0.00  0.00    -0.346 N 
HETATM   96  C   UNK N   1      29.248  17.886   7.253  0.00  0.00     0.245 A 
HETATM   97  O   UNK N   1      30.005  17.456   7.631  0.00  0.00    -0.271 OA
HETATM   98  C   UNK N   1      28.651  18.453   7.204  0.00  0.00     0.210 A 
HETATM   99  N   UNK N   1      28.592  19.042   7.780  0.00  0.00    -0.342 N 
HETATM  100  C   UNK N   1      27.995  19.609   7.731  0.00  0.00     0.244 A 
HETATM  101  O   UNK N   1      27.959  20.204   8.338  0.00  0.00    -0.271 OA
HETATM  102  C   UNK N   1      29.190  18.474   7.829  0.00  0.00    -0.026 A 
HETATM  103  C   UNK N   1      29.786  17.907   7.878  0.00  0.00     0.012 A 
HETATM  104  C   UNK N   1      30.325  17.928   8.503  0.00  0.00     0.037 A 
HETATM  105  C   UNK N   1      30.266  18.517   9.079  0.00  0.00     0.065 A 
HETATM  106  O   UNK N   1      30.721  18.681   9.767  0.00  0.00    -0.361 OA
HETATM  107  C   UNK N   1      29.669  19.084   9.030  0.00  0.00     0.037 A 
HETATM  108  C   UNK N   1      29.131  19.063   8.405  0.00  0.00     0.012 A 
HETATM  109  C   UNK N   1      31.175  15.090   6.360  0.00  0.00     0.146 A 
HETATM  110  C   UNK N   1      31.808  14.974   6.941  0.00  0.00     0.042 A 
HETATM  111  O   UNK N   1      31.310  15.578   7.043  0.00  0.00    -0.393 OA
HETATM  112  C   UNK N   1      32.408  13.286   5.773  0.00  0.00    -0.026 A 
HETATM  113  C   UNK N   1      33.006  12.718   5.822  0.00  0.00     0.012 A 
HETATM  114  C   UNK N   1      33.544  12.739   6.446  0.00  0.00     0.037 A 
HETATM  115  C   UNK N   1      33.486  13.327   7.022  0.00  0.00     0.065 A 
HETATM  116  O   UNK N   1      33.921  13.519   7.719  0.00  0.00    -0.361 OA
HETATM  117  C   UNK N   1      32.889  13.894   6.973  0.00  0.00     0.037 A 
HETATM  118  C   UNK N   1      32.350  13.874   6.348  0.00  0.00     0.012 A 
HETATM  119  C   UNK N   1      33.123  11.542   4.671  0.00  0.00    -0.026 A 
HETATM  120  C   UNK N   1      33.720  10.974   4.720  0.00  0.00     0.012 A 
HETATM  121  C   UNK N   1      34.258  10.996   5.345  0.00  0.00     0.037 A 
HETATM  122  C   UNK N   1      34.200  11.584   5.920  0.00  0.00     0.065 A 
HETATM  123  O   UNK N   1      34.790  11.535   6.526  0.00  0.00    -0.361 OA
HETATM  124  C   UNK N   1      33.603  12.151   5.871  0.00  0.00     0.037 A 
HETATM  125  C   UNK N   1      33.064  12.131   5.247  0.00  0.00     0.012 A 
HETATM  126  C   UNK N   1      34.432   9.710   4.137  0.00  0.00     0.146 A 
HETATM  127  C   UNK N   1      34.513  10.331   4.905  0.00  0.00     0.042 A 
HETATM  128  O   UNK N   1      35.048   9.210   4.281  0.00  0.00    -0.393 OA
HETATM  129  C   UNK N   1      32.397   7.972  -0.032  0.00  0.00    -0.026 A 
HETATM  130  C   UNK N   1      31.801   8.539  -0.082  0.00  0.00     0.012 A 
HETATM  131  C   UNK N   1      31.263   8.518  -0.706  0.00  0.00     0.037 A 
HETATM  132  C   UNK N   1      31.321   7.930  -1.281  0.00  0.00     0.072 A 
HETATM  133  O   UNK N   1      30.764   7.928  -1.906  0.00  0.00    -0.318 OA
HETATM  134  C   UNK N   1      30.841   7.321  -2.482  0.00  0.00     0.298 A 
HETATM  135  O   UNK N   1      31.453   6.774  -2.395  0.00  0.00    -0.348 OA
HETATM  136  C   UNK N   1      31.547   6.169  -2.947  0.00  0.00     0.179 A 
HETATM  137  C   UNK N   1      32.159   5.576  -2.911  0.00  0.00     0.198 A 
HETATM  138  C   UNK N   1      31.031   6.111  -3.589  0.00  0.00     0.180 A 
HETATM  139  O   UNK N   1      31.159   5.478  -4.136  0.00  0.00    -0.390 OA
HETATM  140  C   UNK N   1      30.420   6.658  -3.676  0.00  0.00     0.183 A 
HETATM  141  O   UNK N   1      30.194   6.245  -4.379  0.00  0.00    -0.390 OA
HETATM  142  C   UNK N   1      30.325   7.263  -3.123  0.00  0.00     0.211 A 
HETATM  143  O   UNK N   1      29.699   7.811  -3.225  0.00  0.00    -0.346 OA
HETATM  144  C   UNK N   1      29.190   7.725  -3.888  0.00  0.00     0.292 A 
HETATM  145  O   UNK N   1      29.308   7.111  -4.425  0.00  0.00    -0.348 OA
HETATM  146  C   UNK N   1      28.807   7.029  -5.075  0.00  0.00     0.179 A 
HETATM  147  C   UNK N   1      28.853   6.429  -5.677  0.00  0.00     0.198 A 
HETATM  148  C   UNK N   1      28.188   7.561  -5.187  0.00  0.00     0.180 A 
HETATM  149  O   UNK N   1      27.624   7.560  -5.818  0.00  0.00    -0.390 OA
HETATM  150  C   UNK N   1      28.069   8.176  -4.650  0.00  0.00     0.183 A 
HETATM  151  O   UNK N   1      27.436   8.727  -4.757  0.00  0.00    -0.390 OA
HETATM  152  C   UNK N   1      28.570   8.258  -4.000  0.00  0.00     0.204 A 
HETATM  153  O   UNK N   1      28.449   8.887  -3.450  0.00  0.00    -0.388 OA
HETATM  154  C   UNK N   1      31.918   7.362  -1.233  0.00  0.00     0.037 A 
HETATM  155  C   UNK N   1      32.456   7.383  -0.608  0.00  0.00     0.012 A 
HETATM  156  C   UNK N   1      31.658   9.671   0.993  0.00  0.00     0.146 A 
HETATM  157  C   UNK N   1      31.013   9.818   0.433  0.00  0.00     0.042 A 
HETATM  158  O   UNK N   1      31.485   9.223   0.311  0.00  0.00    -0.393 OA
HETATM  159  C   UNK N   1      30.431  11.437   1.547  0.00  0.00    -0.026 A 
HETATM  160  C   UNK N   1      29.834  12.005   1.497  0.00  0.00     0.012 A 
HETATM  161  C   UNK N   1      29.296  11.984   0.873  0.00  0.00     0.037 A 
HETATM  162  C   UNK N   1      29.354  11.396   0.297  0.00  0.00     0.065 A 
HETATM  163  O   UNK N   1      28.892  11.242  -0.388  0.00  0.00    -0.361 OA
HETATM  164  C   UNK N   1      29.952  10.829   0.347  0.00  0.00     0.037 A 
HETATM  165  C   UNK N   1      30.490  10.849   0.971  0.00  0.00     0.012 A 
HETATM  166  C   UNK N   1      26.506  18.356   4.699  0.00  0.00    -0.024 A 
HETATM  167  C   UNK N   1      25.903  18.915   4.635  0.00  0.00     0.036 A 
HETATM  168  C   UNK N   1      25.373  18.880   4.004  0.00  0.00     0.067 A 
HETATM  169 Cl   UNK N   1      24.758  19.453   3.941  0.00  0.00    -0.081 Cl
HETATM  170  C   UNK N   1      25.446  18.285   3.437  0.00  0.00     0.087 A 
HETATM  171  O   UNK N   1      25.025  18.074   2.736  0.00  0.00    -0.359 OA
HETATM  172  C   UNK N   1      26.049  17.725   3.501  0.00  0.00     0.039 A 
HETATM  173  C   UNK N   1      26.579  17.761   4.132  0.00  0.00     0.012 A 
HETATM  174  C   UNK N   1      26.313  20.755   7.098  0.00  0.00     0.247 A 
HETATM  175  N   UNK N   1      25.650  21.205   6.848  0.00  0.00    -0.368 N 
HETATM  176  O   UNK N   1      26.386  21.282   7.754  0.00  0.00    -0.271 OA
HETATM  177  H   UNK N   1      29.708  16.408   6.157  0.00  0.00     0.163 HD
HETATM  178  H   UNK N   1      26.704  19.399   6.057  0.00  0.00     0.159 HD
HETATM  179  H   UNK N   1      28.044  18.850   6.958  0.00  0.00     0.159 HD
HETATM  180  H   UNK N   1      27.123  18.874   5.953  0.00  0.00     0.163 HD
HETATM  181  H   UNK N   1      28.275  17.849   6.125  0.00  0.00     0.163 HD
HETATM  182  H   UNK N   1      27.705  16.055   3.532  0.00  0.00     0.163 HD
HETATM  183  H   UNK N   1      30.242  14.383   4.546  0.00  0.00     0.163 HD
HETATM  184  H   UNK N   1      29.671  12.589   1.952  0.00  0.00     0.163 HD
HETATM  185  H   UNK N   1      32.209  10.916   2.966  0.00  0.00     0.163 HD
HETATM  186  H   UNK N   1      31.638   9.123   0.373  0.00  0.00     0.163 HD
HETATM  187  H   UNK N   1      33.603   6.723  -0.045  0.00  0.00     0.163 HD
HETATM  188  H   UNK N   1      35.919   6.223   1.999  0.00  0.00     0.163 HD
HETATM  189  H   UNK N   1      35.135   8.668   3.787  0.00  0.00     0.163 HD
HETATM  190  H   UNK N   1      32.597  10.341   2.774  0.00  0.00     0.163 HD
HETATM  191  H   UNK N   1      33.169  12.134   5.367  0.00  0.00     0.163 HD
HETATM  192  H   UNK N   1      30.631  13.807   4.353  0.00  0.00     0.163 HD
HETATM  193  H   UNK N   1      31.202  15.601   6.946  0.00  0.00     0.163 HD
HETATM  194  H   UNK N   1      28.664  17.274   5.933  0.00  0.00     0.163 HD
HETATM  195  H   UNK N   1      29.235  19.067   8.525  0.00  0.00     0.163 HD
HETATM  196  H   UNK N   1      30.499  19.409  10.312  0.00  0.00     0.217 HD
HETATM  197  H   UNK N   1      30.730  16.335   7.220  0.00  0.00     0.210 HD
HETATM  198  H   UNK N   1      33.669  14.257   8.240  0.00  0.00     0.217 HD
HETATM  199  H   UNK N   1      34.800  12.162   7.221  0.00  0.00     0.217 HD
HETATM  200  H   UNK N   1      35.611   9.345   5.058  0.00  0.00     0.210 HD
HETATM  201  H   UNK N   1      31.889   4.856  -3.997  0.00  0.00     0.210 HD
HETATM  202  H   UNK N   1      30.695   5.467  -4.666  0.00  0.00     0.210 HD
HETATM  203  H   UNK N   1      27.671   6.880  -6.508  0.00  0.00     0.210 HD
HETATM  204  H   UNK N   1      26.841   8.640  -5.518  0.00  0.00     0.210 HD
HETATM  205  H   UNK N   1      27.720   9.513  -3.583  0.00  0.00     0.210 HD
HETATM  206  H   UNK N   1      32.030   8.455   0.083  0.00  0.00     0.210 HD
HETATM  207  H   UNK N   1      29.103  10.517  -0.942  0.00  0.00     0.217 HD
HETATM  208  H   UNK N   1      25.296  17.332   2.231  0.00  0.00     0.217 HD
HETATM  209  H   UNK N   1      25.164  20.952   6.029  0.00  0.00     0.159 HD
HETATM  210  H   UNK N   1      25.357  21.986   7.372  0.00  0.00     0.159 HD
ENDROOT
BRANCH  61 211
HETATM  211  N   UNK N   1      36.153   4.251   0.111  0.00  0.00    -0.430 N 
HETATM  212  H   UNK N   1      36.539   4.005  -0.800  0.00  0.00     0.149 HD
HETATM  213  H   UNK N   1      36.439   3.735   0.942  0.00  0.00     0.149 HD
ENDBRANCH  61 211
BRANCH 137 214
HETATM  214  O   UNK N   1      32.590   4.905  -3.159  0.00  0.00    -0.398 OA
HETATM  215  H   UNK N   1      33.167   4.441  -2.533  0.00  0.00     0.209 HD
ENDBRANCH 137 214
BRANCH 147 216
HETATM  216  O   UNK N   1      28.536   6.110  -6.380  0.00  0.00    -0.398 OA
HETATM  217  H   UNK N   1      28.027   5.285  -6.350  0.00  0.00     0.209 HD
ENDBRANCH 147 216
BRANCH  94 218
HETATM  218  C   UNK N   1      31.765  16.495   8.551  0.00  0.00     0.111 C 
BRANCH 218 219
HETATM  219  N   UNK N   1      32.419  16.439   9.062  0.00  0.00    -0.430 N 
HETATM  220  H   UNK N   1      32.567  17.147   9.782  0.00  0.00     0.149 HD
HETATM  221  H   UNK N   1      33.074  15.663   8.970  0.00  0.00     0.149 HD
ENDBRANCH 218 219
ENDBRANCH  94 218
TORSDOF 13
ENDMDL
