MODEL 1
REMARK VINA RESULT:      -6.6      0.000      0.000
REMARK  4 active torsions:
REMARK  status: ('A' for Active; 'I' for Inactive)
REMARK    1  A    between atoms: O_3  and  C_17 
REMARK    2  A    between atoms: N_5  and  C_8 
REMARK       I    between atoms: N_5  and  C_15 
REMARK    3  A    between atoms: N_6  and  C_21 
REMARK    4  A    between atoms: C_15  and  C_16 
ROOT
HETATM    1  O   UNK N   1      34.792  19.001   8.280  0.00  0.00    -0.268 OA
HETATM    2  N   UNK N   1      34.630  17.019   9.224  0.00  0.00    -0.352 N 
HETATM    3  C   UNK N   1      34.258  17.900   8.249  0.00  0.00     0.254 C 
HETATM    4  H   UNK N   1      35.404  17.290   9.768  0.00  0.00     0.163 HD
ENDROOT
BRANCH   3   5
HETATM    5  C   UNK N   1      33.223  17.680   7.155  0.00  0.00     0.067 A 
HETATM    6  C   UNK N   1      31.806  17.509   7.316  0.00  0.00     0.107 A 
HETATM    7  C   UNK N   1      30.995  17.279   6.149  0.00  0.00     0.094 A 
HETATM    8 Cl   UNK N   1      29.239  17.051   6.203  0.00  0.00    -0.079 Cl
HETATM    9  C   UNK N   1      31.595  17.208   4.883  0.00  0.00     0.050 A 
HETATM   10  C   UNK N   1      32.963  17.354   4.746  0.00  0.00     0.032 A 
HETATM   11  C   UNK N   1      33.754  17.580   5.859  0.00  0.00     0.022 A 
BRANCH   6  12
HETATM   12  O   UNK N   1      31.282  17.524   8.565  0.00  0.00    -0.353 OA
HETATM   13  C   UNK N   1      30.485  18.487   9.138  0.00  0.00     0.210 C 
ENDBRANCH   6  12
BRANCH   9  14
HETATM   14  N   UNK N   1      30.815  16.967   3.732  0.00  0.00    -0.398 N 
HETATM   15  H   UNK N   1      31.083  17.338   2.860  0.00  0.00     0.156 HD
HETATM   16  H   UNK N   1      29.996  16.425   3.800  0.00  0.00     0.156 HD
ENDBRANCH   9  14
ENDBRANCH   3   5
BRANCH   2  17
HETATM   17  C   UNK N   1      34.043  15.749   9.564  0.00  0.00     0.092 C 
HETATM   18  C   UNK N   1      34.408  14.689   8.509  0.00  0.00     0.037 C 
HETATM   19  C   UNK N   1      35.910  14.386   8.580  0.00  0.00     0.279 C 
HETATM   20  C   UNK N   1      33.586  13.409   8.744  0.00  0.00     0.010 C 
HETATM   21  N   UNK N   1      36.235  13.833   9.903  0.00  0.00     0.088 N 
HETATM   22  C   UNK N   1      35.997  14.864  10.924  0.00  0.00     0.274 C 
HETATM   23  C   UNK N   1      35.466  12.617  10.246  0.00  0.00     0.272 C 
HETATM   24  C   UNK N   1      34.526  15.317  10.954  0.00  0.00     0.056 C 
HETATM   25  C   UNK N   1      34.429  12.212   9.188  0.00  0.00     0.031 C 
ENDBRANCH   2  17
TORSDOF 4
ENDMDL
MODEL 2
REMARK VINA RESULT:      -6.2      1.716      2.593
REMARK  4 active torsions:
REMARK  status: ('A' for Active; 'I' for Inactive)
REMARK    1  A    between atoms: O_3  and  C_17 
REMARK    2  A    between atoms: N_5  and  C_8 
REMARK       I    between atoms: N_5  and  C_15 
REMARK    3  A    between atoms: N_6  and  C_21 
REMARK    4  A    between atoms: C_15  and  C_16 
ROOT
HETATM    1  O   UNK N   1      34.288  18.003   6.556  0.00  0.00    -0.268 OA
HETATM    2  N   UNK N   1      34.532  16.236   7.846  0.00  0.00    -0.352 N 
HETATM    3  C   UNK N   1      33.728  17.170   7.257  0.00  0.00     0.254 C 
HETATM    4  H   UNK N   1      35.465  16.220   7.533  0.00  0.00     0.163 HD
ENDROOT
BRANCH   3   5
HETATM    5  C   UNK N   1      32.221  17.316   7.409  0.00  0.00     0.067 A 
HETATM    6  C   UNK N   1      31.205  16.867   6.499  0.00  0.00     0.107 A 
HETATM    7  C   UNK N   1      29.825  17.132   6.810  0.00  0.00     0.094 A 
HETATM    8 Cl   UNK N   1      28.472  16.636   5.778  0.00  0.00    -0.079 Cl
HETATM    9  C   UNK N   1      29.493  17.833   7.979  0.00  0.00     0.050 A 
HETATM   10  C   UNK N   1      30.483  18.277   8.835  0.00  0.00     0.032 A 
HETATM   11  C   UNK N   1      31.815  18.025   8.550  0.00  0.00     0.022 A 
BRANCH   6  12
HETATM   12  O   UNK N   1      31.579  16.249   5.353  0.00  0.00    -0.353 OA
HETATM   13  C   UNK N   1      31.740  16.803   4.105  0.00  0.00     0.210 C 
ENDBRANCH   6  12
BRANCH   9  14
HETATM   14  N   UNK N   1      28.145  18.114   8.290  0.00  0.00    -0.398 N 
HETATM   15  H   UNK N   1      27.752  17.800   9.136  0.00  0.00     0.156 HD
HETATM   16  H   UNK N   1      27.593  18.626   7.656  0.00  0.00     0.156 HD
ENDBRANCH   9  14
ENDBRANCH   3   5
BRANCH   2  17
HETATM   17  C   UNK N   1      34.199  15.273   8.864  0.00  0.00     0.092 C 
HETATM   18  C   UNK N   1      35.022  13.986   8.675  0.00  0.00     0.037 C 
HETATM   19  C   UNK N   1      36.501  14.271   8.964  0.00  0.00     0.279 C 
HETATM   20  C   UNK N   1      34.491  12.881   9.606  0.00  0.00     0.010 C 
HETATM   21  N   UNK N   1      36.651  14.698  10.363  0.00  0.00     0.088 N 
HETATM   22  C   UNK N   1      35.964  15.984  10.546  0.00  0.00     0.274 C 
HETATM   23  C   UNK N   1      36.132  13.720  11.343  0.00  0.00     0.272 C 
HETATM   24  C   UNK N   1      34.457  15.880  10.248  0.00  0.00     0.056 C 
HETATM   25  C   UNK N   1      35.474  12.486  10.710  0.00  0.00     0.031 C 
ENDBRANCH   2  17
TORSDOF 4
ENDMDL
MODEL 3
REMARK VINA RESULT:      -6.0     13.627     16.059
REMARK  4 active torsions:
REMARK  status: ('A' for Active; 'I' for Inactive)
REMARK    1  A    between atoms: O_3  and  C_17 
REMARK    2  A    between atoms: N_5  and  C_8 
REMARK       I    between atoms: N_5  and  C_15 
REMARK    3  A    between atoms: N_6  and  C_21 
REMARK    4  A    between atoms: C_15  and  C_16 
ROOT
HETATM    1  O   UNK N   1      30.422  23.187  -1.484  0.00  0.00    -0.268 OA
HETATM    2  N   UNK N   1      28.796  23.645  -2.895  0.00  0.00    -0.352 N 
HETATM    3  C   UNK N   1      30.004  23.066  -2.628  0.00  0.00     0.254 C 
HETATM    4  H   UNK N   1      28.299  23.971  -2.110  0.00  0.00     0.163 HD
ENDROOT
BRANCH   3   5
HETATM    5  C   UNK N   1      30.906  22.325  -3.604  0.00  0.00     0.067 A 
HETATM    6  C   UNK N   1      32.026  22.854  -4.331  0.00  0.00     0.107 A 
HETATM    7  C   UNK N   1      32.738  21.992  -5.238  0.00  0.00     0.094 A 
HETATM    8 Cl   UNK N   1      34.134  22.513  -6.196  0.00  0.00    -0.079 Cl
HETATM    9  C   UNK N   1      32.322  20.664  -5.413  0.00  0.00     0.050 A 
HETATM   10  C   UNK N   1      31.229  20.174  -4.721  0.00  0.00     0.032 A 
HETATM   11  C   UNK N   1      30.538  20.991  -3.842  0.00  0.00     0.022 A 
BRANCH   6  12
HETATM   12  O   UNK N   1      32.350  24.160  -4.175  0.00  0.00    -0.353 OA
HETATM   13  C   UNK N   1      32.340  25.154  -5.124  0.00  0.00     0.210 C 
ENDBRANCH   6  12
BRANCH   9  14
HETATM   14  N   UNK N   1      33.000  19.811  -6.310  0.00  0.00    -0.398 N 
HETATM   15  H   UNK N   1      33.978  19.710  -6.261  0.00  0.00     0.156 HD
HETATM   16  H   UNK N   1      32.492  19.315  -6.992  0.00  0.00     0.156 HD
ENDBRANCH   9  14
ENDBRANCH   3   5
BRANCH   2  17
HETATM   17  C   UNK N   1      28.152  23.842  -4.168  0.00  0.00     0.092 C 
HETATM   18  C   UNK N   1      26.683  24.255  -3.969  0.00  0.00     0.037 C 
HETATM   19  C   UNK N   1      26.620  25.656  -3.348  0.00  0.00     0.279 C 
HETATM   20  C   UNK N   1      25.941  24.226  -5.317  0.00  0.00     0.010 C 
HETATM   21  N   UNK N   1      27.238  26.625  -4.266  0.00  0.00     0.088 N 
HETATM   22  C   UNK N   1      28.670  26.319  -4.391  0.00  0.00     0.274 C 
HETATM   23  C   UNK N   1      26.622  26.648  -5.610  0.00  0.00     0.272 C 
HETATM   24  C   UNK N   1      28.910  24.910  -4.965  0.00  0.00     0.056 C 
HETATM   25  C   UNK N   1      25.509  25.609  -5.808  0.00  0.00     0.031 C 
ENDBRANCH   2  17
TORSDOF 4
ENDMDL
MODEL 4
REMARK VINA RESULT:      -6.0      8.504     11.124
REMARK  4 active torsions:
REMARK  status: ('A' for Active; 'I' for Inactive)
REMARK    1  A    between atoms: O_3  and  C_17 
REMARK    2  A    between atoms: N_5  and  C_8 
REMARK       I    between atoms: N_5  and  C_15 
REMARK    3  A    between atoms: N_6  and  C_21 
REMARK    4  A    between atoms: C_15  and  C_16 
ROOT
HETATM    1  O   UNK N   1      21.905  18.398   6.508  0.00  0.00    -0.268 OA
HETATM    2  N   UNK N   1      23.711  17.400   5.745  0.00  0.00    -0.352 N 
HETATM    3  C   UNK N   1      22.466  17.917   5.532  0.00  0.00     0.254 C 
HETATM    4  H   UNK N   1      24.109  17.598   6.623  0.00  0.00     0.163 HD
ENDROOT
BRANCH   3   5
HETATM    5  C   UNK N   1      21.681  17.924   4.228  0.00  0.00     0.067 A 
HETATM    6  C   UNK N   1      21.625  18.973   3.249  0.00  0.00     0.107 A 
HETATM    7  C   UNK N   1      20.792  18.799   2.088  0.00  0.00     0.094 A 
HETATM    8 Cl   UNK N   1      20.630  20.009   0.804  0.00  0.00    -0.079 Cl
HETATM    9  C   UNK N   1      20.038  17.626   1.938  0.00  0.00     0.050 A 
HETATM   10  C   UNK N   1      20.086  16.633   2.899  0.00  0.00     0.032 A 
HETATM   11  C   UNK N   1      20.887  16.785   4.018  0.00  0.00     0.022 A 
BRANCH   6  12
HETATM   12  O   UNK N   1      22.324  20.113   3.470  0.00  0.00    -0.353 OA
HETATM   13  C   UNK N   1      23.566  20.452   2.988  0.00  0.00     0.210 C 
ENDBRANCH   6  12
BRANCH   9  14
HETATM   14  N   UNK N   1      19.205  17.447   0.813  0.00  0.00    -0.398 N 
HETATM   15  H   UNK N   1      18.663  16.631   0.717  0.00  0.00     0.156 HD
HETATM   16  H   UNK N   1      19.166  18.143   0.117  0.00  0.00     0.156 HD
ENDBRANCH   9  14
ENDBRANCH   3   5
BRANCH   2  17
HETATM   17  C   UNK N   1      24.521  16.604   4.858  0.00  0.00     0.092 C 
HETATM   18  C   UNK N   1      25.623  17.465   4.218  0.00  0.00     0.037 C 
HETATM   19  C   UNK N   1      26.634  17.892   5.289  0.00  0.00     0.279 C 
HETATM   20  C   UNK N   1      26.324  16.675   3.098  0.00  0.00     0.010 C 
HETATM   21  N   UNK N   1      27.272  16.697   5.861  0.00  0.00     0.088 N 
HETATM   22  C   UNK N   1      26.259  15.907   6.575  0.00  0.00     0.274 C 
HETATM   23  C   UNK N   1      27.944  15.843   4.858  0.00  0.00     0.272 C 
HETATM   24  C   UNK N   1      25.133  15.433   5.637  0.00  0.00     0.056 C 
HETATM   25  C   UNK N   1      27.781  16.329   3.411  0.00  0.00     0.031 C 
ENDBRANCH   2  17
TORSDOF 4
ENDMDL
MODEL 5
REMARK VINA RESULT:      -6.0     13.390     17.345
REMARK  4 active torsions:
REMARK  status: ('A' for Active; 'I' for Inactive)
REMARK    1  A    between atoms: O_3  and  C_17 
REMARK    2  A    between atoms: N_5  and  C_8 
REMARK       I    between atoms: N_5  and  C_15 
REMARK    3  A    between atoms: N_6  and  C_21 
REMARK    4  A    between atoms: C_15  and  C_16 
ROOT
HETATM    1  O   UNK N   1      26.384  23.979  -3.004  0.00  0.00    -0.268 OA
HETATM    2  N   UNK N   1      27.076  25.585  -4.340  0.00  0.00    -0.352 N 
HETATM    3  C   UNK N   1      27.312  24.419  -3.669  0.00  0.00     0.254 C 
HETATM    4  H   UNK N   1      26.139  25.883  -4.356  0.00  0.00     0.163 HD
ENDROOT
BRANCH   3   5
HETATM    5  C   UNK N   1      28.613  23.630  -3.622  0.00  0.00     0.067 A 
HETATM    6  C   UNK N   1      29.354  23.102  -4.732  0.00  0.00     0.107 A 
HETATM    7  C   UNK N   1      30.554  22.350  -4.475  0.00  0.00     0.094 A 
HETATM    8 Cl   UNK N   1      31.563  21.643  -5.749  0.00  0.00    -0.079 Cl
HETATM    9  C   UNK N   1      30.971  22.129  -3.154  0.00  0.00     0.050 A 
HETATM   10  C   UNK N   1      30.236  22.627  -2.094  0.00  0.00     0.032 A 
HETATM   11  C   UNK N   1      29.083  23.355  -2.327  0.00  0.00     0.022 A 
BRANCH   6  12
HETATM   12  O   UNK N   1      28.876  23.289  -5.986  0.00  0.00    -0.353 OA
HETATM   13  C   UNK N   1      28.095  22.437  -6.731  0.00  0.00     0.210 C 
ENDBRANCH   6  12
BRANCH   9  14
HETATM   14  N   UNK N   1      32.137  21.380  -2.885  0.00  0.00    -0.398 N 
HETATM   15  H   UNK N   1      33.024  21.736  -3.121  0.00  0.00     0.156 HD
HETATM   16  H   UNK N   1      32.063  20.496  -2.459  0.00  0.00     0.156 HD
ENDBRANCH   9  14
ENDBRANCH   3   5
BRANCH   2  17
HETATM   17  C   UNK N   1      28.013  26.435  -5.028  0.00  0.00     0.092 C 
HETATM   18  C   UNK N   1      27.278  27.354  -6.020  0.00  0.00     0.037 C 
HETATM   19  C   UNK N   1      26.421  28.365  -5.250  0.00  0.00     0.279 C 
HETATM   20  C   UNK N   1      28.296  28.079  -6.919  0.00  0.00     0.010 C 
HETATM   21  N   UNK N   1      27.292  29.209  -4.418  0.00  0.00     0.088 N 
HETATM   22  C   UNK N   1      27.927  28.373  -3.389  0.00  0.00     0.274 C 
HETATM   23  C   UNK N   1      28.337  29.923  -5.183  0.00  0.00     0.272 C 
HETATM   24  C   UNK N   1      28.799  27.264  -4.005  0.00  0.00     0.056 C 
HETATM   25  C   UNK N   1      28.355  29.589  -6.682  0.00  0.00     0.031 C 
ENDBRANCH   2  17
TORSDOF 4
ENDMDL
MODEL 6
REMARK VINA RESULT:      -5.9      3.813      5.854
REMARK  4 active torsions:
REMARK  status: ('A' for Active; 'I' for Inactive)
REMARK    1  A    between atoms: O_3  and  C_17 
REMARK    2  A    between atoms: N_5  and  C_8 
REMARK       I    between atoms: N_5  and  C_15 
REMARK    3  A    between atoms: N_6  and  C_21 
REMARK    4  A    between atoms: C_15  and  C_16 
ROOT
HETATM    1  O   UNK N   1      38.291  13.454  10.582  0.00  0.00    -0.268 OA
HETATM    2  N   UNK N   1      36.861  12.524  11.973  0.00  0.00    -0.352 N 
HETATM    3  C   UNK N   1      37.139  13.435  10.995  0.00  0.00     0.254 C 
HETATM    4  H   UNK N   1      37.567  11.861  12.149  0.00  0.00     0.163 HD
ENDROOT
BRANCH   3   5
HETATM    5  C   UNK N   1      36.187  14.458  10.391  0.00  0.00     0.067 A 
HETATM    6  C   UNK N   1      35.408  14.324   9.193  0.00  0.00     0.107 A 
HETATM    7  C   UNK N   1      34.586  15.427   8.769  0.00  0.00     0.094 A 
HETATM    8 Cl   UNK N   1      33.576  15.398   7.313  0.00  0.00    -0.079 Cl
HETATM    9  C   UNK N   1      34.569  16.615   9.515  0.00  0.00     0.050 A 
HETATM   10  C   UNK N   1      35.340  16.737  10.656  0.00  0.00     0.032 A 
HETATM   11  C   UNK N   1      36.132  15.682  11.078  0.00  0.00     0.022 A 
BRANCH   6  12
HETATM   12  O   UNK N   1      35.505  13.180   8.473  0.00  0.00    -0.353 OA
HETATM   13  C   UNK N   1      34.699  12.069   8.536  0.00  0.00     0.210 C 
ENDBRANCH   6  12
BRANCH   9  14
HETATM   14  N   UNK N   1      33.780  17.710   9.104  0.00  0.00    -0.398 N 
HETATM   15  H   UNK N   1      34.181  18.451   8.593  0.00  0.00     0.156 HD
HETATM   16  H   UNK N   1      32.822  17.735   9.330  0.00  0.00     0.156 HD
ENDBRANCH   9  14
ENDBRANCH   3   5
BRANCH   2  17
HETATM   17  C   UNK N   1      35.676  12.402  12.782  0.00  0.00     0.092 C 
HETATM   18  C   UNK N   1      35.484  10.945  13.238  0.00  0.00     0.037 C 
HETATM   19  C   UNK N   1      36.594  10.561  14.223  0.00  0.00     0.279 C 
HETATM   20  C   UNK N   1      34.099  10.775  13.889  0.00  0.00     0.010 C 
HETATM   21  N   UNK N   1      36.507  11.418  15.414  0.00  0.00     0.088 N 
HETATM   22  C   UNK N   1      36.794  12.807  15.026  0.00  0.00     0.274 C 
HETATM   23  C   UNK N   1      35.196  11.360  16.096  0.00  0.00     0.272 C 
HETATM   24  C   UNK N   1      35.783  13.337  13.993  0.00  0.00     0.056 C 
HETATM   25  C   UNK N   1      34.160  10.475  15.388  0.00  0.00     0.031 C 
ENDBRANCH   2  17
TORSDOF 4
ENDMDL
MODEL 7
REMARK VINA RESULT:      -5.8     13.827     16.849
REMARK  4 active torsions:
REMARK  status: ('A' for Active; 'I' for Inactive)
REMARK    1  A    between atoms: O_3  and  C_17 
REMARK    2  A    between atoms: N_5  and  C_8 
REMARK       I    between atoms: N_5  and  C_15 
REMARK    3  A    between atoms: N_6  and  C_21 
REMARK    4  A    between atoms: C_15  and  C_16 
ROOT
HETATM    1  O   UNK N   1      31.188  27.339  -2.563  0.00  0.00    -0.268 OA
HETATM    2  N   UNK N   1      29.349  27.192  -3.764  0.00  0.00    -0.352 N 
HETATM    3  C   UNK N   1      30.543  26.668  -3.357  0.00  0.00     0.254 C 
HETATM    4  H   UNK N   1      29.042  27.984  -3.267  0.00  0.00     0.163 HD
ENDROOT
BRANCH   3   5
HETATM    5  C   UNK N   1      31.180  25.363  -3.815  0.00  0.00     0.067 A 
HETATM    6  C   UNK N   1      30.934  24.045  -3.302  0.00  0.00     0.107 A 
HETATM    7  C   UNK N   1      31.667  22.935  -3.851  0.00  0.00     0.094 A 
HETATM    8 Cl   UNK N   1      31.463  21.260  -3.312  0.00  0.00    -0.079 Cl
HETATM    9  C   UNK N   1      32.617  23.155  -4.860  0.00  0.00     0.050 A 
HETATM   10  C   UNK N   1      32.858  24.433  -5.330  0.00  0.00     0.032 A 
HETATM   11  C   UNK N   1      32.157  25.509  -4.813  0.00  0.00     0.022 A 
BRANCH   6  12
HETATM   12  O   UNK N   1      30.051  23.893  -2.285  0.00  0.00    -0.353 OA
HETATM   13  C   UNK N   1      28.871  23.188  -2.287  0.00  0.00     0.210 C 
ENDBRANCH   6  12
BRANCH   9  14
HETATM   14  N   UNK N   1      33.355  22.079  -5.397  0.00  0.00    -0.398 N 
HETATM   15  H   UNK N   1      33.586  22.060  -6.354  0.00  0.00     0.156 HD
HETATM   16  H   UNK N   1      33.641  21.340  -4.812  0.00  0.00     0.156 HD
ENDBRANCH   9  14
ENDBRANCH   3   5
BRANCH   2  17
HETATM   17  C   UNK N   1      28.481  26.744  -4.822  0.00  0.00     0.092 C 
HETATM   18  C   UNK N   1      27.317  25.917  -4.247  0.00  0.00     0.037 C 
HETATM   19  C   UNK N   1      26.393  26.825  -3.427  0.00  0.00     0.279 C 
HETATM   20  C   UNK N   1      26.537  25.242  -5.390  0.00  0.00     0.010 C 
HETATM   21  N   UNK N   1      25.820  27.858  -4.303  0.00  0.00     0.088 N 
HETATM   22  C   UNK N   1      26.900  28.732  -4.782  0.00  0.00     0.274 C 
HETATM   23  C   UNK N   1      25.080  27.312  -5.461  0.00  0.00     0.272 C 
HETATM   24  C   UNK N   1      27.951  27.956  -5.598  0.00  0.00     0.056 C 
HETATM   25  C   UNK N   1      25.115  25.781  -5.563  0.00  0.00     0.031 C 
ENDBRANCH   2  17
TORSDOF 4
ENDMDL
MODEL 8
REMARK VINA RESULT:      -5.7     11.150     13.694
REMARK  4 active torsions:
REMARK  status: ('A' for Active; 'I' for Inactive)
REMARK    1  A    between atoms: O_3  and  C_17 
REMARK    2  A    between atoms: N_5  and  C_8 
REMARK       I    between atoms: N_5  and  C_15 
REMARK    3  A    between atoms: N_6  and  C_21 
REMARK    4  A    between atoms: C_15  and  C_16 
ROOT
HETATM    1  O   UNK N   1      37.009  10.809  21.012  0.00  0.00    -0.268 OA
HETATM    2  N   UNK N   1      35.000  10.022  21.447  0.00  0.00    -0.352 N 
HETATM    3  C   UNK N   1      35.874  10.630  20.591  0.00  0.00     0.254 C 
HETATM    4  H   UNK N   1      35.400   9.643  22.263  0.00  0.00     0.163 HD
ENDROOT
BRANCH   3   5
HETATM    5  C   UNK N   1      35.581  11.147  19.190  0.00  0.00     0.067 A 
HETATM    6  C   UNK N   1      35.568  10.395  17.967  0.00  0.00     0.107 A 
HETATM    7  C   UNK N   1      35.298  11.081  16.731  0.00  0.00     0.094 A 
HETATM    8 Cl   UNK N   1      35.251  10.277  15.152  0.00  0.00    -0.079 Cl
HETATM    9  C   UNK N   1      35.069  12.464  16.733  0.00  0.00     0.050 A 
HETATM   10  C   UNK N   1      35.105  13.179  17.916  0.00  0.00     0.032 A 
HETATM   11  C   UNK N   1      35.360  12.532  19.114  0.00  0.00     0.022 A 
BRANCH   6  12
HETATM   12  O   UNK N   1      35.855   9.072  18.009  0.00  0.00    -0.353 OA
HETATM   13  C   UNK N   1      37.069   8.462  17.796  0.00  0.00     0.210 C 
ENDBRANCH   6  12
BRANCH   9  14
HETATM   14  N   UNK N   1      34.818  13.153  15.527  0.00  0.00    -0.398 N 
HETATM   15  H   UNK N   1      35.147  12.796  14.670  0.00  0.00     0.156 HD
HETATM   16  H   UNK N   1      34.311  13.997  15.542  0.00  0.00     0.156 HD
ENDBRANCH   9  14
ENDBRANCH   3   5
BRANCH   2  17
HETATM   17  C   UNK N   1      33.575   9.860  21.318  0.00  0.00     0.092 C 
HETATM   18  C   UNK N   1      33.250   8.721  20.336  0.00  0.00     0.037 C 
HETATM   19  C   UNK N   1      33.679   7.378  20.941  0.00  0.00     0.279 C 
HETATM   20  C   UNK N   1      31.745   8.715  20.017  0.00  0.00     0.010 C 
HETATM   21  N   UNK N   1      32.920   7.136  22.177  0.00  0.00     0.088 N 
HETATM   22  C   UNK N   1      33.292   8.149  23.174  0.00  0.00     0.274 C 
HETATM   23  C   UNK N   1      31.453   7.150  21.987  0.00  0.00     0.272 C 
HETATM   24  C   UNK N   1      32.965   9.576  22.696  0.00  0.00     0.056 C 
HETATM   25  C   UNK N   1      31.009   7.486  20.556  0.00  0.00     0.031 C 
ENDBRANCH   2  17
TORSDOF 4
ENDMDL
MODEL 9
REMARK VINA RESULT:      -5.7      8.539     11.539
REMARK  4 active torsions:
REMARK  status: ('A' for Active; 'I' for Inactive)
REMARK    1  A    between atoms: O_3  and  C_17 
REMARK    2  A    between atoms: N_5  and  C_8 
REMARK       I    between atoms: N_5  and  C_15 
REMARK    3  A    between atoms: N_6  and  C_21 
REMARK    4  A    between atoms: C_15  and  C_16 
ROOT
HETATM    1  O   UNK N   1      23.104  14.954   5.130  0.00  0.00    -0.268 OA
HETATM    2  N   UNK N   1      24.631  16.383   4.447  0.00  0.00    -0.352 N 
HETATM    3  C   UNK N   1      23.358  15.894   4.388  0.00  0.00     0.254 C 
HETATM    4  H   UNK N   1      25.183  16.043   5.187  0.00  0.00     0.163 HD
ENDROOT
BRANCH   3   5
HETATM    5  C   UNK N   1      22.234  16.357   3.473  0.00  0.00     0.067 A 
HETATM    6  C   UNK N   1      21.443  17.549   3.597  0.00  0.00     0.107 A 
HETATM    7  C   UNK N   1      20.397  17.795   2.639  0.00  0.00     0.094 A 
HETATM    8 Cl   UNK N   1      19.348  19.222   2.674  0.00  0.00    -0.079 Cl
HETATM    9  C   UNK N   1      20.154  16.867   1.616  0.00  0.00     0.050 A 
HETATM   10  C   UNK N   1      20.910  15.713   1.521  0.00  0.00     0.032 A 
HETATM   11  C   UNK N   1      21.922  15.467   2.433  0.00  0.00     0.022 A 
BRANCH   6  12
HETATM   12  O   UNK N   1      21.676  18.384   4.639  0.00  0.00    -0.353 OA
HETATM   13  C   UNK N   1      21.279  18.237   5.946  0.00  0.00     0.210 C 
ENDBRANCH   6  12
BRANCH   9  14
HETATM   14  N   UNK N   1      19.122  17.086   0.678  0.00  0.00    -0.398 N 
HETATM   15  H   UNK N   1      19.203  17.797   0.003  0.00  0.00     0.156 HD
HETATM   16  H   UNK N   1      18.313  16.524   0.700  0.00  0.00     0.156 HD
ENDBRANCH   9  14
ENDBRANCH   3   5
BRANCH   2  17
HETATM   17  C   UNK N   1      25.275  17.330   3.573  0.00  0.00     0.092 C 
HETATM   18  C   UNK N   1      24.956  18.770   4.011  0.00  0.00     0.037 C 
HETATM   19  C   UNK N   1      25.625  19.061   5.359  0.00  0.00     0.279 C 
HETATM   20  C   UNK N   1      25.439  19.765   2.940  0.00  0.00     0.010 C 
HETATM   21  N   UNK N   1      27.084  18.949   5.214  0.00  0.00     0.088 N 
HETATM   22  C   UNK N   1      27.429  17.555   4.901  0.00  0.00     0.274 C 
HETATM   23  C   UNK N   1      27.649  19.839   4.176  0.00  0.00     0.272 C 
HETATM   24  C   UNK N   1      26.790  17.086   3.581  0.00  0.00     0.056 C 
HETATM   25  C   UNK N   1      26.597  20.650   3.405  0.00  0.00     0.031 C 
ENDBRANCH   2  17
TORSDOF 4
ENDMDL
