REMARK  17 active torsions:
REMARK  status: ('A' for Active; 'I' for Inactive)
REMARK    1  A    between atoms: N_22  and  N_1 
REMARK    2  A    between atoms: C_5  and  N_2 
REMARK    3  A    between atoms: C_6  and  C_9 
REMARK    4  A    between atoms: C_10  and  C_7 
REMARK    5  A    between atoms: C_12  and  C_8 
REMARK    6  A    between atoms: C_13  and  O_30 
REMARK    7  A    between atoms: C_17  and  O_31 
REMARK    8  A    between atoms: C_20  and  O_34 
REMARK    9  A    between atoms: C_21  and  C_37 
REMARK   10  A    between atoms: C_29  and  N_22 
REMARK   11  A    between atoms: C_43  and  C_29 
REMARK   12  A    between atoms: C_44  and  C_29 
REMARK   13  A    between atoms: O_39  and  C_32 
REMARK   14  A    between atoms: O_38  and  C_33 
REMARK   15  A    between atoms: O_40  and  C_37 
REMARK   16  A    between atoms: O_41  and  C_43 
REMARK   17  A    between atoms: O_42  and  C_44 
ROOT
HETATM    1  N   UNK N   1      -1.883  -1.801  -0.161  0.00  0.00    -0.313 N 
HETATM    2  C   UNK N   1      -0.822  -0.924  -0.122  0.00  0.00     0.077 A 
HETATM    3  C   UNK N   1      -1.299   0.394  -0.218  0.00  0.00     0.022 A 
HETATM    4  C   UNK N   1      -2.990  -1.014  -0.245  0.00  0.00     0.051 A 
HETATM    5  C   UNK N   1      -2.665   0.320  -0.276  0.00  0.00     0.005 A 
HETATM    6  C   UNK N   1      -4.323  -1.433  -0.308  0.00  0.00     0.067 A 
HETATM    7  C   UNK N   1      -3.639   1.312  -0.369  0.00  0.00     0.017 A 
HETATM    8  C   UNK N   1      -5.327  -0.455  -0.391  0.00  0.00     0.067 A 
HETATM    9  C   UNK N   1      -4.986   0.913  -0.420  0.00  0.00     0.037 A 
ENDROOT
BRANCH   1  10
HETATM   10  C   UNK N   1      -2.034  -3.274  -0.174  0.00  0.00     0.260 C 
HETATM   11  C   UNK N   1      -0.808  -4.201  -0.222  0.00  0.00     0.198 C 
HETATM   12  C   UNK N   1      -1.309  -5.659  -0.338  0.00  0.00     0.182 C 
HETATM   13  C   UNK N   1      -2.528  -5.984   0.534  0.00  0.00     0.180 C 
HETATM   14  C   UNK N   1      -3.516  -4.840   0.347  0.00  0.00     0.179 C 
HETATM   15  O   UNK N   1      -2.909  -3.680   0.846  0.00  0.00    -0.353 OA
BRANCH  11  16
HETATM   16  O   UNK N   1      -0.072  -3.939  -1.378  0.00  0.00    -0.388 OA
HETATM   17  H   UNK N   1       0.342  -4.291  -2.182  0.00  0.00     0.210 HD
ENDBRANCH  11  16
BRANCH  12  18
HETATM   18  O   UNK N   1      -0.273  -6.561  -0.093  0.00  0.00    -0.390 OA
HETATM   19  H   UNK N   1      -0.456  -7.498   0.078  0.00  0.00     0.210 HD
ENDBRANCH  12  18
BRANCH  13  20
HETATM   20  O   UNK N   1      -3.092  -7.188   0.104  0.00  0.00    -0.390 OA
HETATM   21  H   UNK N   1      -4.012  -7.266  -0.196  0.00  0.00     0.210 HD
ENDBRANCH  13  20
BRANCH  14  22
HETATM   22  C   UNK N   1      -4.855  -5.078   1.022  0.00  0.00     0.198 C 
BRANCH  22  23
HETATM   23  O   UNK N   1      -5.782  -4.143   0.557  0.00  0.00    -0.398 OA
HETATM   24  H   UNK N   1      -5.541  -3.260   0.234  0.00  0.00     0.209 HD
ENDBRANCH  22  23
ENDBRANCH  14  22
ENDBRANCH   1  10
BRANCH   2  25
HETATM   25  C   UNK N   1       0.585  -1.119  -0.036  0.00  0.00     0.073 A 
HETATM   26  C   UNK N   1       1.451  -0.021  -0.097  0.00  0.00     0.022 A 
HETATM   27  C   UNK N   1       2.723  -0.527  -0.032  0.00  0.00     0.004 A 
HETATM   28  C   UNK N   1       2.591  -1.893   0.075  0.00  0.00     0.046 A 
HETATM   29  C   UNK N   1       3.971   0.090  -0.068  0.00  0.00     0.017 A 
HETATM   30  C   UNK N   1       3.702  -2.729   0.145  0.00  0.00     0.066 A 
HETATM   31  N   UNK N   1       1.289  -2.269   0.080  0.00  0.00    -0.353 N 
HETATM   32  C   UNK N   1       4.979  -2.133   0.105  0.00  0.00     0.067 A 
HETATM   33  C   UNK N   1       5.110  -0.730   0.001  0.00  0.00     0.037 A 
HETATM   34  H   UNK N   1       0.931  -3.183   0.153  0.00  0.00     0.166 HD
BRANCH  26  35
HETATM   35  C   UNK N   1       0.950   1.282  -0.233  0.00  0.00     0.064 A 
HETATM   36  C   UNK N   1       1.549   2.525  -0.390  0.00  0.00     0.281 A 
HETATM   37  N   UNK N   1       0.588   3.482  -0.535  0.00  0.00    -0.186 N 
HETATM   38  O   UNK N   1       2.745   2.735  -0.455  0.00  0.00    -0.265 OA
HETATM   39  C   UNK N   1      -0.615   2.851  -0.457  0.00  0.00     0.281 A 
HETATM   40  C   UNK N   1      -0.419   1.488  -0.281  0.00  0.00     0.064 A 
HETATM   41  O   UNK N   1      -1.687   3.412  -0.585  0.00  0.00    -0.265 OA
BRANCH  37  42
HETATM   42  N   UNK N   1       0.769   4.840  -0.876  0.00  0.00    -0.315 N 
HETATM   43  H   UNK N   1       0.524   5.228  -1.747  0.00  0.00     0.181 HD
BRANCH  42  44
HETATM   44  C   UNK N   1       1.360   5.596   0.219  0.00  0.00     0.147 C 
BRANCH  44  45
HETATM   45  C   UNK N   1       0.660   6.949   0.258  0.00  0.00     0.193 C 
BRANCH  45  46
HETATM   46  O   UNK N   1       1.221   7.774   1.235  0.00  0.00    -0.399 OA
HETATM   47  H   UNK N   1       1.912   7.724   1.913  0.00  0.00     0.209 HD
ENDBRANCH  45  46
ENDBRANCH  44  45
BRANCH  44  48
HETATM   48  C   UNK N   1       2.833   5.832  -0.085  0.00  0.00     0.193 C 
BRANCH  48  49
HETATM   49  O   UNK N   1       3.625   5.052   0.756  0.00  0.00    -0.399 OA
HETATM   50  H   UNK N   1       3.430   4.303   1.341  0.00  0.00     0.209 HD
ENDBRANCH  48  49
ENDBRANCH  44  48
ENDBRANCH  42  44
ENDBRANCH  37  42
BRANCH  40  51
ENDBRANCH  40  51
ENDBRANCH  26  35
BRANCH  32  51
HETATM   51  O   UNK N   1       6.078  -2.903   0.161  0.00  0.00    -0.361 OA
HETATM   52  H   UNK N   1       5.997  -3.835   0.201  0.00  0.00     0.217 HD
ENDBRANCH  32  51
ENDBRANCH   2  25
BRANCH   8  53
HETATM   53  O   UNK N   1      -6.616  -0.826  -0.442  0.00  0.00    -0.361 OA
HETATM   54  H   UNK N   1      -7.290  -0.176  -0.477  0.00  0.00     0.217 HD
ENDBRANCH   8  53
TORSDOF 17
