MODEL 1
REMARK VINA RESULT:      -6.3      0.000      0.000
REMARK  3 active torsions:
REMARK  status: ('A' for Active; 'I' for Inactive)
REMARK    1  A    between atoms: O_3  and  N_5 
REMARK    2  A    between atoms: C_9  and  C_16 
REMARK    3  A    between atoms: C_10  and  C_14 
ROOT
HETATM    1  N   UNK N   1      21.156  16.975   5.653  0.00  0.00     0.094 N 
HETATM    2  C   UNK N   1      19.905  16.343   6.091  0.00  0.00     0.232 C 
HETATM    3  C   UNK N   1      21.937  15.813   5.229  0.00  0.00     0.223 C 
HETATM    4  C   UNK N   1      20.149  15.706   7.483  0.00  0.00     0.068 C 
HETATM    5  C   UNK N   1      21.264  14.623   7.362  0.00  0.00     0.032 C 
HETATM    6  C   UNK N   1      22.447  15.102   6.500  0.00  0.00     0.046 C 
HETATM    7  C   UNK N   1      19.594  15.264   5.049  0.00  0.00     0.038 C 
HETATM    8  C   UNK N   1      20.962  14.907   4.469  0.00  0.00     0.038 C 
HETATM    9  C   UNK N   1      20.909  17.869   4.519  0.00  0.00     0.310 C 
ENDROOT
BRANCH   5  10
HETATM   10  C   UNK N   1      21.711  13.897   8.608  0.00  0.00    -0.051 A 
HETATM   11  C   UNK N   1      20.793  13.374   9.530  0.00  0.00     0.033 A 
HETATM   12  C   UNK N   1      21.236  12.698  10.671  0.00  0.00     0.056 A 
HETATM   13 Cl   UNK N   1      20.047  12.072  11.801  0.00  0.00    -0.083 Cl
HETATM   14  C   UNK N   1      22.614  12.534  10.896  0.00  0.00     0.055 A 
HETATM   15 Cl   UNK N   1      23.214  11.689  12.315  0.00  0.00    -0.083 Cl
HETATM   16  C   UNK N   1      23.531  13.049   9.977  0.00  0.00     0.026 A 
HETATM   17  C   UNK N   1      23.083  13.727   8.840  0.00  0.00     0.009 A 
ENDBRANCH   5  10
BRANCH   4  18
HETATM   18  C   UNK N   1      20.497  16.827   8.428  0.00  0.00     0.094 C 
HETATM   19  N   UNK N   1      19.649  17.761   8.657  0.00  0.00    -0.282 N 
ATOM     20  HN  UNK N   1      18.724  17.724   8.230  1.00  0.00     0.193 HD
BRANCH  19  21
HETATM   21  O   UNK N   1      19.971  18.768   9.440  0.00  0.00    -0.286 OA
HETATM   22  C   UNK N   1      19.089  19.198  10.395  0.00  0.00     0.237 C 
ENDBRANCH  19  21
ENDBRANCH   4  18
TORSDOF 3
ENDMDL
MODEL 2
REMARK VINA RESULT:      -6.2      1.516      1.845
REMARK  3 active torsions:
REMARK  status: ('A' for Active; 'I' for Inactive)
REMARK    1  A    between atoms: O_3  and  N_5 
REMARK    2  A    between atoms: C_9  and  C_16 
REMARK    3  A    between atoms: C_10  and  C_14 
ROOT
HETATM    1  N   UNK N   1      22.586  15.055   4.921  0.00  0.00     0.094 N 
HETATM    2  C   UNK N   1      21.266  14.509   5.263  0.00  0.00     0.232 C 
HETATM    3  C   UNK N   1      23.423  13.856   4.983  0.00  0.00     0.223 C 
HETATM    4  C   UNK N   1      21.225  14.275   6.795  0.00  0.00     0.068 C 
HETATM    5  C   UNK N   1      22.329  13.248   7.186  0.00  0.00     0.032 C 
HETATM    6  C   UNK N   1      23.665  13.530   6.472  0.00  0.00     0.046 C 
HETATM    7  C   UNK N   1      21.155  13.180   4.509  0.00  0.00     0.038 C 
HETATM    8  C   UNK N   1      22.607  12.741   4.321  0.00  0.00     0.038 C 
HETATM    9  C   UNK N   1      22.577  15.605   3.563  0.00  0.00     0.310 C 
ENDROOT
BRANCH   5  10
HETATM   10  C   UNK N   1      22.514  12.897   8.644  0.00  0.00    -0.051 A 
HETATM   11  C   UNK N   1      21.424  12.654   9.491  0.00  0.00     0.033 A 
HETATM   12  C   UNK N   1      21.625  12.323  10.835  0.00  0.00     0.056 A 
HETATM   13 Cl   UNK N   1      20.227  12.040  11.856  0.00  0.00    -0.083 Cl
HETATM   14  C   UNK N   1      22.932  12.227  11.342  0.00  0.00     0.055 A 
HETATM   15 Cl   UNK N   1      23.231  11.811  13.023  0.00  0.00    -0.083 Cl
HETATM   16  C   UNK N   1      24.021  12.463  10.500  0.00  0.00     0.026 A 
HETATM   17  C   UNK N   1      23.814  12.797   9.159  0.00  0.00     0.009 A 
ENDBRANCH   5  10
BRANCH   4  18
HETATM   18  C   UNK N   1      21.391  15.621   7.453  0.00  0.00     0.094 C 
HETATM   19  N   UNK N   1      20.361  16.293   7.812  0.00  0.00    -0.282 N 
ATOM     20  HN  UNK N   1      19.429  15.900   7.688  1.00  0.00     0.193 HD
BRANCH  19  21
HETATM   21  O   UNK N   1      20.504  17.491   8.338  0.00  0.00    -0.286 OA
HETATM   22  C   UNK N   1      19.474  18.053   9.044  0.00  0.00     0.237 C 
ENDBRANCH  19  21
ENDBRANCH   4  18
TORSDOF 3
ENDMDL
MODEL 3
REMARK VINA RESULT:      -5.9      8.010      9.189
REMARK  3 active torsions:
REMARK  status: ('A' for Active; 'I' for Inactive)
REMARK    1  A    between atoms: O_3  and  N_5 
REMARK    2  A    between atoms: C_9  and  C_16 
REMARK    3  A    between atoms: C_10  and  C_14 
ROOT
HETATM    1  N   UNK N   1      26.518  16.468   4.525  0.00  0.00     0.094 N 
HETATM    2  C   UNK N   1      26.345  16.475   5.983  0.00  0.00     0.232 C 
HETATM    3  C   UNK N   1      27.467  15.370   4.348  0.00  0.00     0.223 C 
HETATM    4  C   UNK N   1      27.595  17.143   6.613  0.00  0.00     0.068 C 
HETATM    5  C   UNK N   1      28.861  16.312   6.243  0.00  0.00     0.032 C 
HETATM    6  C   UNK N   1      28.862  15.884   4.763  0.00  0.00     0.046 C 
HETATM    7  C   UNK N   1      26.250  15.003   6.400  0.00  0.00     0.038 C 
HETATM    8  C   UNK N   1      27.006  14.260   5.299  0.00  0.00     0.038 C 
HETATM    9  C   UNK N   1      25.248  16.163   3.861  0.00  0.00     0.310 C 
ENDROOT
BRANCH   5  10
HETATM   10  C   UNK N   1      30.213  16.800   6.706  0.00  0.00    -0.051 A 
HETATM   11  C   UNK N   1      31.329  16.804   5.858  0.00  0.00     0.033 A 
HETATM   12  C   UNK N   1      32.567  17.269   6.312  0.00  0.00     0.056 A 
HETATM   13 Cl   UNK N   1      33.937  17.241   5.215  0.00  0.00    -0.083 Cl
HETATM   14  C   UNK N   1      32.695  17.745   7.628  0.00  0.00     0.055 A 
HETATM   15 Cl   UNK N   1      34.231  18.341   8.239  0.00  0.00    -0.083 Cl
HETATM   16  C   UNK N   1      31.584  17.748   8.474  0.00  0.00     0.026 A 
HETATM   17  C   UNK N   1      30.350  17.278   8.017  0.00  0.00     0.009 A 
ENDBRANCH   5  10
BRANCH   4  18
HETATM   18  C   UNK N   1      27.637  18.563   6.112  0.00  0.00     0.094 C 
HETATM   19  N   UNK N   1      27.535  19.539   6.936  0.00  0.00    -0.282 N 
ATOM     20  HN  UNK N   1      27.466  19.355   7.936  1.00  0.00     0.193 HD
BRANCH  19  21
HETATM   21  O   UNK N   1      27.519  20.779   6.494  0.00  0.00    -0.286 OA
HETATM   22  C   UNK N   1      26.389  21.539   6.636  0.00  0.00     0.237 C 
ENDBRANCH  19  21
ENDBRANCH   4  18
TORSDOF 3
ENDMDL
MODEL 4
REMARK VINA RESULT:      -5.9     16.974     18.172
REMARK  3 active torsions:
REMARK  status: ('A' for Active; 'I' for Inactive)
REMARK    1  A    between atoms: O_3  and  N_5 
REMARK    2  A    between atoms: C_9  and  C_16 
REMARK    3  A    between atoms: C_10  and  C_14 
ROOT
HETATM    1  N   UNK N   1      25.378  26.175  -5.550  0.00  0.00     0.094 N 
HETATM    2  C   UNK N   1      26.197  26.155  -6.769  0.00  0.00     0.232 C 
HETATM    3  C   UNK N   1      26.379  26.491  -4.531  0.00  0.00     0.223 C 
HETATM    4  C   UNK N   1      26.987  24.820  -6.795  0.00  0.00     0.068 C 
HETATM    5  C   UNK N   1      27.913  24.748  -5.544  0.00  0.00     0.032 C 
HETATM    6  C   UNK N   1      27.195  25.209  -4.262  0.00  0.00     0.046 C 
HETATM    7  C   UNK N   1      27.154  27.346  -6.651  0.00  0.00     0.038 C 
HETATM    8  C   UNK N   1      27.275  27.572  -5.144  0.00  0.00     0.038 C 
HETATM    9  C   UNK N   1      24.371  27.236  -5.628  0.00  0.00     0.310 C 
ENDROOT
BRANCH   5  10
HETATM   10  C   UNK N   1      28.749  23.509  -5.327  0.00  0.00    -0.051 A 
HETATM   11  C   UNK N   1      28.938  22.557  -6.339  0.00  0.00     0.033 A 
HETATM   12  C   UNK N   1      29.724  21.423  -6.112  0.00  0.00     0.056 A 
HETATM   13 Cl   UNK N   1      29.920  20.255  -7.408  0.00  0.00    -0.083 Cl
HETATM   14  C   UNK N   1      30.336  21.235  -4.861  0.00  0.00     0.055 A 
HETATM   15 Cl   UNK N   1      31.333  19.826  -4.534  0.00  0.00    -0.083 Cl
HETATM   16  C   UNK N   1      30.153  22.184  -3.852  0.00  0.00     0.026 A 
HETATM   17  C   UNK N   1      29.364  23.314  -4.083  0.00  0.00     0.009 A 
ENDBRANCH   5  10
BRANCH   4  18
HETATM   18  C   UNK N   1      25.972  23.708  -6.860  0.00  0.00     0.094 C 
HETATM   19  N   UNK N   1      25.338  23.478  -7.950  0.00  0.00    -0.282 N 
ATOM     20  HN  UNK N   1      25.549  24.023  -8.785  1.00  0.00     0.193 HD
BRANCH  19  21
HETATM   21  O   UNK N   1      24.414  22.542  -7.993  0.00  0.00    -0.286 OA
HETATM   22  C   UNK N   1      24.549  21.415  -7.227  0.00  0.00     0.237 C 
ENDBRANCH  19  21
ENDBRANCH   4  18
TORSDOF 3
ENDMDL
MODEL 5
REMARK VINA RESULT:      -5.8     16.505     18.274
REMARK  3 active torsions:
REMARK  status: ('A' for Active; 'I' for Inactive)
REMARK    1  A    between atoms: O_3  and  N_5 
REMARK    2  A    between atoms: C_9  and  C_16 
REMARK    3  A    between atoms: C_10  and  C_14 
ROOT
HETATM    1  N   UNK N   1      27.959  27.446  -3.859  0.00  0.00     0.094 N 
HETATM    2  C   UNK N   1      26.718  26.834  -3.368  0.00  0.00     0.232 C 
HETATM    3  C   UNK N   1      27.547  27.929  -5.176  0.00  0.00     0.223 C 
HETATM    4  C   UNK N   1      26.545  25.464  -4.076  0.00  0.00     0.068 C 
HETATM    5  C   UNK N   1      26.441  25.692  -5.614  0.00  0.00     0.032 C 
HETATM    6  C   UNK N   1      27.478  26.712  -6.122  0.00  0.00     0.046 C 
HETATM    7  C   UNK N   1      25.592  27.794  -3.766  0.00  0.00     0.038 C 
HETATM    8  C   UNK N   1      26.151  28.532  -4.983  0.00  0.00     0.038 C 
HETATM    9  C   UNK N   1      28.352  28.566  -3.000  0.00  0.00     0.310 C 
ENDROOT
BRANCH   5  10
HETATM   10  C   UNK N   1      26.316  24.491  -6.521  0.00  0.00    -0.051 A 
HETATM   11  C   UNK N   1      25.466  23.419  -6.217  0.00  0.00     0.033 A 
HETATM   12  C   UNK N   1      25.366  22.323  -7.080  0.00  0.00     0.056 A 
HETATM   13 Cl   UNK N   1      24.296  20.999  -6.647  0.00  0.00    -0.083 Cl
HETATM   14  C   UNK N   1      26.116  22.297  -8.267  0.00  0.00     0.055 A 
HETATM   15 Cl   UNK N   1      26.017  20.941  -9.381  0.00  0.00    -0.083 Cl
HETATM   16  C   UNK N   1      26.960  23.366  -8.577  0.00  0.00     0.026 A 
HETATM   17  C   UNK N   1      27.060  24.457  -7.709  0.00  0.00     0.009 A 
ENDBRANCH   5  10
BRANCH   4  18
HETATM   18  C   UNK N   1      27.715  24.606  -3.670  0.00  0.00     0.094 C 
HETATM   19  N   UNK N   1      27.629  23.845  -2.643  0.00  0.00    -0.282 N 
ATOM     20  HN  UNK N   1      26.754  23.790  -2.122  1.00  0.00     0.193 HD
BRANCH  19  21
HETATM   21  O   UNK N   1      28.668  23.135  -2.257  0.00  0.00    -0.286 OA
HETATM   22  C   UNK N   1      29.922  23.465  -2.697  0.00  0.00     0.237 C 
ENDBRANCH  19  21
ENDBRANCH   4  18
TORSDOF 3
ENDMDL
MODEL 6
REMARK VINA RESULT:      -5.8     13.746     16.185
REMARK  3 active torsions:
REMARK  status: ('A' for Active; 'I' for Inactive)
REMARK    1  A    between atoms: O_3  and  N_5 
REMARK    2  A    between atoms: C_9  and  C_16 
REMARK    3  A    between atoms: C_10  and  C_14 
ROOT
HETATM    1  N   UNK N   1      36.615  11.780  14.180  0.00  0.00     0.094 N 
HETATM    2  C   UNK N   1      35.411  11.304  13.487  0.00  0.00     0.232 C 
HETATM    3  C   UNK N   1      36.125  13.007  14.808  0.00  0.00     0.223 C 
HETATM    4  C   UNK N   1      35.222  12.161  12.208  0.00  0.00     0.068 C 
HETATM    5  C   UNK N   1      35.032  13.653  12.615  0.00  0.00     0.032 C 
HETATM    6  C   UNK N   1      36.024  14.088  13.710  0.00  0.00     0.046 C 
HETATM    7  C   UNK N   1      34.251  11.525  14.463  0.00  0.00     0.038 C 
HETATM    8  C   UNK N   1      34.733  12.672  15.352  0.00  0.00     0.038 C 
HETATM    9  C   UNK N   1      37.036  10.814  15.198  0.00  0.00     0.310 C 
ENDROOT
BRANCH   5  10
HETATM   10  C   UNK N   1      34.877  14.690  11.528  0.00  0.00    -0.051 A 
HETATM   11  C   UNK N   1      33.923  14.558  10.509  0.00  0.00     0.033 A 
HETATM   12  C   UNK N   1      33.798  15.539   9.520  0.00  0.00     0.056 A 
HETATM   13 Cl   UNK N   1      32.596  15.321   8.259  0.00  0.00    -0.083 Cl
HETATM   14  C   UNK N   1      34.629  16.671   9.549  0.00  0.00     0.055 A 
HETATM   15 Cl   UNK N   1      34.502  17.928   8.328  0.00  0.00    -0.083 Cl
HETATM   16  C   UNK N   1      35.577  16.809  10.565  0.00  0.00     0.026 A 
HETATM   17  C   UNK N   1      35.701  15.824  11.549  0.00  0.00     0.009 A 
ENDBRANCH   5  10
BRANCH   4  18
HETATM   18  C   UNK N   1      36.425  11.922  11.334  0.00  0.00     0.094 C 
HETATM   19  N   UNK N   1      36.276  11.717  10.077  0.00  0.00    -0.282 N 
ATOM     20  HN  UNK N   1      35.346  11.754   9.662  1.00  0.00     0.193 HD
BRANCH  19  21
HETATM   21  O   UNK N   1      37.322  11.456   9.322  0.00  0.00    -0.286 OA
HETATM   22  C   UNK N   1      38.553  11.945   9.667  0.00  0.00     0.237 C 
ENDBRANCH  19  21
ENDBRANCH   4  18
TORSDOF 3
ENDMDL
MODEL 7
REMARK VINA RESULT:      -5.7      7.861      9.701
REMARK  3 active torsions:
REMARK  status: ('A' for Active; 'I' for Inactive)
REMARK    1  A    between atoms: O_3  and  N_5 
REMARK    2  A    between atoms: C_9  and  C_16 
REMARK    3  A    between atoms: C_10  and  C_14 
ROOT
HETATM    1  N   UNK N   1      30.515  15.732   5.757  0.00  0.00     0.094 N 
HETATM    2  C   UNK N   1      30.891  17.147   5.645  0.00  0.00     0.232 C 
HETATM    3  C   UNK N   1      30.147  15.417   4.377  0.00  0.00     0.223 C 
HETATM    4  C   UNK N   1      29.589  17.985   5.554  0.00  0.00     0.068 C 
HETATM    5  C   UNK N   1      28.793  17.556   4.285  0.00  0.00     0.032 C 
HETATM    6  C   UNK N   1      28.754  16.026   4.112  0.00  0.00     0.046 C 
HETATM    7  C   UNK N   1      31.702  17.264   4.350  0.00  0.00     0.038 C 
HETATM    8  C   UNK N   1      31.200  16.099   3.497  0.00  0.00     0.038 C 
HETATM    9  C   UNK N   1      31.665  14.929   6.179  0.00  0.00     0.310 C 
ENDROOT
BRANCH   5  10
HETATM   10  C   UNK N   1      27.456  18.204   4.011  0.00  0.00    -0.051 A 
HETATM   11  C   UNK N   1      26.263  17.469   4.012  0.00  0.00     0.033 A 
HETATM   12  C   UNK N   1      25.038  18.097   3.763  0.00  0.00     0.056 A 
HETATM   13 Cl   UNK N   1      23.574  17.130   3.764  0.00  0.00    -0.083 Cl
HETATM   14  C   UNK N   1      25.000  19.480   3.516  0.00  0.00     0.055 A 
HETATM   15 Cl   UNK N   1      23.484  20.310   3.202  0.00  0.00    -0.083 Cl
HETATM   16  C   UNK N   1      26.187  20.217   3.520  0.00  0.00     0.026 A 
HETATM   17  C   UNK N   1      27.408  19.583   3.765  0.00  0.00     0.009 A 
ENDBRANCH   5  10
BRANCH   4  18
HETATM   18  C   UNK N   1      28.835  17.772   6.841  0.00  0.00     0.094 C 
HETATM   19  N   UNK N   1      28.573  18.767   7.605  0.00  0.00    -0.282 N 
ATOM     20  HN  UNK N   1      28.840  19.709   7.322  1.00  0.00     0.193 HD
BRANCH  19  21
HETATM   21  O   UNK N   1      27.961  18.575   8.754  0.00  0.00    -0.286 OA
HETATM   22  C   UNK N   1      28.080  17.373   9.398  0.00  0.00     0.237 C 
ENDBRANCH  19  21
ENDBRANCH   4  18
TORSDOF 3
ENDMDL
MODEL 8
REMARK VINA RESULT:      -5.7      6.846      9.032
REMARK  3 active torsions:
REMARK  status: ('A' for Active; 'I' for Inactive)
REMARK    1  A    between atoms: O_3  and  N_5 
REMARK    2  A    between atoms: C_9  and  C_16 
REMARK    3  A    between atoms: C_10  and  C_14 
ROOT
HETATM    1  N   UNK N   1      28.614  17.589   4.469  0.00  0.00     0.094 N 
HETATM    2  C   UNK N   1      27.628  16.858   5.274  0.00  0.00     0.232 C 
HETATM    3  C   UNK N   1      28.400  18.964   4.921  0.00  0.00     0.223 C 
HETATM    4  C   UNK N   1      26.227  17.094   4.651  0.00  0.00     0.068 C 
HETATM    5  C   UNK N   1      25.901  18.618   4.686  0.00  0.00     0.032 C 
HETATM    6  C   UNK N   1      27.105  19.480   4.259  0.00  0.00     0.046 C 
HETATM    7  C   UNK N   1      27.703  17.465   6.680  0.00  0.00     0.038 C 
HETATM    8  C   UNK N   1      28.224  18.882   6.441  0.00  0.00     0.038 C 
HETATM    9  C   UNK N   1      29.971  17.146   4.795  0.00  0.00     0.310 C 
ENDROOT
BRANCH   5  10
HETATM   10  C   UNK N   1      24.602  19.098   4.084  0.00  0.00    -0.051 A 
HETATM   11  C   UNK N   1      23.391  18.429   4.308  0.00  0.00     0.033 A 
HETATM   12  C   UNK N   1      22.201  18.902   3.744  0.00  0.00     0.056 A 
HETATM   13 Cl   UNK N   1      20.712  18.022   4.046  0.00  0.00    -0.083 Cl
HETATM   14  C   UNK N   1      22.216  20.062   2.951  0.00  0.00     0.055 A 
HETATM   15 Cl   UNK N   1      20.745  20.692   2.226  0.00  0.00    -0.083 Cl
HETATM   16  C   UNK N   1      23.421  20.734   2.730  0.00  0.00     0.026 A 
HETATM   17  C   UNK N   1      24.607  20.255   3.292  0.00  0.00     0.009 A 
ENDBRANCH   5  10
BRANCH   4  18
HETATM   18  C   UNK N   1      26.259  16.515   3.260  0.00  0.00     0.094 C 
HETATM   19  N   UNK N   1      25.792  15.342   3.042  0.00  0.00    -0.282 N 
ATOM     20  HN  UNK N   1      25.363  14.815   3.801  1.00  0.00     0.193 HD
BRANCH  19  21
HETATM   21  O   UNK N   1      25.867  14.814   1.838  0.00  0.00    -0.286 OA
HETATM   22  C   UNK N   1      24.723  14.574   1.125  0.00  0.00     0.237 C 
ENDBRANCH  19  21
ENDBRANCH   4  18
TORSDOF 3
ENDMDL
MODEL 9
REMARK VINA RESULT:      -5.7     15.651     17.450
REMARK  3 active torsions:
REMARK  status: ('A' for Active; 'I' for Inactive)
REMARK    1  A    between atoms: O_3  and  N_5 
REMARK    2  A    between atoms: C_9  and  C_16 
REMARK    3  A    between atoms: C_10  and  C_14 
ROOT
HETATM    1  N   UNK N   1      36.161  11.981  14.324  0.00  0.00     0.094 N 
HETATM    2  C   UNK N   1      34.737  12.031  14.682  0.00  0.00     0.232 C 
HETATM    3  C   UNK N   1      36.443  10.551  14.449  0.00  0.00     0.223 C 
HETATM    4  C   UNK N   1      34.623  11.904  16.223  0.00  0.00     0.068 C 
HETATM    5  C   UNK N   1      35.224  10.537  16.670  0.00  0.00     0.032 C 
HETATM    6  C   UNK N   1      36.551  10.223  15.954  0.00  0.00     0.046 C 
HETATM    7  C   UNK N   1      34.090  10.826  13.991  0.00  0.00     0.038 C 
HETATM    8  C   UNK N   1      35.239   9.831  13.834  0.00  0.00     0.038 C 
HETATM    9  C   UNK N   1      36.358  12.425  12.943  0.00  0.00     0.310 C 
ENDROOT
BRANCH   5  10
HETATM   10  C   UNK N   1      35.270  10.209  18.144  0.00  0.00    -0.051 A 
HETATM   11  C   UNK N   1      34.164   9.669  18.816  0.00  0.00     0.033 A 
HETATM   12  C   UNK N   1      34.238   9.368  20.180  0.00  0.00     0.056 A 
HETATM   13 Cl   UNK N   1      32.823   8.704  20.978  0.00  0.00    -0.083 Cl
HETATM   14  C   UNK N   1      35.432   9.601  20.884  0.00  0.00     0.055 A 
HETATM   15 Cl   UNK N   1      35.568   9.234  22.597  0.00  0.00    -0.083 Cl
HETATM   16  C   UNK N   1      36.537  10.134  20.216  0.00  0.00     0.026 A 
HETATM   17  C   UNK N   1      36.456  10.437  18.854  0.00  0.00     0.009 A 
ENDBRANCH   5  10
BRANCH   4  18
HETATM   18  C   UNK N   1      35.327  13.097  16.818  0.00  0.00     0.094 C 
HETATM   19  N   UNK N   1      34.940  13.576  17.942  0.00  0.00    -0.282 N 
ATOM     20  HN  UNK N   1      34.182  13.127  18.453  1.00  0.00     0.193 HD
BRANCH  19  21
HETATM   21  O   UNK N   1      35.520  14.650  18.437  0.00  0.00    -0.286 OA
HETATM   22  C   UNK N   1      36.438  15.336  17.688  0.00  0.00     0.237 C 
ENDBRANCH  19  21
ENDBRANCH   4  18
TORSDOF 3
ENDMDL
