MODEL 1
REMARK VINA RESULT:      -8.9      0.000      0.000
REMARK  8 active torsions:
REMARK  status: ('A' for Active; 'I' for Inactive)
REMARK    1  A    between atoms: O_5  and  C_10 
REMARK    2  A    between atoms: O_6  and  C_11 
REMARK    3  A    between atoms: N_7  and  C_14 
REMARK    4  A    between atoms: N_7  and  C_15 
REMARK    5  A    between atoms: C_8  and  C_10 
REMARK    6  A    between atoms: C_9  and  C_11 
REMARK    7  A    between atoms: C_10  and  C_14 
REMARK    8  A    between atoms: C_11  and  C_15 
ROOT
HETATM    1  N   UNK N   1      34.926  16.938  10.683  0.00  0.00    -0.416 N 
HETATM    2  H   UNK N   1      34.410  17.611  11.250  0.00  0.00     0.153 HD
ENDROOT
BRANCH   1   3
HETATM    3  C   UNK N   1      35.690  15.799  11.149  0.00  0.00     0.148 C 
BRANCH   3   4
HETATM    4  C   UNK N   1      34.773  14.608  11.357  0.00  0.00     0.164 C 
BRANCH   4   5
HETATM    5  O   UNK N   1      33.454  15.034  11.194  0.00  0.00    -0.391 OA
HETATM    6  H   UNK N   1      33.182  15.563  10.428  0.00  0.00     0.210 HD
ENDBRANCH   4   5
BRANCH   4   7
HETATM    7  C   UNK N   1      34.981  14.099  12.773  0.00  0.00     0.159 C 
HETATM    8  O   UNK N   1      34.621  12.772  12.902  0.00  0.00    -0.343 OA
HETATM    9  C   UNK N   1      34.794  12.135  14.082  0.00  0.00     0.075 A 
HETATM   10  C   UNK N   1      35.703  12.644  15.034  0.00  0.00    -0.022 A 
HETATM   11  C   UNK N   1      34.057  10.983  14.367  0.00  0.00     0.040 A 
HETATM   12  C   UNK N   1      36.526  13.868  14.726  0.00  0.00     0.044 C 
HETATM   13  C   UNK N   1      35.837  12.013  16.274  0.00  0.00     0.052 A 
HETATM   14  C   UNK N   1      36.416  14.300  13.258  0.00  0.00     0.040 C 
HETATM   15  C   UNK N   1      35.080  10.875  16.563  0.00  0.00     0.117 A 
HETATM   16  F   UNK N   1      35.201  10.274  17.770  0.00  0.00    -0.206 F 
HETATM   17  C   UNK N   1      34.198  10.355  15.609  0.00  0.00     0.045 A 
ENDBRANCH   4   7
ENDBRANCH   3   4
ENDBRANCH   1   3
BRANCH   1  18
HETATM   18  C   UNK N   1      35.050  16.918   9.239  0.00  0.00     0.148 C 
BRANCH  18  19
HETATM   19  C   UNK N   1      34.153  17.955   8.585  0.00  0.00     0.164 C 
BRANCH  19  20
HETATM   20  O   UNK N   1      34.972  18.811   7.847  0.00  0.00    -0.391 OA
HETATM   21  H   UNK N   1      35.936  18.703   7.871  0.00  0.00     0.210 HD
ENDBRANCH  19  20
BRANCH  19  22
HETATM   22  C   UNK N   1      33.129  17.295   7.662  0.00  0.00     0.159 C 
HETATM   23  O   UNK N   1      33.371  17.648   6.347  0.00  0.00    -0.343 OA
HETATM   24  C   UNK N   1      32.501  17.343   5.361  0.00  0.00     0.075 A 
HETATM   25  C   UNK N   1      31.169  16.999   5.665  0.00  0.00    -0.022 A 
HETATM   26  C   UNK N   1      32.926  17.371   4.029  0.00  0.00     0.040 A 
HETATM   27  C   UNK N   1      30.695  16.994   7.094  0.00  0.00     0.044 C 
HETATM   28  C   UNK N   1      30.283  16.670   4.635  0.00  0.00     0.052 A 
HETATM   29  C   UNK N   1      31.694  17.664   8.046  0.00  0.00     0.040 C 
HETATM   30  C   UNK N   1      30.718  16.689   3.305  0.00  0.00     0.117 A 
HETATM   31  F   UNK N   1      29.860  16.373   2.308  0.00  0.00    -0.206 F 
HETATM   32  C   UNK N   1      32.037  17.042   3.004  0.00  0.00     0.045 A 
ENDBRANCH  19  22
ENDBRANCH  18  19
ENDBRANCH   1  18
TORSDOF 8
ENDMDL
MODEL 2
REMARK VINA RESULT:      -8.7      1.481     10.532
REMARK  8 active torsions:
REMARK  status: ('A' for Active; 'I' for Inactive)
REMARK    1  A    between atoms: O_5  and  C_10 
REMARK    2  A    between atoms: O_6  and  C_11 
REMARK    3  A    between atoms: N_7  and  C_14 
REMARK    4  A    between atoms: N_7  and  C_15 
REMARK    5  A    between atoms: C_8  and  C_10 
REMARK    6  A    between atoms: C_9  and  C_11 
REMARK    7  A    between atoms: C_10  and  C_14 
REMARK    8  A    between atoms: C_11  and  C_15 
ROOT
HETATM    1  N   UNK N   1      35.258  17.397  10.471  0.00  0.00    -0.416 N 
HETATM    2  H   UNK N   1      35.753  18.278  10.607  0.00  0.00     0.153 HD
ENDROOT
BRANCH   1   3
HETATM    3  C   UNK N   1      34.303  17.077   9.429  0.00  0.00     0.148 C 
BRANCH   3   4
HETATM    4  C   UNK N   1      34.663  17.813   8.151  0.00  0.00     0.164 C 
BRANCH   4   5
HETATM    5  O   UNK N   1      34.973  19.134   8.477  0.00  0.00    -0.391 OA
HETATM    6  H   UNK N   1      35.506  19.352   9.258  0.00  0.00     0.210 HD
ENDBRANCH   4   5
BRANCH   4   7
HETATM    7  C   UNK N   1      33.452  17.777   7.235  0.00  0.00     0.159 C 
HETATM    8  O   UNK N   1      33.740  17.181   6.023  0.00  0.00    -0.343 OA
HETATM    9  C   UNK N   1      32.763  17.011   5.103  0.00  0.00     0.075 A 
HETATM   10  C   UNK N   1      31.409  17.030   5.498  0.00  0.00    -0.022 A 
HETATM   11  C   UNK N   1      33.095  16.836   3.758  0.00  0.00     0.040 A 
HETATM   12  C   UNK N   1      31.038  17.188   6.950  0.00  0.00     0.044 C 
HETATM   13  C   UNK N   1      30.403  16.909   4.535  0.00  0.00     0.052 A 
HETATM   14  C   UNK N   1      32.252  17.089   7.883  0.00  0.00     0.040 C 
HETATM   15  C   UNK N   1      30.741  16.758   3.188  0.00  0.00     0.117 A 
HETATM   16  F   UNK N   1      29.764  16.655   2.256  0.00  0.00    -0.206 F 
HETATM   17  C   UNK N   1      32.084  16.712   2.801  0.00  0.00     0.045 A 
ENDBRANCH   4   7
ENDBRANCH   3   4
ENDBRANCH   1   3
BRANCH   1  18
HETATM   18  C   UNK N   1      35.359  16.197  11.279  0.00  0.00     0.148 C 
BRANCH  18  19
HETATM   19  C   UNK N   1      36.226  15.144  10.610  0.00  0.00     0.164 C 
BRANCH  19  20
HETATM   20  O   UNK N   1      37.508  15.677  10.480  0.00  0.00    -0.391 OA
HETATM   21  H   UNK N   1      38.219  15.145  10.088  0.00  0.00     0.210 HD
ENDBRANCH  19  20
BRANCH  19  22
HETATM   22  C   UNK N   1      36.279  13.864  11.445  0.00  0.00     0.159 C 
HETATM   23  O   UNK N   1      36.121  14.160  12.787  0.00  0.00    -0.343 OA
HETATM   24  C   UNK N   1      36.311  13.227  13.744  0.00  0.00     0.075 A 
HETATM   25  C   UNK N   1      37.028  12.048  13.460  0.00  0.00    -0.022 A 
HETATM   26  C   UNK N   1      35.794  13.436  15.026  0.00  0.00     0.040 A 
HETATM   27  C   UNK N   1      37.612  11.827  12.090  0.00  0.00     0.044 C 
HETATM   28  C   UNK N   1      37.202  11.084  14.456  0.00  0.00     0.052 A 
HETATM   29  C   UNK N   1      37.587  13.098  11.230  0.00  0.00     0.040 C 
HETATM   30  C   UNK N   1      36.673  11.294  15.734  0.00  0.00     0.117 A 
HETATM   31  F   UNK N   1      36.845  10.361  16.700  0.00  0.00    -0.206 F 
HETATM   32  C   UNK N   1      35.973  12.470  16.018  0.00  0.00     0.045 A 
ENDBRANCH  19  22
ENDBRANCH  18  19
ENDBRANCH   1  18
TORSDOF 8
ENDMDL
MODEL 3
REMARK VINA RESULT:      -8.4      1.993      2.741
REMARK  8 active torsions:
REMARK  status: ('A' for Active; 'I' for Inactive)
REMARK    1  A    between atoms: O_5  and  C_10 
REMARK    2  A    between atoms: O_6  and  C_11 
REMARK    3  A    between atoms: N_7  and  C_14 
REMARK    4  A    between atoms: N_7  and  C_15 
REMARK    5  A    between atoms: C_8  and  C_10 
REMARK    6  A    between atoms: C_9  and  C_11 
REMARK    7  A    between atoms: C_10  and  C_14 
REMARK    8  A    between atoms: C_11  and  C_15 
ROOT
HETATM    1  N   UNK N   1      35.829  13.588   9.780  0.00  0.00    -0.416 N 
HETATM    2  H   UNK N   1      35.376  13.083   9.019  0.00  0.00     0.153 HD
ENDROOT
BRANCH   1   3
HETATM    3  C   UNK N   1      36.060  13.118  11.131  0.00  0.00     0.148 C 
BRANCH   3   4
HETATM    4  C   UNK N   1      34.738  12.806  11.806  0.00  0.00     0.164 C 
BRANCH   4   5
HETATM    5  O   UNK N   1      34.077  14.009  12.056  0.00  0.00    -0.391 OA
HETATM    6  H   UNK N   1      33.506  14.123  12.833  0.00  0.00     0.210 HD
ENDBRANCH   4   5
BRANCH   4   7
HETATM    7  C   UNK N   1      35.037  12.098  13.116  0.00  0.00     0.159 C 
HETATM    8  O   UNK N   1      34.695  12.870  14.209  0.00  0.00    -0.343 OA
HETATM    9  C   UNK N   1      34.839  12.374  15.459  0.00  0.00     0.075 A 
HETATM   10  C   UNK N   1      34.918  10.980  15.663  0.00  0.00    -0.022 A 
HETATM   11  C   UNK N   1      34.929  13.245  16.548  0.00  0.00     0.040 A 
HETATM   12  C   UNK N   1      34.791  10.030  14.501  0.00  0.00     0.044 C 
HETATM   13  C   UNK N   1      35.122  10.477  16.951  0.00  0.00     0.052 A 
HETATM   14  C   UNK N   1      34.357  10.733  13.208  0.00  0.00     0.040 C 
HETATM   15  C   UNK N   1      35.236  11.354  18.033  0.00  0.00     0.117 A 
HETATM   16  F   UNK N   1      35.448  10.865  19.278  0.00  0.00    -0.206 F 
HETATM   17  C   UNK N   1      35.131  12.735  17.834  0.00  0.00     0.045 A 
ENDBRANCH   4   7
ENDBRANCH   3   4
ENDBRANCH   1   3
BRANCH   1  18
HETATM   18  C   UNK N   1      36.380  14.928   9.742  0.00  0.00     0.148 C 
BRANCH  18  19
HETATM   19  C   UNK N   1      35.335  15.973  10.094  0.00  0.00     0.164 C 
BRANCH  19  20
HETATM   20  O   UNK N   1      36.012  17.117  10.518  0.00  0.00    -0.391 OA
HETATM   21  H   UNK N   1      36.622  17.573   9.916  0.00  0.00     0.210 HD
ENDBRANCH  19  20
BRANCH  19  22
HETATM   22  C   UNK N   1      34.460  16.307   8.885  0.00  0.00     0.159 C 
HETATM   23  O   UNK N   1      34.890  15.604   7.774  0.00  0.00    -0.343 OA
HETATM   24  C   UNK N   1      34.400  15.859   6.542  0.00  0.00     0.075 A 
HETATM   25  C   UNK N   1      33.731  17.070   6.277  0.00  0.00    -0.022 A 
HETATM   26  C   UNK N   1      34.560  14.914   5.524  0.00  0.00     0.040 A 
HETATM   27  C   UNK N   1      33.579  18.106   7.359  0.00  0.00     0.044 C 
HETATM   28  C   UNK N   1      33.214  17.314   5.001  0.00  0.00     0.052 A 
HETATM   29  C   UNK N   1      34.456  17.808   8.583  0.00  0.00     0.040 C 
HETATM   30  C   UNK N   1      33.368  16.359   3.990  0.00  0.00     0.117 A 
HETATM   31  F   UNK N   1      32.870  16.597   2.754  0.00  0.00    -0.206 F 
HETATM   32  C   UNK N   1      34.043  15.163   4.251  0.00  0.00     0.045 A 
ENDBRANCH  19  22
ENDBRANCH  18  19
ENDBRANCH   1  18
TORSDOF 8
ENDMDL
MODEL 4
REMARK VINA RESULT:      -8.3      1.372     10.377
REMARK  8 active torsions:
REMARK  status: ('A' for Active; 'I' for Inactive)
REMARK    1  A    between atoms: O_5  and  C_10 
REMARK    2  A    between atoms: O_6  and  C_11 
REMARK    3  A    between atoms: N_7  and  C_14 
REMARK    4  A    between atoms: N_7  and  C_15 
REMARK    5  A    between atoms: C_8  and  C_10 
REMARK    6  A    between atoms: C_9  and  C_11 
REMARK    7  A    between atoms: C_10  and  C_14 
REMARK    8  A    between atoms: C_11  and  C_15 
ROOT
HETATM    1  N   UNK N   1      33.902  14.808  11.024  0.00  0.00    -0.416 N 
HETATM    2  H   UNK N   1      33.650  15.077  11.975  0.00  0.00     0.153 HD
ENDROOT
BRANCH   1   3
HETATM    3  C   UNK N   1      33.197  15.135   9.802  0.00  0.00     0.148 C 
BRANCH   3   4
HETATM    4  C   UNK N   1      34.004  16.126   8.985  0.00  0.00     0.164 C 
BRANCH   4   5
HETATM    5  O   UNK N   1      34.031  17.342   9.669  0.00  0.00    -0.391 OA
HETATM    6  H   UNK N   1      33.334  18.006   9.553  0.00  0.00     0.210 HD
ENDBRANCH   4   5
BRANCH   4   7
HETATM    7  C   UNK N   1      33.311  16.302   7.645  0.00  0.00     0.159 C 
HETATM    8  O   UNK N   1      31.965  16.572   7.793  0.00  0.00    -0.343 OA
HETATM    9  C   UNK N   1      31.200  16.816   6.704  0.00  0.00     0.075 A 
HETATM   10  C   UNK N   1      31.801  17.216   5.492  0.00  0.00    -0.022 A 
HETATM   11  C   UNK N   1      29.815  16.651   6.775  0.00  0.00     0.040 A 
HETATM   12  C   UNK N   1      33.291  17.427   5.411  0.00  0.00     0.044 C 
HETATM   13  C   UNK N   1      31.011  17.412   4.356  0.00  0.00     0.052 A 
HETATM   14  C   UNK N   1      33.969  17.381   6.787  0.00  0.00     0.040 C 
HETATM   15  C   UNK N   1      29.628  17.222   4.427  0.00  0.00     0.117 A 
HETATM   16  F   UNK N   1      28.866  17.400   3.321  0.00  0.00    -0.206 F 
HETATM   17  C   UNK N   1      29.030  16.851   5.635  0.00  0.00     0.045 A 
ENDBRANCH   4   7
ENDBRANCH   3   4
ENDBRANCH   1   3
BRANCH   1  18
HETATM   18  C   UNK N   1      35.044  14.017  10.608  0.00  0.00     0.148 C 
BRANCH  18  19
HETATM   19  C   UNK N   1      36.309  14.431  11.340  0.00  0.00     0.164 C 
BRANCH  19  20
HETATM   20  O   UNK N   1      36.232  15.806  11.565  0.00  0.00    -0.391 OA
HETATM   21  H   UNK N   1      35.414  16.198  11.912  0.00  0.00     0.210 HD
ENDBRANCH  19  20
BRANCH  19  22
HETATM   22  C   UNK N   1      36.440  13.695  12.673  0.00  0.00     0.159 C 
HETATM   23  O   UNK N   1      35.396  12.801  12.832  0.00  0.00    -0.343 OA
HETATM   24  C   UNK N   1      35.184  12.162  14.002  0.00  0.00     0.075 A 
HETATM   25  C   UNK N   1      35.761  12.644  15.193  0.00  0.00    -0.022 A 
HETATM   26  C   UNK N   1      34.383  11.017  14.030  0.00  0.00     0.040 A 
HETATM   27  C   UNK N   1      36.602  13.892  15.178  0.00  0.00     0.044 C 
HETATM   28  C   UNK N   1      35.547  11.962  16.395  0.00  0.00     0.052 A 
HETATM   29  C   UNK N   1      36.482  14.664  13.857  0.00  0.00     0.040 C 
HETATM   30  C   UNK N   1      34.753  10.810  16.414  0.00  0.00     0.117 A 
HETATM   31  F   UNK N   1      34.542  10.152  17.578  0.00  0.00    -0.206 F 
HETATM   32  C   UNK N   1      34.170  10.341  15.233  0.00  0.00     0.045 A 
ENDBRANCH  19  22
ENDBRANCH  18  19
ENDBRANCH   1  18
TORSDOF 8
ENDMDL
MODEL 5
REMARK VINA RESULT:      -8.2      1.833     11.162
REMARK  8 active torsions:
REMARK  status: ('A' for Active; 'I' for Inactive)
REMARK    1  A    between atoms: O_5  and  C_10 
REMARK    2  A    between atoms: O_6  and  C_11 
REMARK    3  A    between atoms: N_7  and  C_14 
REMARK    4  A    between atoms: N_7  and  C_15 
REMARK    5  A    between atoms: C_8  and  C_10 
REMARK    6  A    between atoms: C_9  and  C_11 
REMARK    7  A    between atoms: C_10  and  C_14 
REMARK    8  A    between atoms: C_11  and  C_15 
ROOT
HETATM    1  N   UNK N   1      35.516  14.411  11.028  0.00  0.00    -0.416 N 
HETATM    2  H   UNK N   1      36.224  14.103  10.362  0.00  0.00     0.153 HD
ENDROOT
BRANCH   1   3
HETATM    3  C   UNK N   1      34.700  15.607  10.954  0.00  0.00     0.148 C 
BRANCH   3   4
HETATM    4  C   UNK N   1      35.121  16.450   9.764  0.00  0.00     0.164 C 
BRANCH   4   5
HETATM    5  O   UNK N   1      35.624  17.661  10.239  0.00  0.00    -0.391 OA
HETATM    6  H   UNK N   1      35.133  18.492  10.133  0.00  0.00     0.210 HD
ENDBRANCH   4   5
BRANCH   4   7
HETATM    7  C   UNK N   1      33.891  16.700   8.909  0.00  0.00     0.159 C 
HETATM    8  O   UNK N   1      34.200  16.757   7.565  0.00  0.00    -0.343 OA
HETATM    9  C   UNK N   1      33.216  16.916   6.650  0.00  0.00     0.075 A 
HETATM   10  C   UNK N   1      31.882  16.601   6.984  0.00  0.00    -0.022 A 
HETATM   11  C   UNK N   1      33.520  17.411   5.380  0.00  0.00     0.040 A 
HETATM   12  C   UNK N   1      31.547  16.038   8.341  0.00  0.00     0.044 C 
HETATM   13  C   UNK N   1      30.863  16.820   6.053  0.00  0.00     0.052 A 
HETATM   14  C   UNK N   1      32.795  15.662   9.149  0.00  0.00     0.040 C 
HETATM   15  C   UNK N   1      31.169  17.338   4.792  0.00  0.00     0.117 A 
HETATM   16  F   UNK N   1      30.178  17.561   3.897  0.00  0.00    -0.206 F 
HETATM   17  C   UNK N   1      32.495  17.624   4.452  0.00  0.00     0.045 A 
ENDBRANCH   4   7
ENDBRANCH   3   4
ENDBRANCH   1   3
BRANCH   1  18
HETATM   18  C   UNK N   1      35.110  13.747  12.251  0.00  0.00     0.148 C 
BRANCH  18  19
HETATM   19  C   UNK N   1      36.297  13.473  13.159  0.00  0.00     0.164 C 
BRANCH  19  20
HETATM   20  O   UNK N   1      36.778  14.705  13.604  0.00  0.00    -0.391 OA
HETATM   21  H   UNK N   1      37.344  14.752  14.391  0.00  0.00     0.210 HD
ENDBRANCH  19  20
BRANCH  19  22
HETATM   22  C   UNK N   1      35.889  12.614  14.356  0.00  0.00     0.159 C 
HETATM   23  O   UNK N   1      35.827  13.386  15.502  0.00  0.00    -0.343 OA
HETATM   24  C   UNK N   1      35.666  12.830  16.722  0.00  0.00     0.075 A 
HETATM   25  C   UNK N   1      35.928  11.460  16.922  0.00  0.00    -0.022 A 
HETATM   26  C   UNK N   1      35.239  13.621  17.792  0.00  0.00     0.040 A 
HETATM   27  C   UNK N   1      36.415  10.606  15.781  0.00  0.00     0.044 C 
HETATM   28  C   UNK N   1      35.741  10.895  18.186  0.00  0.00     0.052 A 
HETATM   29  C   UNK N   1      36.848  11.440  14.568  0.00  0.00     0.040 C 
HETATM   30  C   UNK N   1      35.303  11.690  19.251  0.00  0.00     0.117 A 
HETATM   31  F   UNK N   1      35.125  11.143  20.476  0.00  0.00    -0.206 F 
HETATM   32  C   UNK N   1      35.056  13.052  19.053  0.00  0.00     0.045 A 
ENDBRANCH  19  22
ENDBRANCH  18  19
ENDBRANCH   1  18
TORSDOF 8
ENDMDL
MODEL 6
REMARK VINA RESULT:      -8.2      2.047     10.304
REMARK  8 active torsions:
REMARK  status: ('A' for Active; 'I' for Inactive)
REMARK    1  A    between atoms: O_5  and  C_10 
REMARK    2  A    between atoms: O_6  and  C_11 
REMARK    3  A    between atoms: N_7  and  C_14 
REMARK    4  A    between atoms: N_7  and  C_15 
REMARK    5  A    between atoms: C_8  and  C_10 
REMARK    6  A    between atoms: C_9  and  C_11 
REMARK    7  A    between atoms: C_10  and  C_14 
REMARK    8  A    between atoms: C_11  and  C_15 
ROOT
HETATM    1  N   UNK N   1      35.561  13.560   9.179  0.00  0.00    -0.416 N 
HETATM    2  H   UNK N   1      35.995  13.126   8.364  0.00  0.00     0.153 HD
ENDROOT
BRANCH   1   3
HETATM    3  C   UNK N   1      34.145  13.704   9.449  0.00  0.00     0.148 C 
BRANCH   3   4
HETATM    4  C   UNK N   1      33.841  15.126   9.884  0.00  0.00     0.164 C 
BRANCH   4   5
HETATM    5  O   UNK N   1      32.818  15.086  10.833  0.00  0.00    -0.391 OA
HETATM    6  H   UNK N   1      32.498  14.246  11.199  0.00  0.00     0.210 HD
ENDBRANCH   4   5
BRANCH   4   7
HETATM    7  C   UNK N   1      33.383  15.902   8.661  0.00  0.00     0.159 C 
HETATM    8  O   UNK N   1      33.666  15.230   7.489  0.00  0.00    -0.343 OA
HETATM    9  C   UNK N   1      33.276  15.747   6.301  0.00  0.00     0.075 A 
HETATM   10  C   UNK N   1      32.243  16.707   6.253  0.00  0.00    -0.022 A 
HETATM   11  C   UNK N   1      33.910  15.345   5.124  0.00  0.00     0.040 A 
HETATM   12  C   UNK N   1      31.529  17.127   7.512  0.00  0.00     0.044 C 
HETATM   13  C   UNK N   1      31.883  17.278   5.029  0.00  0.00     0.052 A 
HETATM   14  C   UNK N   1      31.896  16.252   8.718  0.00  0.00     0.040 C 
HETATM   15  C   UNK N   1      32.537  16.890   3.858  0.00  0.00     0.117 A 
HETATM   16  F   UNK N   1      32.196  17.455   2.675  0.00  0.00    -0.206 F 
HETATM   17  C   UNK N   1      33.543  15.918   3.903  0.00  0.00     0.045 A 
ENDBRANCH   4   7
ENDBRANCH   3   4
ENDBRANCH   1   3
BRANCH   1  18
HETATM   18  C   UNK N   1      36.230  14.165  10.314  0.00  0.00     0.148 C 
BRANCH  18  19
HETATM   19  C   UNK N   1      36.676  13.120  11.323  0.00  0.00     0.164 C 
BRANCH  19  20
HETATM   20  O   UNK N   1      38.035  13.323  11.564  0.00  0.00    -0.391 OA
HETATM   21  H   UNK N   1      38.631  12.563  11.661  0.00  0.00     0.210 HD
ENDBRANCH  19  20
BRANCH  19  22
HETATM   22  C   UNK N   1      35.894  13.248  12.631  0.00  0.00     0.159 C 
HETATM   23  O   UNK N   1      36.696  13.792  13.617  0.00  0.00    -0.343 OA
HETATM   24  C   UNK N   1      36.298  13.840  14.906  0.00  0.00     0.075 A 
HETATM   25  C   UNK N   1      35.245  13.021  15.359  0.00  0.00    -0.022 A 
HETATM   26  C   UNK N   1      36.937  14.708  15.797  0.00  0.00     0.040 A 
HETATM   27  C   UNK N   1      34.568  12.064  14.414  0.00  0.00     0.044 C 
HETATM   28  C   UNK N   1      34.832  13.093  16.692  0.00  0.00     0.052 A 
HETATM   29  C   UNK N   1      35.337  11.900  13.095  0.00  0.00     0.040 C 
HETATM   30  C   UNK N   1      35.469  13.971  17.576  0.00  0.00     0.117 A 
HETATM   31  F   UNK N   1      35.071  14.038  18.868  0.00  0.00    -0.206 F 
HETATM   32  C   UNK N   1      36.522  14.774  17.128  0.00  0.00     0.045 A 
ENDBRANCH  19  22
ENDBRANCH  18  19
ENDBRANCH   1  18
TORSDOF 8
ENDMDL
MODEL 7
REMARK VINA RESULT:      -8.2      2.317     10.735
REMARK  8 active torsions:
REMARK  status: ('A' for Active; 'I' for Inactive)
REMARK    1  A    between atoms: O_5  and  C_10 
REMARK    2  A    between atoms: O_6  and  C_11 
REMARK    3  A    between atoms: N_7  and  C_14 
REMARK    4  A    between atoms: N_7  and  C_15 
REMARK    5  A    between atoms: C_8  and  C_10 
REMARK    6  A    between atoms: C_9  and  C_11 
REMARK    7  A    between atoms: C_10  and  C_14 
REMARK    8  A    between atoms: C_11  and  C_15 
ROOT
HETATM    1  N   UNK N   1      36.827  13.901  12.438  0.00  0.00    -0.416 N 
HETATM    2  H   UNK N   1      37.576  14.271  13.022  0.00  0.00     0.153 HD
ENDROOT
BRANCH   1   3
HETATM    3  C   UNK N   1      36.006  14.633  11.495  0.00  0.00     0.148 C 
BRANCH   3   4
HETATM    4  C   UNK N   1      36.623  14.570  10.110  0.00  0.00     0.164 C 
BRANCH   4   5
HETATM    5  O   UNK N   1      37.966  14.933  10.210  0.00  0.00    -0.391 OA
HETATM    6  H   UNK N   1      38.649  14.508   9.667  0.00  0.00     0.210 HD
ENDBRANCH   4   5
BRANCH   4   7
HETATM    7  C   UNK N   1      35.884  15.558   9.223  0.00  0.00     0.159 C 
HETATM    8  O   UNK N   1      35.455  14.974   8.048  0.00  0.00    -0.343 OA
HETATM    9  C   UNK N   1      34.728  15.692   7.162  0.00  0.00     0.075 A 
HETATM   10  C   UNK N   1      34.047  16.854   7.583  0.00  0.00    -0.022 A 
HETATM   11  C   UNK N   1      34.669  15.294   5.824  0.00  0.00     0.040 A 
HETATM   12  C   UNK N   1      34.078  17.277   9.029  0.00  0.00     0.044 C 
HETATM   13  C   UNK N   1      33.343  17.622   6.651  0.00  0.00     0.052 A 
HETATM   14  C   UNK N   1      34.706  16.215   9.941  0.00  0.00     0.040 C 
HETATM   15  C   UNK N   1      33.306  17.232   5.310  0.00  0.00     0.117 A 
HETATM   16  F   UNK N   1      32.635  17.986   4.407  0.00  0.00    -0.206 F 
HETATM   17  C   UNK N   1      33.960  16.066   4.898  0.00  0.00     0.045 A 
ENDBRANCH   4   7
ENDBRANCH   3   4
ENDBRANCH   1   3
BRANCH   1  18
HETATM   18  C   UNK N   1      36.355  12.532  12.374  0.00  0.00     0.148 C 
BRANCH  18  19
HETATM   19  C   UNK N   1      34.869  12.437  12.679  0.00  0.00     0.164 C 
BRANCH  19  20
HETATM   20  O   UNK N   1      34.305  11.565  11.747  0.00  0.00    -0.391 OA
HETATM   21  H   UNK N   1      33.616  10.939  12.020  0.00  0.00     0.210 HD
ENDBRANCH  19  20
BRANCH  19  22
HETATM   22  C   UNK N   1      34.631  11.907  14.093  0.00  0.00     0.159 C 
HETATM   23  O   UNK N   1      35.062  12.829  15.030  0.00  0.00    -0.343 OA
HETATM   24  C   UNK N   1      35.128  12.525  16.343  0.00  0.00     0.075 A 
HETATM   25  C   UNK N   1      35.127  11.181  16.766  0.00  0.00    -0.022 A 
HETATM   26  C   UNK N   1      35.200  13.552  17.289  0.00  0.00     0.040 A 
HETATM   27  C   UNK N   1      35.078  10.068  15.754  0.00  0.00     0.044 C 
HETATM   28  C   UNK N   1      35.179  10.881  18.130  0.00  0.00     0.052 A 
HETATM   29  C   UNK N   1      35.328  10.564  14.323  0.00  0.00     0.040 C 
HETATM   30  C   UNK N   1      35.240  11.914  19.072  0.00  0.00     0.117 A 
HETATM   31  F   UNK N   1      35.294  11.624  20.393  0.00  0.00    -0.206 F 
HETATM   32  C   UNK N   1      35.254  13.248  18.650  0.00  0.00     0.045 A 
ENDBRANCH  19  22
ENDBRANCH  18  19
ENDBRANCH   1  18
TORSDOF 8
ENDMDL
MODEL 8
REMARK VINA RESULT:      -8.2     17.189     20.662
REMARK  8 active torsions:
REMARK  status: ('A' for Active; 'I' for Inactive)
REMARK    1  A    between atoms: O_5  and  C_10 
REMARK    2  A    between atoms: O_6  and  C_11 
REMARK    3  A    between atoms: N_7  and  C_14 
REMARK    4  A    between atoms: N_7  and  C_15 
REMARK    5  A    between atoms: C_8  and  C_10 
REMARK    6  A    between atoms: C_9  and  C_11 
REMARK    7  A    between atoms: C_10  and  C_14 
REMARK    8  A    between atoms: C_11  and  C_15 
ROOT
HETATM    1  N   UNK N   1      28.093  28.764  -4.711  0.00  0.00    -0.416 N 
HETATM    2  H   UNK N   1      28.619  28.411  -3.911  0.00  0.00     0.153 HD
ENDROOT
BRANCH   1   3
HETATM    3  C   UNK N   1      26.677  29.062  -4.768  0.00  0.00     0.148 C 
BRANCH   3   4
HETATM    4  C   UNK N   1      25.932  28.250  -3.724  0.00  0.00     0.164 C 
BRANCH   4   5
HETATM    5  O   UNK N   1      26.704  28.213  -2.562  0.00  0.00    -0.391 OA
HETATM    6  H   UNK N   1      26.334  27.918  -1.715  0.00  0.00     0.210 HD
ENDBRANCH   4   5
BRANCH   4   7
HETATM    7  C   UNK N   1      25.749  26.843  -4.268  0.00  0.00     0.159 C 
HETATM    8  O   UNK N   1      26.002  26.779  -5.624  0.00  0.00    -0.343 OA
HETATM    9  C   UNK N   1      25.945  25.590  -6.268  0.00  0.00     0.075 A 
HETATM   10  C   UNK N   1      26.054  24.386  -5.540  0.00  0.00    -0.022 A 
HETATM   11  C   UNK N   1      25.756  25.555  -7.651  0.00  0.00     0.040 A 
HETATM   12  C   UNK N   1      26.289  24.411  -4.052  0.00  0.00     0.044 C 
HETATM   13  C   UNK N   1      25.938  23.162  -6.203  0.00  0.00     0.052 A 
HETATM   14  C   UNK N   1      26.605  25.817  -3.528  0.00  0.00     0.040 C 
HETATM   15  C   UNK N   1      25.725  23.132  -7.584  0.00  0.00     0.117 A 
HETATM   16  F   UNK N   1      25.599  21.945  -8.222  0.00  0.00    -0.206 F 
HETATM   17  C   UNK N   1      25.644  24.326  -8.308  0.00  0.00     0.045 A 
ENDBRANCH   4   7
ENDBRANCH   3   4
ENDBRANCH   1   3
BRANCH   1  18
HETATM   18  C   UNK N   1      28.603  29.073  -6.032  0.00  0.00     0.148 C 
BRANCH  18  19
HETATM   19  C   UNK N   1      29.747  28.152  -6.420  0.00  0.00     0.164 C 
BRANCH  19  20
HETATM   20  O   UNK N   1      30.862  28.530  -5.672  0.00  0.00    -0.391 OA
HETATM   21  H   UNK N   1      31.427  27.854  -5.265  0.00  0.00     0.210 HD
ENDBRANCH  19  20
BRANCH  19  22
HETATM   22  C   UNK N   1      29.400  26.691  -6.130  0.00  0.00     0.159 C 
HETATM   23  O   UNK N   1      30.055  26.260  -4.991  0.00  0.00    -0.343 OA
HETATM   24  C   UNK N   1      30.059  24.960  -4.626  0.00  0.00     0.075 A 
HETATM   25  C   UNK N   1      29.730  23.956  -5.559  0.00  0.00    -0.022 A 
HETATM   26  C   UNK N   1      30.392  24.610  -3.314  0.00  0.00     0.040 A 
HETATM   27  C   UNK N   1      29.397  24.321  -6.981  0.00  0.00     0.044 C 
HETATM   28  C   UNK N   1      29.721  22.616  -5.162  0.00  0.00     0.052 A 
HETATM   29  C   UNK N   1      29.747  25.779  -7.309  0.00  0.00     0.040 C 
HETATM   30  C   UNK N   1      30.046  22.273  -3.845  0.00  0.00     0.117 A 
HETATM   31  F   UNK N   1      30.040  20.975  -3.462  0.00  0.00    -0.206 F 
HETATM   32  C   UNK N   1      30.384  23.270  -2.924  0.00  0.00     0.045 A 
ENDBRANCH  19  22
ENDBRANCH  18  19
ENDBRANCH   1  18
TORSDOF 8
ENDMDL
MODEL 9
REMARK VINA RESULT:      -8.1      1.688      2.701
REMARK  8 active torsions:
REMARK  status: ('A' for Active; 'I' for Inactive)
REMARK    1  A    between atoms: O_5  and  C_10 
REMARK    2  A    between atoms: O_6  and  C_11 
REMARK    3  A    between atoms: N_7  and  C_14 
REMARK    4  A    between atoms: N_7  and  C_15 
REMARK    5  A    between atoms: C_8  and  C_10 
REMARK    6  A    between atoms: C_9  and  C_11 
REMARK    7  A    between atoms: C_10  and  C_14 
REMARK    8  A    between atoms: C_11  and  C_15 
ROOT
HETATM    1  N   UNK N   1      33.977  14.582  11.304  0.00  0.00    -0.416 N 
HETATM    2  H   UNK N   1      33.133  14.845  11.814  0.00  0.00     0.153 HD
ENDROOT
BRANCH   1   3
HETATM    3  C   UNK N   1      34.938  13.561  11.665  0.00  0.00     0.148 C 
BRANCH   3   4
HETATM    4  C   UNK N   1      35.912  14.104  12.695  0.00  0.00     0.164 C 
BRANCH   4   5
HETATM    5  O   UNK N   1      37.175  14.182  12.107  0.00  0.00    -0.391 OA
HETATM    6  H   UNK N   1      37.620  13.395  11.753  0.00  0.00     0.210 HD
ENDBRANCH   4   5
BRANCH   4   7
HETATM    7  C   UNK N   1      35.945  13.135  13.864  0.00  0.00     0.159 C 
HETATM    8  O   UNK N   1      35.443  13.704  15.018  0.00  0.00    -0.343 OA
HETATM    9  C   UNK N   1      35.342  12.966  16.148  0.00  0.00     0.075 A 
HETATM   10  C   UNK N   1      35.329  11.557  16.073  0.00  0.00    -0.022 A 
HETATM   11  C   UNK N   1      35.269  13.600  17.390  0.00  0.00     0.040 A 
HETATM   12  C   UNK N   1      35.375  10.861  14.737  0.00  0.00     0.044 C 
HETATM   13  C   UNK N   1      35.281  10.800  17.247  0.00  0.00     0.052 A 
HETATM   14  C   UNK N   1      35.208  11.832  13.561  0.00  0.00     0.040 C 
HETATM   15  C   UNK N   1      35.233  11.440  18.489  0.00  0.00     0.117 A 
HETATM   16  F   UNK N   1      35.199  10.704  19.625  0.00  0.00    -0.206 F 
HETATM   17  C   UNK N   1      35.218  12.837  18.560  0.00  0.00     0.045 A 
ENDBRANCH   4   7
ENDBRANCH   3   4
ENDBRANCH   1   3
BRANCH   1  18
HETATM   18  C   UNK N   1      34.469  15.151  10.065  0.00  0.00     0.148 C 
BRANCH  18  19
HETATM   19  C   UNK N   1      34.367  16.667  10.066  0.00  0.00     0.164 C 
BRANCH  19  20
HETATM   20  O   UNK N   1      35.659  17.174  10.214  0.00  0.00    -0.391 OA
HETATM   21  H   UNK N   1      36.299  16.716  10.782  0.00  0.00     0.210 HD
ENDBRANCH  19  20
BRANCH  19  22
HETATM   22  C   UNK N   1      33.757  17.178   8.760  0.00  0.00     0.159 C 
HETATM   23  O   UNK N   1      32.430  16.799   8.670  0.00  0.00    -0.343 OA
HETATM   24  C   UNK N   1      31.721  16.971   7.534  0.00  0.00     0.075 A 
HETATM   25  C   UNK N   1      32.379  17.184   6.307  0.00  0.00    -0.022 A 
HETATM   26  C   UNK N   1      30.324  16.934   7.578  0.00  0.00     0.040 A 
HETATM   27  C   UNK N   1      33.883  17.198   6.246  0.00  0.00     0.044 C 
HETATM   28  C   UNK N   1      31.632  17.377   5.142  0.00  0.00     0.052 A 
HETATM   29  C   UNK N   1      34.528  16.675   7.537  0.00  0.00     0.040 C 
HETATM   30  C   UNK N   1      30.234  17.349   5.194  0.00  0.00     0.117 A 
HETATM   31  F   UNK N   1      29.510  17.533   4.066  0.00  0.00    -0.206 F 
HETATM   32  C   UNK N   1      29.582  17.125   6.411  0.00  0.00     0.045 A 
ENDBRANCH  19  22
ENDBRANCH  18  19
ENDBRANCH   1  18
TORSDOF 8
ENDMDL
