REMARK  11 active torsions:
REMARK  status: ('A' for Active; 'I' for Inactive)
REMARK    1  A    between atoms: C_1  and  O_4 
REMARK    2  A    between atoms: C_2  and  C_5 
REMARK    3  A    between atoms: O_4  and  C_7 
REMARK    4  A    between atoms: C_7  and  C_11 
REMARK    5  A    between atoms: C_8  and  N_12 
REMARK    6  A    between atoms: C_11  and  C_13 
REMARK    7  A    between atoms: C_11  and  O_14 
REMARK       I    between atoms: N_12  and  C_15 
REMARK    8  A    between atoms: C_13  and  N_16 
REMARK       I    between atoms: C_15  and  N_17 
REMARK    9  A    between atoms: N_16  and  C_19 
REMARK   10  A    between atoms: N_17  and  C_20 
REMARK   11  A    between atoms: N_17  and  C_23 
ROOT
HETATM    1  C   UNK N   1      -0.558   1.390   0.660  0.00  0.00     0.082 A 
HETATM    2  C   UNK N   1      -1.525   0.873  -0.243  0.00  0.00     0.045 A 
HETATM    3  C   UNK N   1       0.382   0.527   1.238  0.00  0.00     0.040 A 
HETATM    4  C   UNK N   1       0.393  -0.831   0.928  0.00  0.00     0.032 A 
HETATM    5  C   UNK N   1      -0.563  -1.353   0.062  0.00  0.00     0.037 A 
HETATM    6  C   UNK N   1      -1.500  -0.498  -0.533  0.00  0.00     0.047 A 
ENDROOT
BRANCH   1   7
HETATM    7  O   UNK N   1      -0.496   2.699   0.986  0.00  0.00    -0.348 OA
BRANCH   7   8
HETATM    8  C   UNK N   1      -0.064   3.672   0.103  0.00  0.00     0.209 C 
BRANCH   8   9
HETATM    9  C   UNK N   1       1.398   3.476  -0.315  0.00  0.00     0.159 C 
BRANCH   9  10
HETATM   10  C   UNK N   1       2.276   3.147   0.892  0.00  0.00     0.148 C 
BRANCH  10  11
HETATM   11  N   UNK N   1       3.656   3.619   0.740  0.00  0.00    -0.411 N 
HETATM   12  H   UNK N   1       4.006   4.451   1.216  0.00  0.00     0.154 HD
BRANCH  11  13
HETATM   13  C   UNK N   1       4.497   2.804  -0.149  0.00  0.00     0.014 C 
HETATM   14  C   UNK N   1       5.946   3.072   0.198  0.00  0.00     0.037 C 
HETATM   15  C   UNK N   1       4.253   1.307   0.007  0.00  0.00     0.037 C 
HETATM   16  C   UNK N   1       4.290   3.217  -1.594  0.00  0.00     0.037 C 
ENDBRANCH  11  13
ENDBRANCH  10  11
ENDBRANCH   9  10
BRANCH   9  17
HETATM   17  O   UNK N   1       1.481   2.450  -1.258  0.00  0.00    -0.392 OA
HETATM   18  H   UNK N   1       0.893   2.043  -1.913  0.00  0.00     0.210 HD
ENDBRANCH   9  17
ENDBRANCH   8   9
ENDBRANCH   7   8
ENDBRANCH   1   7
BRANCH   2  19
HETATM   19  C   UNK N   1      -2.586   1.709  -0.875  0.00  0.00     0.158 C 
HETATM   20  C   UNK N   1      -3.567   1.098  -1.826  0.00  0.00     0.097 C 
HETATM   21  O   UNK N   1      -2.695   2.894  -0.608  0.00  0.00    -0.293 OA
ENDBRANCH   2  19
BRANCH   5  22
HETATM   22  N   UNK N   1      -0.524  -2.725  -0.287  0.00  0.00    -0.309 N 
HETATM   23  C   UNK N   1      -1.593  -3.569  -0.413  0.00  0.00     0.322 C 
HETATM   24  N   UNK N   1      -2.813  -3.340   0.186  0.00  0.00    -0.335 N 
HETATM   25  O   UNK N   1      -1.431  -4.595  -1.057  0.00  0.00    -0.247 OA
HETATM   26  H   UNK N   1       0.365  -3.112  -0.456  0.00  0.00     0.170 HD
BRANCH  24  27
HETATM   27  C   UNK N   1      -3.881  -4.301  -0.014  0.00  0.00     0.123 C 
HETATM   28  C   UNK N   1      -4.962  -3.723  -0.911  0.00  0.00     0.026 C 
ENDBRANCH  24  27
BRANCH  24  29
HETATM   29  C   UNK N   1      -3.009  -2.302   1.183  0.00  0.00     0.123 C 
HETATM   30  C   UNK N   1      -4.145  -1.357   0.822  0.00  0.00     0.026 C 
ENDBRANCH  24  29
ENDBRANCH   5  22
TORSDOF 11
