MODEL 1
REMARK VINA RESULT:      -8.1      0.000      0.000
REMARK  8 active torsions:
REMARK  status: ('A' for Active; 'I' for Inactive)
REMARK    1  A    between atoms: C_3  and  C_2 
REMARK    2  A    between atoms: C_10  and  C_2 
REMARK    3  A    between atoms: C_11  and  C_3 
REMARK    4  A    between atoms: N_28  and  C_10 
REMARK    5  A    between atoms: N_29  and  C_11 
REMARK    6  A    between atoms: C_20  and  C_16 
REMARK    7  A    between atoms: C_21  and  C_18 
REMARK    8  A    between atoms: N_25  and  N_30 
ROOT
HETATM    1  C   UNK N   1      34.997  17.027   9.369  0.00  0.00     0.257 A 
HETATM    2  C   UNK N   1      34.150  17.454   8.206  0.00  0.00     0.247 A 
HETATM    3  C   UNK N   1      33.032  15.851   9.130  0.00  0.00     0.346 A 
HETATM    4  N   UNK N   1      33.021  16.735   8.149  0.00  0.00    -0.267 N 
HETATM    5  N   UNK N   1      34.163  15.941   9.843  0.00  0.00    -0.234 N 
HETATM    6  O   UNK N   1      34.452  18.312   7.395  0.00  0.00    -0.271 OA
HETATM    7  O   UNK N   1      32.168  15.005   9.299  0.00  0.00    -0.245 OA
ENDROOT
BRANCH   5   8
HETATM    8  N   UNK N   1      34.703  14.894  10.531  0.00  0.00    -0.303 N 
HETATM    9  C   UNK N   1      35.058  14.975  11.763  0.00  0.00     0.144 C 
ATOM     10  HN  UNK N   1      34.831  14.007  10.043  1.00  0.00     0.186 HD
BRANCH   9  11
HETATM   11  C   UNK N   1      35.168  13.714  12.428  0.00  0.00     0.093 A 
HETATM   12  C   UNK N   1      35.106  12.427  11.941  0.00  0.00     0.041 A 
HETATM   13  C   UNK N   1      35.166  11.618  13.078  0.00  0.00     0.041 A 
HETATM   14  C   UNK N   1      35.284  12.499  14.146  0.00  0.00     0.086 A 
HETATM   15  O   UNK N   1      35.290  13.709  13.714  0.00  0.00    -0.309 OA
BRANCH  14  16
HETATM   16  C   UNK N   1      35.298  12.257  15.578  0.00  0.00    -0.002 A 
HETATM   17  C   UNK N   1      35.297  10.970  16.113  0.00  0.00     0.016 A 
HETATM   18  C   UNK N   1      35.239  10.803  17.500  0.00  0.00     0.024 A 
HETATM   19  C   UNK N   1      35.187  11.920  18.344  0.00  0.00     0.034 A 
HETATM   20  C   UNK N   1      35.189  13.206  17.808  0.00  0.00     0.024 A 
HETATM   21 Cl   UNK N   1      35.132  11.712  20.077  0.00  0.00    -0.084 Cl
HETATM   22  C   UNK N   1      35.234  13.372  16.430  0.00  0.00     0.016 A 
ENDBRANCH  14  16
ENDBRANCH   9  11
ENDBRANCH   5   8
BRANCH   4  23
HETATM   23  C   UNK N   1      32.003  16.830   7.158  0.00  0.00     0.137 C 
BRANCH  23  24
HETATM   24  C   UNK N   1      30.946  17.679   7.755  0.00  0.00     0.022 C 
BRANCH  24  25
HETATM   25  C   UNK N   1      29.609  17.241   7.211  0.00  0.00     0.032 C 
BRANCH  25  26
HETATM   26  C   UNK N   1      28.596  18.325   7.534  0.00  0.00     0.272 C 
BRANCH  26  27
HETATM   27  N   UNK N   1      27.819  18.792   6.379  0.00  0.00     0.091 N 
HETATM   28  C   UNK N   1      28.444  18.551   5.074  0.00  0.00     0.302 C 
HETATM   29  C   UNK N   1      27.457  18.873   3.977  0.00  0.00     0.302 C 
HETATM   30  N   UNK N   1      27.011  20.262   4.083  0.00  0.00     0.087 N 
HETATM   31  C   UNK N   1      25.892  20.377   3.168  0.00  0.00     0.310 C 
HETATM   32  C   UNK N   1      26.486  20.551   5.423  0.00  0.00     0.302 C 
HETATM   33  C   UNK N   1      27.518  20.209   6.496  0.00  0.00     0.302 C 
ENDBRANCH  26  27
ENDBRANCH  25  26
ENDBRANCH  24  25
ENDBRANCH  23  24
ENDBRANCH   4  23
TORSDOF 8
ENDMDL
MODEL 2
REMARK VINA RESULT:      -7.9      2.096      2.970
REMARK  8 active torsions:
REMARK  status: ('A' for Active; 'I' for Inactive)
REMARK    1  A    between atoms: C_3  and  C_2 
REMARK    2  A    between atoms: C_10  and  C_2 
REMARK    3  A    between atoms: C_11  and  C_3 
REMARK    4  A    between atoms: N_28  and  C_10 
REMARK    5  A    between atoms: N_29  and  C_11 
REMARK    6  A    between atoms: C_20  and  C_16 
REMARK    7  A    between atoms: C_21  and  C_18 
REMARK    8  A    between atoms: N_25  and  N_30 
ROOT
HETATM    1  C   UNK N   1      32.067  15.130   9.412  0.00  0.00     0.257 A 
HETATM    2  C   UNK N   1      32.060  16.212   8.373  0.00  0.00     0.247 A 
HETATM    3  C   UNK N   1      34.085  16.200   9.126  0.00  0.00     0.346 A 
HETATM    4  N   UNK N   1      33.272  16.770   8.257  0.00  0.00    -0.267 N 
HETATM    5  N   UNK N   1      33.441  15.275   9.851  0.00  0.00    -0.234 N 
HETATM    6  O   UNK N   1      31.082  16.570   7.738  0.00  0.00    -0.271 OA
HETATM    7  O   UNK N   1      35.243  16.542   9.307  0.00  0.00    -0.245 OA
ENDROOT
BRANCH   5   8
HETATM    8  N   UNK N   1      33.813  14.915  11.113  0.00  0.00    -0.303 N 
HETATM    9  C   UNK N   1      34.571  13.908  11.358  0.00  0.00     0.144 C 
ATOM     10  HN  UNK N   1      33.471  15.471  11.898  1.00  0.00     0.186 HD
BRANCH   9  11
HETATM   11  C   UNK N   1      35.210  13.949  12.637  0.00  0.00     0.093 A 
HETATM   12  C   UNK N   1      36.295  14.672  13.083  0.00  0.00     0.041 A 
HETATM   13  C   UNK N   1      36.515  14.208  14.382  0.00  0.00     0.041 A 
HETATM   14  C   UNK N   1      35.522  13.263  14.605  0.00  0.00     0.086 A 
HETATM   15  O   UNK N   1      34.781  13.155  13.561  0.00  0.00    -0.309 OA
BRANCH  14  16
HETATM   16  C   UNK N   1      35.291  12.379  15.734  0.00  0.00    -0.002 A 
HETATM   17  C   UNK N   1      35.443  12.804  17.052  0.00  0.00     0.016 A 
HETATM   18  C   UNK N   1      35.276  11.886  18.094  0.00  0.00     0.024 A 
HETATM   19  C   UNK N   1      34.952  10.552  17.813  0.00  0.00     0.034 A 
HETATM   20  C   UNK N   1      34.799  10.129  16.495  0.00  0.00     0.024 A 
HETATM   21 Cl   UNK N   1      34.725   9.409  19.114  0.00  0.00    -0.084 Cl
HETATM   22  C   UNK N   1      34.979  11.037  15.459  0.00  0.00     0.016 A 
ENDBRANCH  14  16
ENDBRANCH   9  11
ENDBRANCH   5   8
BRANCH   4  23
HETATM   23  C   UNK N   1      33.630  17.854   7.406  0.00  0.00     0.137 C 
BRANCH  23  24
HETATM   24  C   UNK N   1      34.067  17.234   6.134  0.00  0.00     0.022 C 
BRANCH  24  25
HETATM   25  C   UNK N   1      33.108  17.641   5.042  0.00  0.00     0.032 C 
BRANCH  25  26
HETATM   26  C   UNK N   1      32.572  16.377   4.398  0.00  0.00     0.272 C 
BRANCH  26  27
HETATM   27  N   UNK N   1      31.109  16.334   4.274  0.00  0.00     0.091 N 
HETATM   28  C   UNK N   1      30.611  15.843   2.985  0.00  0.00     0.302 C 
HETATM   29  C   UNK N   1      29.115  15.642   3.068  0.00  0.00     0.302 C 
HETATM   30  N   UNK N   1      28.452  16.894   3.431  0.00  0.00     0.087 N 
HETATM   31  C   UNK N   1      27.083  16.528   3.737  0.00  0.00     0.310 C 
HETATM   32  C   UNK N   1      29.019  17.460   4.661  0.00  0.00     0.302 C 
HETATM   33  C   UNK N   1      30.529  17.643   4.529  0.00  0.00     0.302 C 
ENDBRANCH  26  27
ENDBRANCH  25  26
ENDBRANCH  24  25
ENDBRANCH  23  24
ENDBRANCH   4  23
TORSDOF 8
ENDMDL
MODEL 3
REMARK VINA RESULT:      -7.7      1.400      2.080
REMARK  8 active torsions:
REMARK  status: ('A' for Active; 'I' for Inactive)
REMARK    1  A    between atoms: C_3  and  C_2 
REMARK    2  A    between atoms: C_10  and  C_2 
REMARK    3  A    between atoms: C_11  and  C_3 
REMARK    4  A    between atoms: N_28  and  C_10 
REMARK    5  A    between atoms: N_29  and  C_11 
REMARK    6  A    between atoms: C_20  and  C_16 
REMARK    7  A    between atoms: C_21  and  C_18 
REMARK    8  A    between atoms: N_25  and  N_30 
ROOT
HETATM    1  C   UNK N   1      34.132  17.050   8.813  0.00  0.00     0.257 A 
HETATM    2  C   UNK N   1      33.915  16.770   7.355  0.00  0.00     0.247 A 
HETATM    3  C   UNK N   1      32.908  15.150   8.371  0.00  0.00     0.346 A 
HETATM    4  N   UNK N   1      33.182  15.662   7.185  0.00  0.00    -0.267 N 
HETATM    5  N   UNK N   1      33.463  15.881   9.348  0.00  0.00    -0.234 N 
HETATM    6  O   UNK N   1      34.368  17.434   6.437  0.00  0.00    -0.271 OA
HETATM    7  O   UNK N   1      32.312  14.099   8.542  0.00  0.00    -0.245 OA
ENDROOT
BRANCH   5   8
HETATM    8  N   UNK N   1      33.815  15.369  10.562  0.00  0.00    -0.303 N 
HETATM    9  C   UNK N   1      34.770  14.523  10.714  0.00  0.00     0.144 C 
ATOM     10  HN  UNK N   1      33.296  15.672  11.387  1.00  0.00     0.186 HD
BRANCH   9  11
HETATM   11  C   UNK N   1      35.285  14.449  12.046  0.00  0.00     0.093 A 
HETATM   12  C   UNK N   1      36.257  15.191  12.682  0.00  0.00     0.041 A 
HETATM   13  C   UNK N   1      36.401  14.583  13.931  0.00  0.00     0.041 A 
HETATM   14  C   UNK N   1      35.479  13.544  13.939  0.00  0.00     0.086 A 
HETATM   15  O   UNK N   1      34.847  13.514  12.821  0.00  0.00    -0.309 OA
BRANCH  14  16
HETATM   16  C   UNK N   1      35.227  12.508  14.925  0.00  0.00    -0.002 A 
HETATM   17  C   UNK N   1      35.857  12.498  16.168  0.00  0.00     0.016 A 
HETATM   18  C   UNK N   1      35.627  11.434  17.047  0.00  0.00     0.024 A 
HETATM   19  C   UNK N   1      34.766  10.391  16.681  0.00  0.00     0.034 A 
HETATM   20  C   UNK N   1      34.136  10.403  15.438  0.00  0.00     0.024 A 
HETATM   21 Cl   UNK N   1      34.464   9.072  17.784  0.00  0.00    -0.084 Cl
HETATM   22  C   UNK N   1      34.375  11.452  14.560  0.00  0.00     0.016 A 
ENDBRANCH  14  16
ENDBRANCH   9  11
ENDBRANCH   5   8
BRANCH   4  23
HETATM   23  C   UNK N   1      32.816  15.067   5.944  0.00  0.00     0.137 C 
BRANCH  23  24
HETATM   24  C   UNK N   1      31.339  15.155   5.881  0.00  0.00     0.022 C 
BRANCH  24  25
HETATM   25  C   UNK N   1      30.956  16.546   5.439  0.00  0.00     0.032 C 
BRANCH  25  26
HETATM   26  C   UNK N   1      30.063  17.146   6.510  0.00  0.00     0.272 C 
BRANCH  26  27
HETATM   27  N   UNK N   1      29.082  18.115   6.006  0.00  0.00     0.091 N 
HETATM   28  C   UNK N   1      28.183  18.671   7.022  0.00  0.00     0.302 C 
HETATM   29  C   UNK N   1      27.382  19.802   6.421  0.00  0.00     0.302 C 
HETATM   30  N   UNK N   1      26.620  19.330   5.265  0.00  0.00     0.087 N 
HETATM   31  C   UNK N   1      26.115  20.528   4.624  0.00  0.00     0.310 C 
HETATM   32  C   UNK N   1      27.492  18.668   4.288  0.00  0.00     0.302 C 
HETATM   33  C   UNK N   1      28.279  17.534   4.942  0.00  0.00     0.302 C 
ENDBRANCH  26  27
ENDBRANCH  25  26
ENDBRANCH  24  25
ENDBRANCH  23  24
ENDBRANCH   4  23
TORSDOF 8
ENDMDL
MODEL 4
REMARK VINA RESULT:      -7.5      2.407      3.044
REMARK  8 active torsions:
REMARK  status: ('A' for Active; 'I' for Inactive)
REMARK    1  A    between atoms: C_3  and  C_2 
REMARK    2  A    between atoms: C_10  and  C_2 
REMARK    3  A    between atoms: C_11  and  C_3 
REMARK    4  A    between atoms: N_28  and  C_10 
REMARK    5  A    between atoms: N_29  and  C_11 
REMARK    6  A    between atoms: C_20  and  C_16 
REMARK    7  A    between atoms: C_21  and  C_18 
REMARK    8  A    between atoms: N_25  and  N_30 
ROOT
HETATM    1  C   UNK N   1      35.030  17.296   9.945  0.00  0.00     0.257 A 
HETATM    2  C   UNK N   1      34.566  17.959   8.681  0.00  0.00     0.247 A 
HETATM    3  C   UNK N   1      33.359  16.173   8.828  0.00  0.00     0.346 A 
HETATM    4  N   UNK N   1      33.585  17.254   8.104  0.00  0.00    -0.267 N 
HETATM    5  N   UNK N   1      34.188  16.118   9.880  0.00  0.00    -0.234 N 
HETATM    6  O   UNK N   1      35.035  18.983   8.212  0.00  0.00    -0.271 OA
HETATM    7  O   UNK N   1      32.566  15.296   8.522  0.00  0.00    -0.245 OA
ENDROOT
BRANCH   5   8
HETATM    8  N   UNK N   1      34.570  14.953  10.476  0.00  0.00    -0.303 N 
HETATM    9  C   UNK N   1      35.278  14.915  11.548  0.00  0.00     0.144 C 
ATOM     10  HN  UNK N   1      34.281  14.071  10.051  1.00  0.00     0.186 HD
BRANCH   9  11
HETATM   11  C   UNK N   1      35.199  13.679  12.262  0.00  0.00     0.093 A 
HETATM   12  C   UNK N   1      34.936  12.398  11.827  0.00  0.00     0.041 A 
HETATM   13  C   UNK N   1      34.882  11.634  12.995  0.00  0.00     0.041 A 
HETATM   14  C   UNK N   1      35.143  12.527  14.027  0.00  0.00     0.086 A 
HETATM   15  O   UNK N   1      35.330  13.704  13.547  0.00  0.00    -0.309 OA
BRANCH  14  16
HETATM   16  C   UNK N   1      35.132  12.342  15.467  0.00  0.00    -0.002 A 
HETATM   17  C   UNK N   1      34.905  13.397  16.349  0.00  0.00     0.016 A 
HETATM   18  C   UNK N   1      34.978  13.168  17.727  0.00  0.00     0.024 A 
HETATM   19  C   UNK N   1      35.273  11.889  18.215  0.00  0.00     0.034 A 
HETATM   20  C   UNK N   1      35.500  10.835  17.332  0.00  0.00     0.024 A 
HETATM   21 Cl   UNK N   1      35.348  11.599  19.935  0.00  0.00    -0.084 Cl
HETATM   22  C   UNK N   1      35.440  11.065  15.963  0.00  0.00     0.016 A 
ENDBRANCH  14  16
ENDBRANCH   9  11
ENDBRANCH   5   8
BRANCH   4  23
HETATM   23  C   UNK N   1      32.934  17.552   6.874  0.00  0.00     0.137 C 
BRANCH  23  24
HETATM   24  C   UNK N   1      33.824  17.022   5.815  0.00  0.00     0.022 C 
BRANCH  24  25
HETATM   25  C   UNK N   1      33.039  16.919   4.530  0.00  0.00     0.032 C 
BRANCH  25  26
HETATM   26  C   UNK N   1      31.612  17.347   4.821  0.00  0.00     0.272 C 
BRANCH  26  27
HETATM   27  N   UNK N   1      30.606  16.305   4.577  0.00  0.00     0.091 N 
HETATM   28  C   UNK N   1      31.150  14.977   4.277  0.00  0.00     0.302 C 
HETATM   29  C   UNK N   1      30.028  13.965   4.266  0.00  0.00     0.302 C 
HETATM   30  N   UNK N   1      29.015  14.337   3.280  0.00  0.00     0.087 N 
HETATM   31  C   UNK N   1      27.887  13.465   3.542  0.00  0.00     0.310 C 
HETATM   32  C   UNK N   1      28.541  15.709   3.497  0.00  0.00     0.302 C 
HETATM   33  C   UNK N   1      29.709  16.694   3.501  0.00  0.00     0.302 C 
ENDBRANCH  26  27
ENDBRANCH  25  26
ENDBRANCH  24  25
ENDBRANCH  23  24
ENDBRANCH   4  23
TORSDOF 8
ENDMDL
MODEL 5
REMARK VINA RESULT:      -7.5      1.763      2.795
REMARK  8 active torsions:
REMARK  status: ('A' for Active; 'I' for Inactive)
REMARK    1  A    between atoms: C_3  and  C_2 
REMARK    2  A    between atoms: C_10  and  C_2 
REMARK    3  A    between atoms: C_11  and  C_3 
REMARK    4  A    between atoms: N_28  and  C_10 
REMARK    5  A    between atoms: N_29  and  C_11 
REMARK    6  A    between atoms: C_20  and  C_16 
REMARK    7  A    between atoms: C_21  and  C_18 
REMARK    8  A    between atoms: N_25  and  N_30 
ROOT
HETATM    1  C   UNK N   1      36.375  14.002   9.731  0.00  0.00     0.257 A 
HETATM    2  C   UNK N   1      35.616  14.421   8.506  0.00  0.00     0.247 A 
HETATM    3  C   UNK N   1      35.481  16.122   9.832  0.00  0.00     0.346 A 
HETATM    4  N   UNK N   1      35.145  15.668   8.639  0.00  0.00    -0.267 N 
HETATM    5  N   UNK N   1      36.155  15.195  10.526  0.00  0.00    -0.234 N 
HETATM    6  O   UNK N   1      35.416  13.718   7.530  0.00  0.00    -0.271 OA
HETATM    7  O   UNK N   1      35.136  17.206  10.275  0.00  0.00    -0.245 OA
ENDROOT
BRANCH   5   8
HETATM    8  N   UNK N   1      36.169  15.137  11.889  0.00  0.00    -0.303 N 
HETATM    9  C   UNK N   1      35.355  14.411  12.567  0.00  0.00     0.144 C 
ATOM     10  HN  UNK N   1      36.858  15.698  12.391  1.00  0.00     0.186 HD
BRANCH   9  11
HETATM   11  C   UNK N   1      35.791  14.124  13.898  0.00  0.00     0.093 A 
HETATM   12  C   UNK N   1      36.807  14.668  14.654  0.00  0.00     0.041 A 
HETATM   13  C   UNK N   1      36.819  13.907  15.825  0.00  0.00     0.041 A 
HETATM   14  C   UNK N   1      35.788  12.988  15.674  0.00  0.00     0.086 A 
HETATM   15  O   UNK N   1      35.213  13.162  14.538  0.00  0.00    -0.309 OA
BRANCH  14  16
HETATM   16  C   UNK N   1      35.372  11.881  16.517  0.00  0.00    -0.002 A 
HETATM   17  C   UNK N   1      35.371  11.969  17.908  0.00  0.00     0.016 A 
HETATM   18  C   UNK N   1      35.028  10.845  18.667  0.00  0.00     0.024 A 
HETATM   19  C   UNK N   1      34.685   9.644  18.033  0.00  0.00     0.034 A 
HETATM   20  C   UNK N   1      34.686   9.558  16.642  0.00  0.00     0.024 A 
HETATM   21 Cl   UNK N   1      34.240   8.245  18.979  0.00  0.00    -0.084 Cl
HETATM   22  C   UNK N   1      35.039  10.670  15.888  0.00  0.00     0.016 A 
ENDBRANCH  14  16
ENDBRANCH   9  11
ENDBRANCH   5   8
BRANCH   4  23
HETATM   23  C   UNK N   1      34.343  16.378   7.701  0.00  0.00     0.137 C 
BRANCH  23  24
HETATM   24  C   UNK N   1      32.945  16.200   8.157  0.00  0.00     0.022 C 
BRANCH  24  25
HETATM   25  C   UNK N   1      32.129  17.377   7.683  0.00  0.00     0.032 C 
BRANCH  25  26
HETATM   26  C   UNK N   1      30.668  17.073   7.964  0.00  0.00     0.272 C 
BRANCH  26  27
HETATM   27  N   UNK N   1      29.722  17.959   7.273  0.00  0.00     0.091 N 
HETATM   28  C   UNK N   1      28.574  18.387   8.078  0.00  0.00     0.302 C 
HETATM   29  C   UNK N   1      27.808  19.456   7.333  0.00  0.00     0.302 C 
HETATM   30  N   UNK N   1      27.365  18.953   6.034  0.00  0.00     0.087 N 
HETATM   31  C   UNK N   1      26.888  20.118   5.315  0.00  0.00     0.310 C 
HETATM   32  C   UNK N   1      28.489  18.415   5.260  0.00  0.00     0.302 C 
HETATM   33  C   UNK N   1      29.231  17.341   6.053  0.00  0.00     0.302 C 
ENDBRANCH  26  27
ENDBRANCH  25  26
ENDBRANCH  24  25
ENDBRANCH  23  24
ENDBRANCH   4  23
TORSDOF 8
ENDMDL
MODEL 6
REMARK VINA RESULT:      -7.4      1.443      2.093
REMARK  8 active torsions:
REMARK  status: ('A' for Active; 'I' for Inactive)
REMARK    1  A    between atoms: C_3  and  C_2 
REMARK    2  A    between atoms: C_10  and  C_2 
REMARK    3  A    between atoms: C_11  and  C_3 
REMARK    4  A    between atoms: N_28  and  C_10 
REMARK    5  A    between atoms: N_29  and  C_11 
REMARK    6  A    between atoms: C_20  and  C_16 
REMARK    7  A    between atoms: C_21  and  C_18 
REMARK    8  A    between atoms: N_25  and  N_30 
ROOT
HETATM    1  C   UNK N   1      33.935  13.900   8.810  0.00  0.00     0.257 A 
HETATM    2  C   UNK N   1      32.879  14.762   8.182  0.00  0.00     0.247 A 
HETATM    3  C   UNK N   1      34.135  16.148   9.263  0.00  0.00     0.346 A 
HETATM    4  N   UNK N   1      33.077  16.052   8.479  0.00  0.00    -0.267 N 
HETATM    5  N   UNK N   1      34.649  14.939   9.525  0.00  0.00    -0.234 N 
HETATM    6  O   UNK N   1      31.941  14.352   7.518  0.00  0.00    -0.271 OA
HETATM    7  O   UNK N   1      34.528  17.193   9.759  0.00  0.00    -0.245 OA
ENDROOT
BRANCH   5   8
HETATM    8  N   UNK N   1      35.354  14.650  10.656  0.00  0.00    -0.303 N 
HETATM    9  C   UNK N   1      34.793  14.396  11.784  0.00  0.00     0.144 C 
ATOM     10  HN  UNK N   1      36.373  14.636  10.604  1.00  0.00     0.186 HD
BRANCH   9  11
HETATM   11  C   UNK N   1      35.625  13.690  12.709  0.00  0.00     0.093 A 
HETATM   12  C   UNK N   1      36.809  13.010  12.524  0.00  0.00     0.041 A 
HETATM   13  C   UNK N   1      37.084  12.438  13.768  0.00  0.00     0.041 A 
HETATM   14  C   UNK N   1      36.047  12.850  14.596  0.00  0.00     0.086 A 
HETATM   15  O   UNK N   1      35.227  13.586  13.933  0.00  0.00    -0.309 OA
BRANCH  14  16
HETATM   16  C   UNK N   1      35.738  12.505  15.972  0.00  0.00    -0.002 A 
HETATM   17  C   UNK N   1      35.274  13.449  16.886  0.00  0.00     0.016 A 
HETATM   18  C   UNK N   1      35.062  13.070  18.216  0.00  0.00     0.024 A 
HETATM   19  C   UNK N   1      35.309  11.752  18.622  0.00  0.00     0.034 A 
HETATM   20  C   UNK N   1      35.772  10.810  17.706  0.00  0.00     0.024 A 
HETATM   21 Cl   UNK N   1      35.028  11.274  20.278  0.00  0.00    -0.084 Cl
HETATM   22  C   UNK N   1      35.995  11.189  16.389  0.00  0.00     0.016 A 
ENDBRANCH  14  16
ENDBRANCH   9  11
ENDBRANCH   5   8
BRANCH   4  23
HETATM   23  C   UNK N   1      32.253  17.149   8.096  0.00  0.00     0.137 C 
BRANCH  23  24
HETATM   24  C   UNK N   1      30.978  16.962   8.826  0.00  0.00     0.022 C 
BRANCH  24  25
HETATM   25  C   UNK N   1      29.878  17.658   8.064  0.00  0.00     0.032 C 
BRANCH  25  26
HETATM   26  C   UNK N   1      29.936  17.183   6.624  0.00  0.00     0.272 C 
BRANCH  26  27
HETATM   27  N   UNK N   1      28.650  17.234   5.917  0.00  0.00     0.091 N 
HETATM   28  C   UNK N   1      28.475  16.216   4.876  0.00  0.00     0.302 C 
HETATM   29  C   UNK N   1      27.046  16.238   4.387  0.00  0.00     0.302 C 
HETATM   30  N   UNK N   1      26.703  17.563   3.871  0.00  0.00     0.087 N 
HETATM   31  C   UNK N   1      25.266  17.542   3.685  0.00  0.00     0.310 C 
HETATM   32  C   UNK N   1      26.981  18.608   4.863  0.00  0.00     0.302 C 
HETATM   33  C   UNK N   1      28.435  18.545   5.328  0.00  0.00     0.302 C 
ENDBRANCH  26  27
ENDBRANCH  25  26
ENDBRANCH  24  25
ENDBRANCH  23  24
ENDBRANCH   4  23
TORSDOF 8
ENDMDL
MODEL 7
REMARK VINA RESULT:      -7.4      4.342     11.847
REMARK  8 active torsions:
REMARK  status: ('A' for Active; 'I' for Inactive)
REMARK    1  A    between atoms: C_3  and  C_2 
REMARK    2  A    between atoms: C_10  and  C_2 
REMARK    3  A    between atoms: C_11  and  C_3 
REMARK    4  A    between atoms: N_28  and  C_10 
REMARK    5  A    between atoms: N_29  and  C_11 
REMARK    6  A    between atoms: C_20  and  C_16 
REMARK    7  A    between atoms: C_21  and  C_18 
REMARK    8  A    between atoms: N_25  and  N_30 
ROOT
HETATM    1  C   UNK N   1      33.713  17.498   8.556  0.00  0.00     0.257 A 
HETATM    2  C   UNK N   1      34.554  16.863   9.624  0.00  0.00     0.247 A 
HETATM    3  C   UNK N   1      33.053  15.378   9.165  0.00  0.00     0.346 A 
HETATM    4  N   UNK N   1      34.115  15.629   9.907  0.00  0.00    -0.267 N 
HETATM    5  N   UNK N   1      32.744  16.431   8.395  0.00  0.00    -0.234 N 
HETATM    6  O   UNK N   1      35.491  17.399  10.191  0.00  0.00    -0.271 OA
HETATM    7  O   UNK N   1      32.387  14.358   9.246  0.00  0.00    -0.245 OA
ENDROOT
BRANCH   5   8
HETATM    8  N   UNK N   1      31.482  16.694   7.951  0.00  0.00    -0.303 N 
HETATM    9  C   UNK N   1      30.625  17.362   8.636  0.00  0.00     0.144 C 
ATOM     10  HN  UNK N   1      31.207  16.343   7.033  1.00  0.00     0.186 HD
BRANCH   9  11
HETATM   11  C   UNK N   1      29.558  17.918   7.862  0.00  0.00     0.093 A 
HETATM   12  C   UNK N   1      28.711  18.975   8.118  0.00  0.00     0.041 A 
HETATM   13  C   UNK N   1      27.811  18.969   7.051  0.00  0.00     0.041 A 
HETATM   14  C   UNK N   1      28.218  17.920   6.236  0.00  0.00     0.086 A 
HETATM   15  O   UNK N   1      29.246  17.345   6.748  0.00  0.00    -0.309 OA
BRANCH  14  16
HETATM   16  C   UNK N   1      27.622  17.367   5.032  0.00  0.00    -0.002 A 
HETATM   17  C   UNK N   1      26.461  17.895   4.470  0.00  0.00     0.016 A 
HETATM   18  C   UNK N   1      25.896  17.274   3.351  0.00  0.00     0.024 A 
HETATM   19  C   UNK N   1      26.496  16.136   2.798  0.00  0.00     0.034 A 
HETATM   20  C   UNK N   1      27.658  15.611   3.360  0.00  0.00     0.024 A 
HETATM   21 Cl   UNK N   1      25.802  15.371   1.390  0.00  0.00    -0.084 Cl
HETATM   22  C   UNK N   1      28.212  16.219   4.480  0.00  0.00     0.016 A 
ENDBRANCH  14  16
ENDBRANCH   9  11
ENDBRANCH   5   8
BRANCH   4  23
HETATM   23  C   UNK N   1      34.638  14.748  10.895  0.00  0.00     0.137 C 
BRANCH  23  24
HETATM   24  C   UNK N   1      35.793  14.076  10.258  0.00  0.00     0.022 C 
BRANCH  24  25
HETATM   25  C   UNK N   1      36.822  13.773  11.319  0.00  0.00     0.032 C 
BRANCH  25  26
HETATM   26  C   UNK N   1      36.490  12.418  11.917  0.00  0.00     0.272 C 
BRANCH  26  27
HETATM   27  N   UNK N   1      36.153  12.453  13.346  0.00  0.00     0.091 N 
HETATM   28  C   UNK N   1      34.766  12.096  13.663  0.00  0.00     0.302 C 
HETATM   29  C   UNK N   1      34.613  11.957  15.160  0.00  0.00     0.302 C 
HETATM   30  N   UNK N   1      34.988  13.203  15.829  0.00  0.00     0.087 N 
HETATM   31  C   UNK N   1      35.058  12.874  17.239  0.00  0.00     0.310 C 
HETATM   32  C   UNK N   1      36.333  13.635  15.433  0.00  0.00     0.302 C 
HETATM   33  C   UNK N   1      36.439  13.760  13.914  0.00  0.00     0.302 C 
ENDBRANCH  26  27
ENDBRANCH  25  26
ENDBRANCH  24  25
ENDBRANCH  23  24
ENDBRANCH   4  23
TORSDOF 8
ENDMDL
MODEL 8
REMARK VINA RESULT:      -7.4      4.540     11.972
REMARK  8 active torsions:
REMARK  status: ('A' for Active; 'I' for Inactive)
REMARK    1  A    between atoms: C_3  and  C_2 
REMARK    2  A    between atoms: C_10  and  C_2 
REMARK    3  A    between atoms: C_11  and  C_3 
REMARK    4  A    between atoms: N_28  and  C_10 
REMARK    5  A    between atoms: N_29  and  C_11 
REMARK    6  A    between atoms: C_20  and  C_16 
REMARK    7  A    between atoms: C_21  and  C_18 
REMARK    8  A    between atoms: N_25  and  N_30 
ROOT
HETATM    1  C   UNK N   1      32.818  14.245   9.153  0.00  0.00     0.257 A 
HETATM    2  C   UNK N   1      34.251  13.802   9.136  0.00  0.00     0.247 A 
HETATM    3  C   UNK N   1      34.326  15.841   9.847  0.00  0.00     0.346 A 
HETATM    4  N   UNK N   1      35.059  14.779   9.569  0.00  0.00    -0.267 N 
HETATM    5  N   UNK N   1      33.031  15.612   9.589  0.00  0.00    -0.234 N 
HETATM    6  O   UNK N   1      34.645  12.714   8.749  0.00  0.00    -0.271 OA
HETATM    7  O   UNK N   1      34.785  16.916  10.200  0.00  0.00    -0.245 OA
ENDROOT
BRANCH   5   8
HETATM    8  N   UNK N   1      32.143  16.595   9.266  0.00  0.00    -0.303 N 
HETATM    9  C   UNK N   1      31.437  16.574   8.192  0.00  0.00     0.144 C 
ATOM     10  HN  UNK N   1      32.036  17.383   9.905  1.00  0.00     0.186 HD
BRANCH   9  11
HETATM   11  C   UNK N   1      30.276  17.407   8.236  0.00  0.00     0.093 A 
HETATM   12  C   UNK N   1      29.507  17.832   9.298  0.00  0.00     0.041 A 
HETATM   13  C   UNK N   1      28.448  18.526   8.709  0.00  0.00     0.041 A 
HETATM   14  C   UNK N   1      28.693  18.474   7.342  0.00  0.00     0.086 A 
HETATM   15  O   UNK N   1      29.775  17.819   7.119  0.00  0.00    -0.309 OA
BRANCH  14  16
HETATM   16  C   UNK N   1      27.900  18.938   6.218  0.00  0.00    -0.002 A 
HETATM   17  C   UNK N   1      27.515  18.089   5.182  0.00  0.00     0.016 A 
HETATM   18  C   UNK N   1      26.812  18.611   4.091  0.00  0.00     0.024 A 
HETATM   19  C   UNK N   1      26.494  19.975   4.044  0.00  0.00     0.034 A 
HETATM   20  C   UNK N   1      26.879  20.822   5.081  0.00  0.00     0.024 A 
HETATM   21 Cl   UNK N   1      25.601  20.623   2.691  0.00  0.00    -0.084 Cl
HETATM   22  C   UNK N   1      27.588  20.306   6.158  0.00  0.00     0.016 A 
ENDBRANCH  14  16
ENDBRANCH   9  11
ENDBRANCH   5   8
BRANCH   4  23
HETATM   23  C   UNK N   1      36.480  14.734   9.647  0.00  0.00     0.137 C 
BRANCH  23  24
HETATM   24  C   UNK N   1      36.788  14.252  11.013  0.00  0.00     0.022 C 
BRANCH  24  25
HETATM   25  C   UNK N   1      37.773  13.113  10.913  0.00  0.00     0.032 C 
BRANCH  25  26
HETATM   26  C   UNK N   1      37.112  11.873  11.486  0.00  0.00     0.272 C 
BRANCH  26  27
HETATM   27  N   UNK N   1      36.630  12.027  12.865  0.00  0.00     0.091 N 
HETATM   28  C   UNK N   1      37.370  11.255  13.868  0.00  0.00     0.302 C 
HETATM   29  C   UNK N   1      36.922  11.669  15.251  0.00  0.00     0.302 C 
HETATM   30  N   UNK N   1      35.482  11.462  15.404  0.00  0.00     0.087 N 
HETATM   31  C   UNK N   1      35.129  12.128  16.642  0.00  0.00     0.310 C 
HETATM   32  C   UNK N   1      34.732  12.135  14.338  0.00  0.00     0.302 C 
HETATM   33  C   UNK N   1      35.221  11.687  12.962  0.00  0.00     0.302 C 
ENDBRANCH  26  27
ENDBRANCH  25  26
ENDBRANCH  24  25
ENDBRANCH  23  24
ENDBRANCH   4  23
TORSDOF 8
ENDMDL
MODEL 9
REMARK VINA RESULT:      -7.2      4.553     12.304
REMARK  8 active torsions:
REMARK  status: ('A' for Active; 'I' for Inactive)
REMARK    1  A    between atoms: C_3  and  C_2 
REMARK    2  A    between atoms: C_10  and  C_2 
REMARK    3  A    between atoms: C_11  and  C_3 
REMARK    4  A    between atoms: N_28  and  C_10 
REMARK    5  A    between atoms: N_29  and  C_11 
REMARK    6  A    between atoms: C_20  and  C_16 
REMARK    7  A    between atoms: C_21  and  C_18 
REMARK    8  A    between atoms: N_25  and  N_30 
ROOT
HETATM    1  C   UNK N   1      33.589  18.088   8.187  0.00  0.00     0.257 A 
HETATM    2  C   UNK N   1      34.576  17.339   9.032  0.00  0.00     0.247 A 
HETATM    3  C   UNK N   1      33.448  15.796   8.024  0.00  0.00     0.346 A 
HETATM    4  N   UNK N   1      34.440  16.017   8.867  0.00  0.00    -0.267 N 
HETATM    5  N   UNK N   1      32.889  16.948   7.628  0.00  0.00    -0.234 N 
HETATM    6  O   UNK N   1      35.376  17.851   9.798  0.00  0.00    -0.271 OA
HETATM    7  O   UNK N   1      33.037  14.686   7.725  0.00  0.00    -0.245 OA
ENDROOT
BRANCH   5   8
HETATM    8  N   UNK N   1      31.591  17.054   7.224  0.00  0.00    -0.303 N 
HETATM    9  C   UNK N   1      31.250  17.171   5.990  0.00  0.00     0.144 C 
ATOM     10  HN  UNK N   1      30.858  17.041   7.934  1.00  0.00     0.186 HD
BRANCH   9  11
HETATM   11  C   UNK N   1      29.891  16.819   5.719  0.00  0.00     0.093 A 
HETATM   12  C   UNK N   1      29.267  15.591   5.678  0.00  0.00     0.041 A 
HETATM   13  C   UNK N   1      27.966  15.873   5.253  0.00  0.00     0.041 A 
HETATM   14  C   UNK N   1      27.923  17.254   5.103  0.00  0.00     0.086 A 
HETATM   15  O   UNK N   1      29.067  17.759   5.396  0.00  0.00    -0.309 OA
BRANCH  14  16
HETATM   16  C   UNK N   1      26.871  18.121   4.602  0.00  0.00    -0.002 A 
HETATM   17  C   UNK N   1      25.532  17.735   4.597  0.00  0.00     0.016 A 
HETATM   18  C   UNK N   1      24.575  18.586   4.035  0.00  0.00     0.024 A 
HETATM   19  C   UNK N   1      24.959  19.817   3.488  0.00  0.00     0.034 A 
HETATM   20  C   UNK N   1      26.298  20.201   3.495  0.00  0.00     0.024 A 
HETATM   21 Cl   UNK N   1      23.762  20.887   2.802  0.00  0.00    -0.084 Cl
HETATM   22  C   UNK N   1      27.251  19.351   4.041  0.00  0.00     0.016 A 
ENDBRANCH  14  16
ENDBRANCH   9  11
ENDBRANCH   5   8
BRANCH   4  23
HETATM   23  C   UNK N   1      35.172  14.997   9.538  0.00  0.00     0.137 C 
BRANCH  23  24
HETATM   24  C   UNK N   1      34.563  14.890  10.884  0.00  0.00     0.022 C 
BRANCH  24  25
HETATM   25  C   UNK N   1      35.667  14.795  11.908  0.00  0.00     0.032 C 
BRANCH  25  26
HETATM   26  C   UNK N   1      36.018  13.329  12.079  0.00  0.00     0.272 C 
BRANCH  26  27
HETATM   27  N   UNK N   1      35.900  12.835  13.457  0.00  0.00     0.091 N 
HETATM   28  C   UNK N   1      34.633  12.165  13.767  0.00  0.00     0.302 C 
HETATM   29  C   UNK N   1      34.727  11.518  15.130  0.00  0.00     0.302 C 
HETATM   30  N   UNK N   1      35.040  12.519  16.149  0.00  0.00     0.087 N 
HETATM   31  C   UNK N   1      35.364  11.762  17.342  0.00  0.00     0.310 C 
HETATM   32  C   UNK N   1      36.245  13.278  15.796  0.00  0.00     0.302 C 
HETATM   33  C   UNK N   1      36.103  13.911  14.412  0.00  0.00     0.302 C 
ENDBRANCH  26  27
ENDBRANCH  25  26
ENDBRANCH  24  25
ENDBRANCH  23  24
ENDBRANCH   4  23
TORSDOF 8
ENDMDL
