MODEL 1
REMARK VINA RESULT:      -7.9      0.000      0.000
REMARK  5 active torsions:
REMARK  status: ('A' for Active; 'I' for Inactive)
REMARK    1  A    between atoms: C_9  and  N_5 
REMARK    2  A    between atoms: C_9  and  C_10 
REMARK    3  A    between atoms: C_9  and  C_11 
REMARK    4  A    between atoms: C_9  and  C_12 
REMARK    5  A    between atoms: C_17  and  C_25 
ROOT
HETATM    1  O   UNK N   1      21.289  21.291   2.164  0.00  0.00    -0.268 OA
HETATM    2  N   UNK N   1      20.951  19.185   2.887  0.00  0.00    -0.318 N 
HETATM    3  C   UNK N   1      22.423  15.750   4.821  0.00  0.00    -0.019 A 
HETATM    4  C   UNK N   1      22.815  18.012   3.921  0.00  0.00     0.003 A 
HETATM    5  C   UNK N   1      23.278  16.852   4.600  0.00  0.00     0.025 A 
HETATM    6  C   UNK N   1      21.456  18.064   3.493  0.00  0.00     0.048 A 
HETATM    7  C   UNK N   1      21.100  15.845   4.353  0.00  0.00     0.013 A 
HETATM    8  C   UNK N   1      23.645  19.147   3.685  0.00  0.00    -0.008 A 
HETATM    9  C   UNK N   1      20.629  16.964   3.704  0.00  0.00     0.031 A 
HETATM   10  C   UNK N   1      23.072  20.274   3.082  0.00  0.00     0.087 A 
HETATM   11  C   UNK N   1      21.743  20.289   2.689  0.00  0.00     0.248 A 
HETATM   12  C   UNK N   1      19.551  19.228   2.456  0.00  0.00     0.159 C 
ENDROOT
BRANCH   3  13
HETATM   13  C   UNK N   1      22.800  14.525   5.689  0.00  0.00     0.124 C 
BRANCH  13  14
HETATM   14  N   UNK N   1      22.291  13.339   5.010  0.00  0.00    -0.409 N 
HETATM   15  H   UNK N   1      22.038  12.478   4.525  0.00  0.00     0.151 HD
HETATM   16  H   UNK N   1      21.321  13.641   5.092  0.00  0.00     0.151 HD
ENDBRANCH  13  14
BRANCH  13  17
HETATM   17  C   UNK N   1      22.210  14.515   7.101  0.00  0.00     0.065 A 
HETATM   18  N   UNK N   1      22.385  13.540   8.014  0.00  0.00    -0.347 N 
HETATM   19  C   UNK N   1      21.780  13.952   9.141  0.00  0.00     0.182 A 
HETATM   20  C   UNK N   1      23.149  12.312   7.885  0.00  0.00     0.157 C 
HETATM   21  N   UNK N   1      21.220  15.169   8.973  0.00  0.00    -0.360 N 
HETATM   22  C   UNK N   1      21.493  15.535   7.702  0.00  0.00     0.117 A 
ATOM     23  HN  UNK N   1      20.697  15.703   9.666  1.00  0.00     0.166 HD
ENDBRANCH  13  17
BRANCH  13  24
HETATM   24  C   UNK N   1      24.335  14.458   5.744  0.00  0.00    -0.020 A 
HETATM   25  C   UNK N   1      25.038  15.330   6.600  0.00  0.00     0.012 A 
HETATM   26  C   UNK N   1      26.429  15.414   6.542  0.00  0.00     0.024 A 
HETATM   27  C   UNK N   1      27.137  14.638   5.623  0.00  0.00     0.034 A 
HETATM   28 Cl   UNK N   1      28.874  14.801   5.505  0.00  0.00    -0.084 Cl
HETATM   29  C   UNK N   1      26.455  13.752   4.783  0.00  0.00     0.024 A 
HETATM   30  C   UNK N   1      25.062  13.662   4.841  0.00  0.00     0.012 A 
ENDBRANCH  13  24
ENDBRANCH   3  13
BRANCH   8  31
HETATM   31  C   UNK N   1      25.104  19.221   4.001  0.00  0.00    -0.023 A 
HETATM   32  C   UNK N   1      25.639  20.236   4.808  0.00  0.00     0.036 A 
HETATM   33  C   UNK N   1      26.995  20.226   5.159  0.00  0.00     0.034 A 
HETATM   34 Cl   UNK N   1      27.639  21.459   6.219  0.00  0.00    -0.084 Cl
HETATM   35  C   UNK N   1      27.831  19.210   4.695  0.00  0.00     0.024 A 
HETATM   36  C   UNK N   1      27.315  18.196   3.889  0.00  0.00     0.003 A 
HETATM   37  C   UNK N   1      25.959  18.192   3.561  0.00  0.00     0.012 A 
ENDBRANCH   8  31
TORSDOF 5
ENDMDL
MODEL 2
REMARK VINA RESULT:      -7.8      4.252      7.600
REMARK  5 active torsions:
REMARK  status: ('A' for Active; 'I' for Inactive)
REMARK    1  A    between atoms: C_9  and  N_5 
REMARK    2  A    between atoms: C_9  and  C_10 
REMARK    3  A    between atoms: C_9  and  C_11 
REMARK    4  A    between atoms: C_9  and  C_12 
REMARK    5  A    between atoms: C_17  and  C_25 
ROOT
HETATM    1  O   UNK N   1      27.478  11.395   1.434  0.00  0.00    -0.268 OA
HETATM    2  N   UNK N   1      28.259  13.420   2.039  0.00  0.00    -0.318 N 
HETATM    3  C   UNK N   1      27.535  17.232   3.665  0.00  0.00    -0.019 A 
HETATM    4  C   UNK N   1      26.672  15.055   2.892  0.00  0.00     0.003 A 
HETATM    5  C   UNK N   1      26.460  16.336   3.469  0.00  0.00     0.025 A 
HETATM    6  C   UNK N   1      28.000  14.668   2.544  0.00  0.00     0.048 A 
HETATM    7  C   UNK N   1      28.818  16.808   3.278  0.00  0.00     0.013 A 
HETATM    8  C   UNK N   1      25.616  14.122   2.684  0.00  0.00    -0.008 A 
HETATM    9  C   UNK N   1      29.047  15.566   2.729  0.00  0.00     0.031 A 
HETATM   10  C   UNK N   1      25.940  12.853   2.187  0.00  0.00     0.087 A 
HETATM   11  C   UNK N   1      27.245  12.510   1.869  0.00  0.00     0.248 A 
HETATM   12  C   UNK N   1      29.628  13.031   1.689  0.00  0.00     0.159 C 
ENDROOT
BRANCH   3  13
HETATM   13  C   UNK N   1      27.413  18.572   4.432  0.00  0.00     0.124 C 
BRANCH  13  14
HETATM   14  N   UNK N   1      28.438  19.466   3.906  0.00  0.00    -0.409 N 
HETATM   15  H   UNK N   1      29.208  20.003   3.505  0.00  0.00     0.151 HD
HETATM   16  H   UNK N   1      27.946  20.302   4.219  0.00  0.00     0.151 HD
ENDBRANCH  13  14
BRANCH  13  17
HETATM   17  C   UNK N   1      27.633  18.485   5.943  0.00  0.00     0.065 A 
HETATM   18  N   UNK N   1      27.652  19.532   6.791  0.00  0.00    -0.347 N 
HETATM   19  C   UNK N   1      27.785  19.024   8.029  0.00  0.00     0.182 A 
HETATM   20  C   UNK N   1      27.472  20.940   6.488  0.00  0.00     0.157 C 
HETATM   21  N   UNK N   1      27.852  17.677   7.995  0.00  0.00    -0.360 N 
HETATM   22  C   UNK N   1      27.747  17.328   6.695  0.00  0.00     0.117 A 
ATOM     23  HN  UNK N   1      27.961  17.049   8.792  1.00  0.00     0.166 HD
ENDBRANCH  13  17
BRANCH  13  24
HETATM   24  C   UNK N   1      26.025  19.153   4.120  0.00  0.00    -0.020 A 
HETATM   25  C   UNK N   1      24.877  18.544   4.667  0.00  0.00     0.012 A 
HETATM   26  C   UNK N   1      23.602  18.938   4.262  0.00  0.00     0.024 A 
HETATM   27  C   UNK N   1      23.453  19.938   3.300  0.00  0.00     0.034 A 
HETATM   28 Cl   UNK N   1      21.854  20.378   2.745  0.00  0.00    -0.084 Cl
HETATM   29  C   UNK N   1      24.581  20.567   2.765  0.00  0.00     0.024 A 
HETATM   30  C   UNK N   1      25.861  20.178   3.171  0.00  0.00     0.012 A 
ENDBRANCH  13  24
ENDBRANCH   3  13
BRANCH   8  31
HETATM   31  C   UNK N   1      24.167  14.401   2.924  0.00  0.00    -0.023 A 
HETATM   32  C   UNK N   1      23.274  14.648   1.871  0.00  0.00     0.036 A 
HETATM   33  C   UNK N   1      21.907  14.817   2.124  0.00  0.00     0.034 A 
HETATM   34 Cl   UNK N   1      20.791  15.060   0.798  0.00  0.00    -0.084 Cl
HETATM   35  C   UNK N   1      21.422  14.754   3.430  0.00  0.00     0.024 A 
HETATM   36  C   UNK N   1      22.298  14.513   4.487  0.00  0.00     0.003 A 
HETATM   37  C   UNK N   1      23.656  14.319   4.234  0.00  0.00     0.012 A 
ENDBRANCH   8  31
TORSDOF 5
ENDMDL
MODEL 3
REMARK VINA RESULT:      -7.6      3.591      6.413
REMARK  5 active torsions:
REMARK  status: ('A' for Active; 'I' for Inactive)
REMARK    1  A    between atoms: C_9  and  N_5 
REMARK    2  A    between atoms: C_9  and  C_10 
REMARK    3  A    between atoms: C_9  and  C_11 
REMARK    4  A    between atoms: C_9  and  C_12 
REMARK    5  A    between atoms: C_17  and  C_25 
ROOT
HETATM    1  O   UNK N   1      20.174  14.677   7.702  0.00  0.00    -0.268 OA
HETATM    2  N   UNK N   1      22.384  14.777   7.279  0.00  0.00    -0.318 N 
HETATM    3  C   UNK N   1      25.578  16.480   5.133  0.00  0.00    -0.019 A 
HETATM    4  C   UNK N   1      23.151  16.278   5.524  0.00  0.00     0.003 A 
HETATM    5  C   UNK N   1      24.250  16.862   4.837  0.00  0.00     0.025 A 
HETATM    6  C   UNK N   1      23.410  15.322   6.550  0.00  0.00     0.048 A 
HETATM    7  C   UNK N   1      25.772  15.513   6.135  0.00  0.00     0.013 A 
HETATM    8  C   UNK N   1      21.799  16.640   5.259  0.00  0.00    -0.008 A 
HETATM    9  C   UNK N   1      24.722  14.945   6.821  0.00  0.00     0.031 A 
HETATM   10  C   UNK N   1      20.792  16.070   6.048  0.00  0.00     0.087 A 
HETATM   11  C   UNK N   1      21.084  15.151   7.044  0.00  0.00     0.248 A 
HETATM   12  C   UNK N   1      22.662  13.799   8.334  0.00  0.00     0.159 C 
ENDROOT
BRANCH   3  13
HETATM   13  C   UNK N   1      26.828  17.182   4.549  0.00  0.00     0.124 C 
BRANCH  13  14
HETATM   14  N   UNK N   1      26.360  18.329   3.779  0.00  0.00    -0.409 N 
HETATM   15  H   UNK N   1      26.013  19.180   3.335  0.00  0.00     0.151 HD
HETATM   16  H   UNK N   1      26.543  17.872   2.885  0.00  0.00     0.151 HD
ENDBRANCH  13  14
BRANCH  13  17
HETATM   17  C   UNK N   1      27.677  16.330   3.604  0.00  0.00     0.065 A 
HETATM   18  N   UNK N   1      27.200  15.460   2.692  0.00  0.00    -0.347 N 
HETATM   19  C   UNK N   1      28.260  14.987   2.017  0.00  0.00     0.182 A 
HETATM   20  C   UNK N   1      25.816  15.137   2.395  0.00  0.00     0.157 C 
HETATM   21  N   UNK N   1      29.408  15.531   2.473  0.00  0.00    -0.360 N 
HETATM   22  C   UNK N   1      29.053  16.382   3.459  0.00  0.00     0.117 A 
ATOM     23  HN  UNK N   1      30.352  15.338   2.139  1.00  0.00     0.166 HD
ENDBRANCH  13  17
BRANCH  13  24
HETATM   24  C   UNK N   1      27.671  17.677   5.735  0.00  0.00    -0.020 A 
HETATM   25  C   UNK N   1      28.572  16.795   6.363  0.00  0.00     0.012 A 
HETATM   26  C   UNK N   1      29.217  17.160   7.545  0.00  0.00     0.024 A 
HETATM   27  C   UNK N   1      28.965  18.405   8.121  0.00  0.00     0.034 A 
HETATM   28 Cl   UNK N   1      29.721  18.829   9.640  0.00  0.00    -0.084 Cl
HETATM   29  C   UNK N   1      28.090  19.301   7.498  0.00  0.00     0.024 A 
HETATM   30  C   UNK N   1      27.446  18.940   6.311  0.00  0.00     0.012 A 
ENDBRANCH  13  24
ENDBRANCH   3  13
BRANCH   8  31
HETATM   31  C   UNK N   1      21.358  17.564   4.170  0.00  0.00    -0.023 A 
HETATM   32  C   UNK N   1      21.017  17.098   2.892  0.00  0.00     0.036 A 
HETATM   33  C   UNK N   1      20.522  17.979   1.922  0.00  0.00     0.034 A 
HETATM   34 Cl   UNK N   1      20.037  17.377   0.352  0.00  0.00    -0.084 Cl
HETATM   35  C   UNK N   1      20.377  19.335   2.216  0.00  0.00     0.024 A 
HETATM   36  C   UNK N   1      20.715  19.814   3.480  0.00  0.00     0.003 A 
HETATM   37  C   UNK N   1      21.184  18.933   4.455  0.00  0.00     0.012 A 
ENDBRANCH   8  31
TORSDOF 5
ENDMDL
MODEL 4
REMARK VINA RESULT:      -7.5      3.864      6.716
REMARK  5 active torsions:
REMARK  status: ('A' for Active; 'I' for Inactive)
REMARK    1  A    between atoms: C_9  and  N_5 
REMARK    2  A    between atoms: C_9  and  C_10 
REMARK    3  A    between atoms: C_9  and  C_11 
REMARK    4  A    between atoms: C_9  and  C_12 
REMARK    5  A    between atoms: C_17  and  C_25 
ROOT
HETATM    1  O   UNK N   1      22.292  18.697   4.602  0.00  0.00    -0.268 OA
HETATM    2  N   UNK N   1      24.512  18.807   4.234  0.00  0.00    -0.318 N 
HETATM    3  C   UNK N   1      28.287  16.952   4.338  0.00  0.00    -0.019 A 
HETATM    4  C   UNK N   1      25.874  16.886   4.845  0.00  0.00     0.003 A 
HETATM    5  C   UNK N   1      27.155  16.270   4.838  0.00  0.00     0.025 A 
HETATM    6  C   UNK N   1      25.738  18.197   4.302  0.00  0.00     0.048 A 
HETATM    7  C   UNK N   1      28.099  18.253   3.840  0.00  0.00     0.013 A 
HETATM    8  C   UNK N   1      24.708  16.229   5.334  0.00  0.00    -0.008 A 
HETATM    9  C   UNK N   1      26.864  18.863   3.826  0.00  0.00     0.031 A 
HETATM   10  C   UNK N   1      23.478  16.888   5.220  0.00  0.00     0.087 A 
HETATM   11  C   UNK N   1      23.384  18.160   4.676  0.00  0.00     0.248 A 
HETATM   12  C   UNK N   1      24.383  20.153   3.670  0.00  0.00     0.159 C 
ENDROOT
BRANCH   3  13
HETATM   13  C   UNK N   1      29.675  16.295   4.147  0.00  0.00     0.124 C 
BRANCH  13  14
HETATM   14  N   UNK N   1      30.173  16.707   2.839  0.00  0.00    -0.409 N 
HETATM   15  H   UNK N   1      30.604  16.928   1.941  0.00  0.00     0.151 HD
HETATM   16  H   UNK N   1      29.401  17.356   2.689  0.00  0.00     0.151 HD
ENDBRANCH  13  14
BRANCH  13  17
HETATM   17  C   UNK N   1      29.686  14.765   4.163  0.00  0.00     0.065 A 
HETATM   18  N   UNK N   1      29.181  13.969   3.201  0.00  0.00    -0.347 N 
HETATM   19  C   UNK N   1      29.467  12.705   3.554  0.00  0.00     0.182 A 
HETATM   20  C   UNK N   1      28.533  14.356   1.960  0.00  0.00     0.157 C 
HETATM   21  N   UNK N   1      30.143  12.670   4.722  0.00  0.00    -0.360 N 
HETATM   22  C   UNK N   1      30.296  13.955   5.106  0.00  0.00     0.117 A 
ATOM     23  HN  UNK N   1      30.473  11.839   5.214  1.00  0.00     0.166 HD
ENDBRANCH  13  17
BRANCH  13  24
HETATM   24  C   UNK N   1      30.600  16.853   5.240  0.00  0.00    -0.020 A 
HETATM   25  C   UNK N   1      31.951  17.119   4.939  0.00  0.00     0.012 A 
HETATM   26  C   UNK N   1      32.852  17.457   5.949  0.00  0.00     0.024 A 
HETATM   27  C   UNK N   1      32.421  17.524   7.274  0.00  0.00     0.034 A 
HETATM   28 Cl   UNK N   1      33.570  17.876   8.544  0.00  0.00    -0.084 Cl
HETATM   29  C   UNK N   1      31.079  17.285   7.586  0.00  0.00     0.024 A 
HETATM   30  C   UNK N   1      30.173  16.950   6.576  0.00  0.00     0.012 A 
ENDBRANCH  13  24
ENDBRANCH   3  13
BRANCH   8  31
HETATM   31  C   UNK N   1      24.696  14.891   6.000  0.00  0.00    -0.023 A 
HETATM   32  C   UNK N   1      24.970  14.739   7.367  0.00  0.00     0.036 A 
HETATM   33  C   UNK N   1      24.862  13.483   7.979  0.00  0.00     0.034 A 
HETATM   34 Cl   UNK N   1      25.143  13.315   9.698  0.00  0.00    -0.084 Cl
HETATM   35  C   UNK N   1      24.492  12.368   7.228  0.00  0.00     0.024 A 
HETATM   36  C   UNK N   1      24.220  12.502   5.868  0.00  0.00     0.003 A 
HETATM   37  C   UNK N   1      24.302  13.757   5.264  0.00  0.00     0.012 A 
ENDBRANCH   8  31
TORSDOF 5
ENDMDL
MODEL 5
REMARK VINA RESULT:      -7.4      3.240      5.824
REMARK  5 active torsions:
REMARK  status: ('A' for Active; 'I' for Inactive)
REMARK    1  A    between atoms: C_9  and  N_5 
REMARK    2  A    between atoms: C_9  and  C_10 
REMARK    3  A    between atoms: C_9  and  C_11 
REMARK    4  A    between atoms: C_9  and  C_12 
REMARK    5  A    between atoms: C_17  and  C_25 
ROOT
HETATM    1  O   UNK N   1      28.140  14.197   2.059  0.00  0.00    -0.268 OA
HETATM    2  N   UNK N   1      25.899  14.131   2.284  0.00  0.00    -0.318 N 
HETATM    3  C   UNK N   1      22.316  16.070   3.335  0.00  0.00    -0.019 A 
HETATM    4  C   UNK N   1      24.778  16.089   3.194  0.00  0.00     0.003 A 
HETATM    5  C   UNK N   1      23.551  16.733   3.510  0.00  0.00     0.025 A 
HETATM    6  C   UNK N   1      24.745  14.768   2.658  0.00  0.00     0.048 A 
HETATM    7  C   UNK N   1      22.344  14.758   2.828  0.00  0.00     0.013 A 
HETATM    8  C   UNK N   1      26.043  16.726   3.352  0.00  0.00    -0.008 A 
HETATM    9  C   UNK N   1      23.522  14.122   2.503  0.00  0.00     0.031 A 
HETATM   10  C   UNK N   1      27.189  16.038   2.932  0.00  0.00     0.087 A 
HETATM   11  C   UNK N   1      27.115  14.758   2.406  0.00  0.00     0.248 A 
HETATM   12  C   UNK N   1      25.852  12.775   1.729  0.00  0.00     0.159 C 
ENDROOT
BRANCH   3  13
HETATM   13  C   UNK N   1      20.938  16.755   3.500  0.00  0.00     0.124 C 
BRANCH  13  14
HETATM   14  N   UNK N   1      19.984  16.009   2.688  0.00  0.00    -0.409 N 
HETATM   15  H   UNK N   1      19.398  15.465   2.053  0.00  0.00     0.151 HD
HETATM   16  H   UNK N   1      19.204  16.224   3.309  0.00  0.00     0.151 HD
ENDBRANCH  13  14
BRANCH  13  17
HETATM   17  C   UNK N   1      20.869  18.212   3.039  0.00  0.00     0.065 A 
HETATM   18  N   UNK N   1      20.598  18.623   1.785  0.00  0.00    -0.347 N 
HETATM   19  C   UNK N   1      20.549  19.966   1.821  0.00  0.00     0.182 A 
HETATM   20  C   UNK N   1      20.313  17.814   0.614  0.00  0.00     0.157 C 
HETATM   21  N   UNK N   1      20.782  20.426   3.067  0.00  0.00    -0.360 N 
HETATM   22  C   UNK N   1      20.973  19.336   3.841  0.00  0.00     0.117 A 
ATOM     23  HN  UNK N   1      20.808  21.402   3.365  1.00  0.00     0.166 HD
ENDBRANCH  13  17
BRANCH  13  24
HETATM   24  C   UNK N   1      20.543  16.637   4.981  0.00  0.00    -0.020 A 
HETATM   25  C   UNK N   1      21.546  16.656   5.971  0.00  0.00     0.012 A 
HETATM   26  C   UNK N   1      21.237  16.376   7.302  0.00  0.00     0.024 A 
HETATM   27  C   UNK N   1      19.926  16.064   7.662  0.00  0.00     0.034 A 
HETATM   28 Cl   UNK N   1      19.557  15.643   9.320  0.00  0.00    -0.084 Cl
HETATM   29  C   UNK N   1      18.916  16.063   6.696  0.00  0.00     0.024 A 
HETATM   30  C   UNK N   1      19.221  16.347   5.362  0.00  0.00     0.012 A 
ENDBRANCH  13  24
ENDBRANCH   3  13
BRANCH   8  31
HETATM   31  C   UNK N   1      26.253  18.071   3.968  0.00  0.00    -0.023 A 
HETATM   32  C   UNK N   1      26.803  18.225   5.249  0.00  0.00     0.036 A 
HETATM   33  C   UNK N   1      27.070  19.501   5.761  0.00  0.00     0.034 A 
HETATM   34 Cl   UNK N   1      27.816  19.680   7.334  0.00  0.00    -0.084 Cl
HETATM   35  C   UNK N   1      26.777  20.635   5.003  0.00  0.00     0.024 A 
HETATM   36  C   UNK N   1      26.228  20.499   3.730  0.00  0.00     0.003 A 
HETATM   37  C   UNK N   1      25.986  19.227   3.209  0.00  0.00     0.012 A 
ENDBRANCH   8  31
TORSDOF 5
ENDMDL
MODEL 6
REMARK VINA RESULT:      -7.3      3.272      6.252
REMARK  5 active torsions:
REMARK  status: ('A' for Active; 'I' for Inactive)
REMARK    1  A    between atoms: C_9  and  N_5 
REMARK    2  A    between atoms: C_9  and  C_10 
REMARK    3  A    between atoms: C_9  and  C_11 
REMARK    4  A    between atoms: C_9  and  C_12 
REMARK    5  A    between atoms: C_17  and  C_25 
ROOT
HETATM    1  O   UNK N   1      20.062  15.038   8.287  0.00  0.00    -0.268 OA
HETATM    2  N   UNK N   1      22.206  14.680   7.697  0.00  0.00    -0.318 N 
HETATM    3  C   UNK N   1      25.451  15.561   5.167  0.00  0.00    -0.019 A 
HETATM    4  C   UNK N   1      23.074  15.856   5.751  0.00  0.00     0.003 A 
HETATM    5  C   UNK N   1      24.195  16.161   4.932  0.00  0.00     0.025 A 
HETATM    6  C   UNK N   1      23.244  14.958   6.845  0.00  0.00     0.048 A 
HETATM    7  C   UNK N   1      25.555  14.661   6.243  0.00  0.00     0.013 A 
HETATM    8  C   UNK N   1      21.792  16.445   5.550  0.00  0.00    -0.008 A 
HETATM    9  C   UNK N   1      24.485  14.362   7.057  0.00  0.00     0.031 A 
HETATM   10  C   UNK N   1      20.773  16.145   6.463  0.00  0.00     0.087 A 
HETATM   11  C   UNK N   1      20.980  15.274   7.521  0.00  0.00     0.248 A 
HETATM   12  C   UNK N   1      22.394  13.759   8.820  0.00  0.00     0.159 C 
ENDROOT
BRANCH   3  13
HETATM   13  C   UNK N   1      26.751  15.960   4.428  0.00  0.00     0.124 C 
BRANCH  13  14
HETATM   14  N   UNK N   1      26.461  15.935   2.999  0.00  0.00    -0.409 N 
HETATM   15  H   UNK N   1      26.314  16.009   1.991  0.00  0.00     0.151 HD
HETATM   16  H   UNK N   1      25.926  15.069   3.067  0.00  0.00     0.151 HD
ENDBRANCH  13  14
BRANCH  13  17
HETATM   17  C   UNK N   1      27.947  15.034   4.654  0.00  0.00     0.065 A 
HETATM   18  N   UNK N   1      28.064  13.778   4.183  0.00  0.00    -0.347 N 
HETATM   19  C   UNK N   1      29.288  13.347   4.529  0.00  0.00     0.182 A 
HETATM   20  C   UNK N   1      27.120  13.029   3.373  0.00  0.00     0.157 C 
HETATM   21  N   UNK N   1      29.961  14.296   5.213  0.00  0.00    -0.360 N 
HETATM   22  C   UNK N   1      29.135  15.361   5.287  0.00  0.00     0.117 A 
ATOM     23  HN  UNK N   1      30.904  14.223   5.595  1.00  0.00     0.166 HD
ENDBRANCH  13  17
BRANCH  13  24
HETATM   24  C   UNK N   1      27.093  17.399   4.849  0.00  0.00    -0.020 A 
HETATM   25  C   UNK N   1      27.333  17.686   6.208  0.00  0.00     0.012 A 
HETATM   26  C   UNK N   1      27.472  19.004   6.642  0.00  0.00     0.024 A 
HETATM   27  C   UNK N   1      27.362  20.054   5.730  0.00  0.00     0.034 A 
HETATM   28 Cl   UNK N   1      27.464  21.707   6.291  0.00  0.00    -0.084 Cl
HETATM   29  C   UNK N   1      27.146  19.784   4.375  0.00  0.00     0.024 A 
HETATM   30  C   UNK N   1      27.012  18.464   3.935  0.00  0.00     0.012 A 
ENDBRANCH  13  24
ENDBRANCH   3  13
BRANCH   8  31
HETATM   31  C   UNK N   1      21.431  17.343   4.411  0.00  0.00    -0.023 A 
HETATM   32  C   UNK N   1      20.998  16.838   3.176  0.00  0.00     0.036 A 
HETATM   33  C   UNK N   1      20.582  17.706   2.159  0.00  0.00     0.034 A 
HETATM   34 Cl   UNK N   1      19.981  17.065   0.646  0.00  0.00    -0.084 Cl
HETATM   35  C   UNK N   1      20.609  19.086   2.361  0.00  0.00     0.024 A 
HETATM   36  C   UNK N   1      21.041  19.603   3.581  0.00  0.00     0.003 A 
HETATM   37  C   UNK N   1      21.431  18.737   4.604  0.00  0.00     0.012 A 
ENDBRANCH   8  31
TORSDOF 5
ENDMDL
MODEL 7
REMARK VINA RESULT:      -7.3      2.985      6.515
REMARK  5 active torsions:
REMARK  status: ('A' for Active; 'I' for Inactive)
REMARK    1  A    between atoms: C_9  and  N_5 
REMARK    2  A    between atoms: C_9  and  C_10 
REMARK    3  A    between atoms: C_9  and  C_11 
REMARK    4  A    between atoms: C_9  and  C_12 
REMARK    5  A    between atoms: C_17  and  C_25 
ROOT
HETATM    1  O   UNK N   1      18.638  15.328   9.842  0.00  0.00    -0.268 OA
HETATM    2  N   UNK N   1      19.876  16.549   8.411  0.00  0.00    -0.318 N 
HETATM    3  C   UNK N   1      23.000  16.749   5.599  0.00  0.00    -0.019 A 
HETATM    4  C   UNK N   1      21.714  15.451   7.254  0.00  0.00     0.003 A 
HETATM    5  C   UNK N   1      22.741  15.537   6.276  0.00  0.00     0.025 A 
HETATM    6  C   UNK N   1      20.916  16.602   7.519  0.00  0.00     0.048 A 
HETATM    7  C   UNK N   1      22.201  17.860   5.919  0.00  0.00     0.013 A 
HETATM    8  C   UNK N   1      21.418  14.245   7.954  0.00  0.00    -0.008 A 
HETATM    9  C   UNK N   1      21.191  17.794   6.854  0.00  0.00     0.031 A 
HETATM   10  C   UNK N   1      20.331  14.240   8.837  0.00  0.00     0.087 A 
HETATM   11  C   UNK N   1      19.572  15.378   9.061  0.00  0.00     0.248 A 
HETATM   12  C   UNK N   1      19.060  17.738   8.671  0.00  0.00     0.159 C 
ENDROOT
BRANCH   3  13
HETATM   13  C   UNK N   1      23.986  16.882   4.413  0.00  0.00     0.124 C 
BRANCH  13  14
HETATM   14  N   UNK N   1      23.695  18.146   3.747  0.00  0.00    -0.409 N 
HETATM   15  H   UNK N   1      23.406  18.981   3.236  0.00  0.00     0.151 HD
HETATM   16  H   UNK N   1      24.502  18.612   4.160  0.00  0.00     0.151 HD
ENDBRANCH  13  14
BRANCH  13  17
HETATM   17  C   UNK N   1      23.884  15.786   3.349  0.00  0.00     0.065 A 
HETATM   18  N   UNK N   1      22.761  15.434   2.695  0.00  0.00    -0.347 N 
HETATM   19  C   UNK N   1      23.114  14.502   1.793  0.00  0.00     0.182 A 
HETATM   20  C   UNK N   1      21.426  15.989   2.833  0.00  0.00     0.157 C 
HETATM   21  N   UNK N   1      24.438  14.248   1.854  0.00  0.00    -0.360 N 
HETATM   22  C   UNK N   1      24.932  15.054   2.817  0.00  0.00     0.117 A 
ATOM     23  HN  UNK N   1      24.960  13.580   1.286  1.00  0.00     0.166 HD
ENDBRANCH  13  17
BRANCH  13  24
HETATM   24  C   UNK N   1      25.405  16.934   5.001  0.00  0.00    -0.020 A 
HETATM   25  C   UNK N   1      25.788  15.992   5.978  0.00  0.00     0.012 A 
HETATM   26  C   UNK N   1      27.001  16.122   6.653  0.00  0.00     0.024 A 
HETATM   27  C   UNK N   1      27.844  17.198   6.372  0.00  0.00     0.034 A 
HETATM   28 Cl   UNK N   1      29.330  17.395   7.273  0.00  0.00    -0.084 Cl
HETATM   29  C   UNK N   1      27.489  18.127   5.390  0.00  0.00     0.024 A 
HETATM   30  C   UNK N   1      26.276  17.998   4.708  0.00  0.00     0.012 A 
ENDBRANCH  13  24
ENDBRANCH   3  13
BRANCH   8  31
HETATM   31  C   UNK N   1      22.205  12.979   7.848  0.00  0.00    -0.023 A 
HETATM   32  C   UNK N   1      21.945  12.023   6.854  0.00  0.00     0.036 A 
HETATM   33  C   UNK N   1      22.758  10.890   6.727  0.00  0.00     0.034 A 
HETATM   34 Cl   UNK N   1      22.466   9.737   5.443  0.00  0.00    -0.084 Cl
HETATM   35  C   UNK N   1      23.829  10.694   7.599  0.00  0.00     0.024 A 
HETATM   36  C   UNK N   1      24.098  11.633   8.594  0.00  0.00     0.003 A 
HETATM   37  C   UNK N   1      23.303  12.775   8.705  0.00  0.00     0.012 A 
ENDBRANCH   8  31
TORSDOF 5
ENDMDL
MODEL 8
REMARK VINA RESULT:      -7.3     12.755     15.784
REMARK  5 active torsions:
REMARK  status: ('A' for Active; 'I' for Inactive)
REMARK    1  A    between atoms: C_9  and  N_5 
REMARK    2  A    between atoms: C_9  and  C_10 
REMARK    3  A    between atoms: C_9  and  C_11 
REMARK    4  A    between atoms: C_9  and  C_12 
REMARK    5  A    between atoms: C_17  and  C_25 
ROOT
HETATM    1  O   UNK N   1      31.949  18.863  -8.104  0.00  0.00    -0.268 OA
HETATM    2  N   UNK N   1      30.027  19.820  -8.786  0.00  0.00    -0.318 N 
HETATM    3  C   UNK N   1      27.023  22.707  -8.199  0.00  0.00    -0.019 A 
HETATM    4  C   UNK N   1      29.062  21.574  -7.402  0.00  0.00     0.003 A 
HETATM    5  C   UNK N   1      28.054  22.563  -7.245  0.00  0.00     0.025 A 
HETATM    6  C   UNK N   1      29.042  20.747  -8.563  0.00  0.00     0.048 A 
HETATM    7  C   UNK N   1      27.036  21.847  -9.312  0.00  0.00     0.013 A 
HETATM    8  C   UNK N   1      30.122  21.401  -6.465  0.00  0.00    -0.008 A 
HETATM    9  C   UNK N   1      28.012  20.891  -9.489  0.00  0.00     0.031 A 
HETATM   10  C   UNK N   1      31.115  20.455  -6.752  0.00  0.00     0.087 A 
HETATM   11  C   UNK N   1      31.065  19.677  -7.898  0.00  0.00     0.248 A 
HETATM   12  C   UNK N   1      29.998  18.980  -9.986  0.00  0.00     0.159 C 
ENDROOT
BRANCH   3  13
HETATM   13  C   UNK N   1      25.988  23.858  -8.184  0.00  0.00     0.124 C 
BRANCH  13  14
HETATM   14  N   UNK N   1      24.663  23.250  -8.169  0.00  0.00    -0.409 N 
HETATM   15  H   UNK N   1      23.745  22.819  -8.050  0.00  0.00     0.151 HD
HETATM   16  H   UNK N   1      24.576  23.283  -9.185  0.00  0.00     0.151 HD
ENDBRANCH  13  14
BRANCH  13  17
HETATM   17  C   UNK N   1      26.032  24.796  -9.393  0.00  0.00     0.065 A 
HETATM   18  N   UNK N   1      27.147  25.330  -9.928  0.00  0.00    -0.347 N 
HETATM   19  C   UNK N   1      26.762  26.018 -11.017  0.00  0.00     0.182 A 
HETATM   20  C   UNK N   1      28.524  25.147  -9.507  0.00  0.00     0.157 C 
HETATM   21  N   UNK N   1      25.426  25.940 -11.192  0.00  0.00    -0.360 N 
HETATM   22  C   UNK N   1      24.960  25.168 -10.187  0.00  0.00     0.117 A 
ATOM     23  HN  UNK N   1      24.879  26.376 -11.934  1.00  0.00     0.166 HD
ENDBRANCH  13  17
BRANCH  13  24
HETATM   24  C   UNK N   1      26.199  24.646  -6.881  0.00  0.00    -0.020 A 
HETATM   25  C   UNK N   1      26.117  23.977  -5.644  0.00  0.00     0.012 A 
HETATM   26  C   UNK N   1      26.128  24.693  -4.446  0.00  0.00     0.024 A 
HETATM   27  C   UNK N   1      26.210  26.086  -4.467  0.00  0.00     0.034 A 
HETATM   28 Cl   UNK N   1      26.150  26.982  -2.967  0.00  0.00    -0.084 Cl
HETATM   29  C   UNK N   1      26.314  26.763  -5.686  0.00  0.00     0.024 A 
HETATM   30  C   UNK N   1      26.308  26.048  -6.888  0.00  0.00     0.012 A 
ENDBRANCH  13  24
ENDBRANCH   3  13
BRANCH   8  31
HETATM   31  C   UNK N   1      30.244  22.131  -5.166  0.00  0.00    -0.023 A 
HETATM   32  C   UNK N   1      30.096  23.523  -5.079  0.00  0.00     0.036 A 
HETATM   33  C   UNK N   1      30.127  24.165  -3.835  0.00  0.00     0.034 A 
HETATM   34 Cl   UNK N   1      29.875  25.894  -3.731  0.00  0.00    -0.084 Cl
HETATM   35  C   UNK N   1      30.320  23.425  -2.669  0.00  0.00     0.024 A 
HETATM   36  C   UNK N   1      30.472  22.041  -2.739  0.00  0.00     0.003 A 
HETATM   37  C   UNK N   1      30.416  21.398  -3.976  0.00  0.00     0.012 A 
ENDBRANCH   8  31
TORSDOF 5
ENDMDL
MODEL 9
REMARK VINA RESULT:      -7.1      3.490      6.314
REMARK  5 active torsions:
REMARK  status: ('A' for Active; 'I' for Inactive)
REMARK    1  A    between atoms: C_9  and  N_5 
REMARK    2  A    between atoms: C_9  and  C_10 
REMARK    3  A    between atoms: C_9  and  C_11 
REMARK    4  A    between atoms: C_9  and  C_12 
REMARK    5  A    between atoms: C_17  and  C_25 
ROOT
HETATM    1  O   UNK N   1      20.167  14.183   7.871  0.00  0.00    -0.268 OA
HETATM    2  N   UNK N   1      22.391  14.342   7.549  0.00  0.00    -0.318 N 
HETATM    3  C   UNK N   1      25.638  16.189   5.612  0.00  0.00    -0.019 A 
HETATM    4  C   UNK N   1      23.201  15.924   5.888  0.00  0.00     0.003 A 
HETATM    5  C   UNK N   1      24.316  16.555   5.272  0.00  0.00     0.025 A 
HETATM    6  C   UNK N   1      23.435  14.935   6.888  0.00  0.00     0.048 A 
HETATM    7  C   UNK N   1      25.809  15.189   6.585  0.00  0.00     0.013 A 
HETATM    8  C   UNK N   1      21.854  16.269   5.576  0.00  0.00    -0.008 A 
HETATM    9  C   UNK N   1      24.742  14.574   7.203  0.00  0.00     0.031 A 
HETATM   10  C   UNK N   1      20.827  15.650   6.299  0.00  0.00     0.087 A 
HETATM   11  C   UNK N   1      21.095  14.699   7.272  0.00  0.00     0.248 A 
HETATM   12  C   UNK N   1      22.644  13.331   8.579  0.00  0.00     0.159 C 
ENDROOT
BRANCH   3  13
HETATM   13  C   UNK N   1      26.896  16.937   5.110  0.00  0.00     0.124 C 
BRANCH  13  14
HETATM   14  N   UNK N   1      27.856  16.956   6.208  0.00  0.00    -0.409 N 
HETATM   15  H   UNK N   1      28.605  16.957   6.902  0.00  0.00     0.151 HD
HETATM   16  H   UNK N   1      27.127  17.055   6.915  0.00  0.00     0.151 HD
ENDBRANCH  13  14
BRANCH  13  17
HETATM   17  C   UNK N   1      26.673  18.391   4.691  0.00  0.00     0.065 A 
HETATM   18  N   UNK N   1      26.975  19.474   5.434  0.00  0.00    -0.347 N 
HETATM   19  C   UNK N   1      26.706  20.550   4.676  0.00  0.00     0.182 A 
HETATM   20  C   UNK N   1      27.567  19.520   6.759  0.00  0.00     0.157 C 
HETATM   21  N   UNK N   1      26.237  20.185   3.465  0.00  0.00    -0.360 N 
HETATM   22  C   UNK N   1      26.223  18.835   3.459  0.00  0.00     0.117 A 
ATOM     23  HN  UNK N   1      25.952  20.804   2.706  1.00  0.00     0.166 HD
ENDBRANCH  13  17
BRANCH  13  24
HETATM   24  C   UNK N   1      27.478  16.122   3.943  0.00  0.00    -0.020 A 
HETATM   25  C   UNK N   1      26.645  15.235   3.232  0.00  0.00     0.012 A 
HETATM   26  C   UNK N   1      27.182  14.358   2.290  0.00  0.00     0.024 A 
HETATM   27  C   UNK N   1      28.556  14.345   2.051  0.00  0.00     0.034 A 
HETATM   28 Cl   UNK N   1      29.232  13.194   0.922  0.00  0.00    -0.084 Cl
HETATM   29  C   UNK N   1      29.393  15.235   2.733  0.00  0.00     0.024 A 
HETATM   30  C   UNK N   1      28.858  16.118   3.674  0.00  0.00     0.012 A 
ENDBRANCH  13  24
ENDBRANCH   3  13
BRANCH   8  31
HETATM   31  C   UNK N   1      21.442  17.226   4.504  0.00  0.00    -0.023 A 
HETATM   32  C   UNK N   1      21.062  16.791   3.226  0.00  0.00     0.036 A 
HETATM   33  C   UNK N   1      20.595  17.705   2.273  0.00  0.00     0.034 A 
HETATM   34 Cl   UNK N   1      20.062  17.144   0.703  0.00  0.00    -0.084 Cl
HETATM   35  C   UNK N   1      20.516  19.062   2.584  0.00  0.00     0.024 A 
HETATM   36  C   UNK N   1      20.893  19.510   3.848  0.00  0.00     0.003 A 
HETATM   37  C   UNK N   1      21.334  18.597   4.807  0.00  0.00     0.012 A 
ENDBRANCH   8  31
TORSDOF 5
ENDMDL
