MODEL 1
REMARK VINA RESULT:      -8.3      0.000      0.000
REMARK  4 active torsions:
REMARK  status: ('A' for Active; 'I' for Inactive)
REMARK    1  A    between atoms: O_2  and  C_26 
REMARK    2  A    between atoms: N_4  and  C_17 
REMARK       I    between atoms: N_4  and  C_19 
REMARK    3  A    between atoms: C_19  and  C_20 
REMARK    4  A    between atoms: C_25  and  C_26 
ROOT
HETATM    1  C   UNK N   1      31.670  16.515   4.673  0.00  0.00    -0.020 C 
HETATM    2  C   UNK N   1      32.268  16.823   7.619  0.00  0.00    -0.020 C 
HETATM    3  C   UNK N   1      32.775  15.757   5.402  0.00  0.00     0.015 C 
HETATM    4  C   UNK N   1      33.330  16.578   6.545  0.00  0.00     0.015 C 
HETATM    5  C   UNK N   1      30.684  17.159   5.633  0.00  0.00    -0.041 A 
HETATM    6  C   UNK N   1      30.934  17.255   7.026  0.00  0.00    -0.043 A 
HETATM    7  C   UNK N   1      32.266  17.572   3.758  0.00  0.00     0.020 C 
HETATM    8  C   UNK N   1      30.957  15.484   3.810  0.00  0.00     0.020 C 
HETATM    9  C   UNK N   1      32.082  15.574   8.464  0.00  0.00     0.020 C 
HETATM   10  C   UNK N   1      32.826  17.925   8.504  0.00  0.00     0.020 C 
HETATM   11  C   UNK N   1      29.479  17.648   5.125  0.00  0.00     0.038 A 
HETATM   12  C   UNK N   1      29.930  17.784   7.866  0.00  0.00     0.011 A 
HETATM   13  C   UNK N   1      28.503  18.191   5.951  0.00  0.00     0.035 A 
HETATM   14  C   UNK N   1      28.719  18.246   7.335  0.00  0.00     0.030 A 
ENDROOT
BRANCH  13  15
HETATM   15  N   UNK N   1      27.310  18.633   5.329  0.00  0.00    -0.323 N 
HETATM   16  C   UNK N   1      26.192  17.939   5.003  0.00  0.00     0.256 C 
HETATM   17  O   UNK N   1      26.087  16.744   5.252  0.00  0.00    -0.267 OA
HETATM   18  H   UNK N   1      27.288  19.589   5.099  0.00  0.00     0.169 HD
BRANCH  16  19
HETATM   19  C   UNK N   1      25.102  18.674   4.326  0.00  0.00     0.032 A 
HETATM   20  C   UNK N   1      25.323  19.856   3.605  0.00  0.00     0.018 A 
HETATM   21  C   UNK N   1      24.244  20.511   2.988  0.00  0.00     0.019 A 
HETATM   22  C   UNK N   1      22.942  19.989   3.093  0.00  0.00     0.037 A 
HETATM   23  C   UNK N   1      22.732  18.812   3.814  0.00  0.00     0.019 A 
HETATM   24  C   UNK N   1      23.799  18.163   4.422  0.00  0.00     0.018 A 
BRANCH  22  25
HETATM   25  C   UNK N   1      21.797  20.665   2.454  0.00  0.00     0.176 C 
HETATM   26  O   UNK N   1      21.645  20.605   1.243  0.00  0.00    -0.646 OA
BRANCH  25  27
HETATM   27  O   UNK N   1      20.912  21.355   3.199  0.00  0.00    -0.773 OA
HETATM   28  H   UNK N   1      20.567  20.980   3.985  0.00  0.00     0.167 HD
ENDBRANCH  25  27
ENDBRANCH  22  25
ENDBRANCH  16  19
ENDBRANCH  13  15
TORSDOF 4
ENDMDL
MODEL 2
REMARK VINA RESULT:      -7.8     10.446     14.199
REMARK  4 active torsions:
REMARK  status: ('A' for Active; 'I' for Inactive)
REMARK    1  A    between atoms: O_2  and  C_26 
REMARK    2  A    between atoms: N_4  and  C_17 
REMARK       I    between atoms: N_4  and  C_19 
REMARK    3  A    between atoms: C_19  and  C_20 
REMARK    4  A    between atoms: C_25  and  C_26 
ROOT
HETATM    1  C   UNK N   1      26.212  25.631  -5.692  0.00  0.00    -0.020 C 
HETATM    2  C   UNK N   1      27.001  28.302  -4.518  0.00  0.00    -0.020 C 
HETATM    3  C   UNK N   1      25.520  26.949  -6.029  0.00  0.00     0.015 C 
HETATM    4  C   UNK N   1      25.564  27.899  -4.853  0.00  0.00     0.015 C 
HETATM    5  C   UNK N   1      27.545  25.843  -4.994  0.00  0.00    -0.041 A 
HETATM    6  C   UNK N   1      27.946  27.108  -4.493  0.00  0.00    -0.043 A 
HETATM    7  C   UNK N   1      25.309  24.765  -4.828  0.00  0.00     0.020 C 
HETATM    8  C   UNK N   1      26.427  24.920  -7.019  0.00  0.00     0.020 C 
HETATM    9  C   UNK N   1      27.499  29.337  -5.512  0.00  0.00     0.020 C 
HETATM   10  C   UNK N   1      26.938  28.945  -3.143  0.00  0.00     0.020 C 
HETATM   11  C   UNK N   1      28.414  24.757  -4.870  0.00  0.00     0.038 A 
HETATM   12  C   UNK N   1      29.238  27.246  -3.940  0.00  0.00     0.011 A 
HETATM   13  C   UNK N   1      29.675  24.890  -4.303  0.00  0.00     0.035 A 
HETATM   14  C   UNK N   1      30.101  26.146  -3.849  0.00  0.00     0.030 A 
ENDROOT
BRANCH  13  15
HETATM   15  N   UNK N   1      30.481  23.727  -4.252  0.00  0.00    -0.323 N 
HETATM   16  C   UNK N   1      30.917  23.019  -3.182  0.00  0.00     0.256 C 
HETATM   17  O   UNK N   1      30.614  23.339  -2.039  0.00  0.00    -0.267 OA
HETATM   18  H   UNK N   1      30.768  23.379  -5.127  0.00  0.00     0.169 HD
BRANCH  16  19
HETATM   19  C   UNK N   1      31.781  21.847  -3.441  0.00  0.00     0.032 A 
HETATM   20  C   UNK N   1      33.026  21.674  -2.820  0.00  0.00     0.018 A 
HETATM   21  C   UNK N   1      33.803  20.541  -3.114  0.00  0.00     0.019 A 
HETATM   22  C   UNK N   1      33.340  19.580  -4.030  0.00  0.00     0.037 A 
HETATM   23  C   UNK N   1      32.099  19.761  -4.644  0.00  0.00     0.019 A 
HETATM   24  C   UNK N   1      31.329  20.880  -4.353  0.00  0.00     0.018 A 
BRANCH  22  25
HETATM   25  C   UNK N   1      34.143  18.385  -4.352  0.00  0.00     0.176 C 
HETATM   26  O   UNK N   1      34.886  18.386  -5.323  0.00  0.00    -0.646 OA
BRANCH  25  27
HETATM   27  O   UNK N   1      34.063  17.283  -3.582  0.00  0.00    -0.773 OA
HETATM   28  H   UNK N   1      33.271  16.784  -3.559  0.00  0.00     0.167 HD
ENDBRANCH  25  27
ENDBRANCH  22  25
ENDBRANCH  16  19
ENDBRANCH  13  15
TORSDOF 4
ENDMDL
MODEL 3
REMARK VINA RESULT:      -7.8     10.401     14.203
REMARK  4 active torsions:
REMARK  status: ('A' for Active; 'I' for Inactive)
REMARK    1  A    between atoms: O_2  and  C_26 
REMARK    2  A    between atoms: N_4  and  C_17 
REMARK       I    between atoms: N_4  and  C_19 
REMARK    3  A    between atoms: C_19  and  C_20 
REMARK    4  A    between atoms: C_25  and  C_26 
ROOT
HETATM    1  C   UNK N   1      29.135  27.907  -5.129  0.00  0.00    -0.020 C 
HETATM    2  C   UNK N   1      26.180  27.536  -4.612  0.00  0.00    -0.020 C 
HETATM    3  C   UNK N   1      28.168  29.053  -4.845  0.00  0.00     0.015 C 
HETATM    4  C   UNK N   1      26.781  28.730  -5.356  0.00  0.00     0.015 C 
HETATM    5  C   UNK N   1      28.541  26.553  -4.777  0.00  0.00    -0.041 A 
HETATM    6  C   UNK N   1      27.165  26.383  -4.476  0.00  0.00    -0.043 A 
HETATM    7  C   UNK N   1      29.558  27.921  -6.589  0.00  0.00     0.020 C 
HETATM    8  C   UNK N   1      30.363  28.175  -4.273  0.00  0.00     0.020 C 
HETATM    9  C   UNK N   1      25.692  27.967  -3.240  0.00  0.00     0.020 C 
HETATM   10  C   UNK N   1      24.980  27.101  -5.436  0.00  0.00     0.020 C 
HETATM   11  C   UNK N   1      29.390  25.446  -4.721  0.00  0.00     0.038 A 
HETATM   12  C   UNK N   1      26.707  25.112  -4.068  0.00  0.00     0.011 A 
HETATM   13  C   UNK N   1      28.931  24.191  -4.343  0.00  0.00     0.035 A 
HETATM   14  C   UNK N   1      27.584  24.021  -3.997  0.00  0.00     0.030 A 
ENDROOT
BRANCH  13  15
HETATM   15  N   UNK N   1      29.886  23.146  -4.298  0.00  0.00    -0.323 N 
HETATM   16  C   UNK N   1      30.737  22.789  -3.304  0.00  0.00     0.256 C 
HETATM   17  O   UNK N   1      30.756  23.387  -2.235  0.00  0.00    -0.267 OA
HETATM   18  H   UNK N   1      29.940  22.594  -5.111  0.00  0.00     0.169 HD
BRANCH  16  19
HETATM   19  C   UNK N   1      31.652  21.656  -3.560  0.00  0.00     0.032 A 
HETATM   20  C   UNK N   1      31.319  20.593  -4.412  0.00  0.00     0.018 A 
HETATM   21  C   UNK N   1      32.230  19.542  -4.609  0.00  0.00     0.019 A 
HETATM   22  C   UNK N   1      33.474  19.548  -3.953  0.00  0.00     0.037 A 
HETATM   23  C   UNK N   1      33.797  20.610  -3.106  0.00  0.00     0.019 A 
HETATM   24  C   UNK N   1      32.897  21.651  -2.912  0.00  0.00     0.018 A 
BRANCH  22  25
HETATM   25  C   UNK N   1      34.442  18.452  -4.147  0.00  0.00     0.176 C 
HETATM   26  O   UNK N   1      35.539  18.679  -4.635  0.00  0.00    -0.646 OA
BRANCH  25  27
HETATM   27  O   UNK N   1      34.125  17.193  -3.789  0.00  0.00    -0.773 OA
HETATM   28  H   UNK N   1      33.330  17.024  -3.324  0.00  0.00     0.167 HD
ENDBRANCH  25  27
ENDBRANCH  22  25
ENDBRANCH  16  19
ENDBRANCH  13  15
TORSDOF 4
ENDMDL
MODEL 4
REMARK VINA RESULT:      -7.5      1.322      2.947
REMARK  4 active torsions:
REMARK  status: ('A' for Active; 'I' for Inactive)
REMARK    1  A    between atoms: O_2  and  C_26 
REMARK    2  A    between atoms: N_4  and  C_17 
REMARK       I    between atoms: N_4  and  C_19 
REMARK    3  A    between atoms: C_19  and  C_20 
REMARK    4  A    between atoms: C_25  and  C_26 
ROOT
HETATM    1  C   UNK N   1      30.026  17.774   8.650  0.00  0.00    -0.020 C 
HETATM    2  C   UNK N   1      32.013  16.312   6.902  0.00  0.00    -0.020 C 
HETATM    3  C   UNK N   1      31.504  17.607   8.994  0.00  0.00     0.015 C 
HETATM    4  C   UNK N   1      32.047  16.312   8.432  0.00  0.00     0.015 C 
HETATM    5  C   UNK N   1      29.734  17.449   7.195  0.00  0.00    -0.041 A 
HETATM    6  C   UNK N   1      30.684  16.815   6.354  0.00  0.00    -0.043 A 
HETATM    7  C   UNK N   1      29.170  16.904   9.556  0.00  0.00     0.020 C 
HETATM    8  C   UNK N   1      29.694  19.231   8.934  0.00  0.00     0.020 C 
HETATM    9  C   UNK N   1      33.153  17.154   6.355  0.00  0.00     0.020 C 
HETATM   10  C   UNK N   1      32.236  14.869   6.486  0.00  0.00     0.020 C 
HETATM   11  C   UNK N   1      28.495  17.814   6.664  0.00  0.00     0.038 A 
HETATM   12  C   UNK N   1      30.373  16.629   4.989  0.00  0.00     0.011 A 
HETATM   13  C   UNK N   1      28.182  17.607   5.327  0.00  0.00     0.035 A 
HETATM   14  C   UNK N   1      29.131  17.026   4.475  0.00  0.00     0.030 A 
ENDROOT
BRANCH  13  15
HETATM   15  N   UNK N   1      26.905  18.040   4.894  0.00  0.00    -0.323 N 
HETATM   16  C   UNK N   1      26.524  19.228   4.363  0.00  0.00     0.256 C 
HETATM   17  O   UNK N   1      27.331  20.129   4.173  0.00  0.00    -0.267 OA
HETATM   18  H   UNK N   1      26.184  17.377   4.992  0.00  0.00     0.169 HD
BRANCH  16  19
HETATM   19  C   UNK N   1      25.095  19.401   4.027  0.00  0.00     0.032 A 
HETATM   20  C   UNK N   1      24.086  18.593   4.573  0.00  0.00     0.018 A 
HETATM   21  C   UNK N   1      22.746  18.804   4.209  0.00  0.00     0.019 A 
HETATM   22  C   UNK N   1      22.410  19.821   3.297  0.00  0.00     0.037 A 
HETATM   23  C   UNK N   1      23.420  20.620   2.758  0.00  0.00     0.019 A 
HETATM   24  C   UNK N   1      24.745  20.413   3.119  0.00  0.00     0.018 A 
BRANCH  22  25
HETATM   25  C   UNK N   1      21.008  20.056   2.902  0.00  0.00     0.176 C 
HETATM   26  O   UNK N   1      20.526  19.450   1.956  0.00  0.00    -0.646 OA
BRANCH  25  27
HETATM   27  O   UNK N   1      20.250  20.940   3.577  0.00  0.00    -0.773 OA
HETATM   28  H   UNK N   1      20.099  20.824   4.494  0.00  0.00     0.167 HD
ENDBRANCH  25  27
ENDBRANCH  22  25
ENDBRANCH  16  19
ENDBRANCH  13  15
TORSDOF 4
ENDMDL
MODEL 5
REMARK VINA RESULT:      -7.4      8.824     13.071
REMARK  4 active torsions:
REMARK  status: ('A' for Active; 'I' for Inactive)
REMARK    1  A    between atoms: O_2  and  C_26 
REMARK    2  A    between atoms: N_4  and  C_17 
REMARK       I    between atoms: N_4  and  C_19 
REMARK    3  A    between atoms: C_19  and  C_20 
REMARK    4  A    between atoms: C_25  and  C_26 
ROOT
HETATM    1  C   UNK N   1      37.004   9.470  14.922  0.00  0.00    -0.020 C 
HETATM    2  C   UNK N   1      35.900   9.948  17.695  0.00  0.00    -0.020 C 
HETATM    3  C   UNK N   1      36.839   8.378  15.975  0.00  0.00     0.015 C 
HETATM    4  C   UNK N   1      37.004   8.940  17.369  0.00  0.00     0.015 C 
HETATM    5  C   UNK N   1      36.236  10.733  15.279  0.00  0.00    -0.041 A 
HETATM    6  C   UNK N   1      35.666  10.937  16.561  0.00  0.00    -0.043 A 
HETATM    7  C   UNK N   1      38.475   9.800  14.725  0.00  0.00     0.020 C 
HETATM    8  C   UNK N   1      36.468   8.885  13.625  0.00  0.00     0.020 C 
HETATM    9  C   UNK N   1      34.608   9.219  18.025  0.00  0.00     0.020 C 
HETATM   10  C   UNK N   1      36.369  10.684  18.939  0.00  0.00     0.020 C 
HETATM   11  C   UNK N   1      36.065  11.710  14.296  0.00  0.00     0.038 A 
HETATM   12  C   UNK N   1      34.888  12.093  16.787  0.00  0.00     0.011 A 
HETATM   13  C   UNK N   1      35.320  12.859  14.529  0.00  0.00     0.035 A 
HETATM   14  C   UNK N   1      34.711  13.049  15.777  0.00  0.00     0.030 A 
ENDROOT
BRANCH  13  15
HETATM   15  N   UNK N   1      35.192  13.770  13.452  0.00  0.00    -0.323 N 
HETATM   16  C   UNK N   1      34.951  13.534  12.139  0.00  0.00     0.256 C 
HETATM   17  O   UNK N   1      34.789  12.397  11.714  0.00  0.00    -0.267 OA
HETATM   18  H   UNK N   1      35.294  14.718  13.694  0.00  0.00     0.169 HD
BRANCH  16  19
HETATM   19  C   UNK N   1      34.899  14.701  11.232  0.00  0.00     0.032 A 
HETATM   20  C   UNK N   1      35.705  15.834  11.412  0.00  0.00     0.018 A 
HETATM   21  C   UNK N   1      35.604  16.913  10.518  0.00  0.00     0.019 A 
HETATM   22  C   UNK N   1      34.697  16.865   9.445  0.00  0.00     0.037 A 
HETATM   23  C   UNK N   1      33.898  15.732   9.274  0.00  0.00     0.019 A 
HETATM   24  C   UNK N   1      33.998  14.664  10.156  0.00  0.00     0.018 A 
BRANCH  22  25
HETATM   25  C   UNK N   1      34.576  17.989   8.498  0.00  0.00     0.176 C 
HETATM   26  O   UNK N   1      35.285  18.977   8.622  0.00  0.00    -0.646 OA
BRANCH  25  27
HETATM   27  O   UNK N   1      33.683  17.938   7.491  0.00  0.00    -0.773 OA
HETATM   28  H   UNK N   1      33.966  18.064   6.607  0.00  0.00     0.167 HD
ENDBRANCH  25  27
ENDBRANCH  22  25
ENDBRANCH  16  19
ENDBRANCH  13  15
TORSDOF 4
ENDMDL
MODEL 6
REMARK VINA RESULT:      -7.3      3.830      8.972
REMARK  4 active torsions:
REMARK  status: ('A' for Active; 'I' for Inactive)
REMARK    1  A    between atoms: O_2  and  C_26 
REMARK    2  A    between atoms: N_4  and  C_17 
REMARK       I    between atoms: N_4  and  C_19 
REMARK    3  A    between atoms: C_19  and  C_20 
REMARK    4  A    between atoms: C_25  and  C_26 
ROOT
HETATM    1  C   UNK N   1      24.930  13.951   6.414  0.00  0.00    -0.020 C 
HETATM    2  C   UNK N   1      23.197  15.971   4.981  0.00  0.00    -0.020 C 
HETATM    3  C   UNK N   1      23.627  13.603   5.700  0.00  0.00     0.015 C 
HETATM    4  C   UNK N   1      22.657  14.763   5.749  0.00  0.00     0.015 C 
HETATM    5  C   UNK N   1      25.445  15.330   6.031  0.00  0.00    -0.041 A 
HETATM    6  C   UNK N   1      24.655  16.260   5.309  0.00  0.00    -0.043 A 
HETATM    7  C   UNK N   1      24.748  13.868   7.921  0.00  0.00     0.020 C 
HETATM    8  C   UNK N   1      25.933  12.888   5.994  0.00  0.00     0.020 C 
HETATM    9  C   UNK N   1      23.032  15.755   3.486  0.00  0.00     0.020 C 
HETATM   10  C   UNK N   1      22.327  17.145   5.398  0.00  0.00     0.020 C 
HETATM   11  C   UNK N   1      26.751  15.676   6.383  0.00  0.00     0.038 A 
HETATM   12  C   UNK N   1      25.235  17.484   4.910  0.00  0.00     0.011 A 
HETATM   13  C   UNK N   1      27.311  16.892   6.011  0.00  0.00     0.035 A 
HETATM   14  C   UNK N   1      26.557  17.799   5.255  0.00  0.00     0.030 A 
ENDROOT
BRANCH  13  15
HETATM   15  N   UNK N   1      28.652  17.126   6.401  0.00  0.00    -0.323 N 
HETATM   16  C   UNK N   1      29.802  16.954   5.705  0.00  0.00     0.256 C 
HETATM   17  O   UNK N   1      29.792  16.552   4.548  0.00  0.00    -0.267 OA
HETATM   18  H   UNK N   1      28.766  17.466   7.318  0.00  0.00     0.169 HD
BRANCH  16  19
HETATM   19  C   UNK N   1      31.073  17.261   6.395  0.00  0.00     0.032 A 
HETATM   20  C   UNK N   1      32.302  17.325   5.722  0.00  0.00     0.018 A 
HETATM   21  C   UNK N   1      33.476  17.616   6.436  0.00  0.00     0.019 A 
HETATM   22  C   UNK N   1      33.427  17.840   7.823  0.00  0.00     0.037 A 
HETATM   23  C   UNK N   1      32.199  17.773   8.485  0.00  0.00     0.019 A 
HETATM   24  C   UNK N   1      31.037  17.487   7.779  0.00  0.00     0.018 A 
BRANCH  22  25
HETATM   25  C   UNK N   1      34.650  18.144   8.589  0.00  0.00     0.176 C 
HETATM   26  O   UNK N   1      35.301  19.147   8.337  0.00  0.00    -0.646 OA
BRANCH  25  27
HETATM   27  O   UNK N   1      35.062  17.319   9.571  0.00  0.00    -0.773 OA
HETATM   28  H   UNK N   1      35.463  17.670  10.341  0.00  0.00     0.167 HD
ENDBRANCH  25  27
ENDBRANCH  22  25
ENDBRANCH  16  19
ENDBRANCH  13  15
TORSDOF 4
ENDMDL
MODEL 7
REMARK VINA RESULT:      -7.2      7.493     11.090
REMARK  4 active torsions:
REMARK  status: ('A' for Active; 'I' for Inactive)
REMARK    1  A    between atoms: O_2  and  C_26 
REMARK    2  A    between atoms: N_4  and  C_17 
REMARK       I    between atoms: N_4  and  C_19 
REMARK    3  A    between atoms: C_19  and  C_20 
REMARK    4  A    between atoms: C_25  and  C_26 
ROOT
HETATM    1  C   UNK N   1      20.702  16.007   3.254  0.00  0.00    -0.020 C 
HETATM    2  C   UNK N   1      21.121  13.887   1.140  0.00  0.00    -0.020 C 
HETATM    3  C   UNK N   1      20.097  16.067   1.854  0.00  0.00     0.015 C 
HETATM    4  C   UNK N   1      20.995  15.384   0.846  0.00  0.00     0.015 C 
HETATM    5  C   UNK N   1      21.232  14.623   3.592  0.00  0.00    -0.041 A 
HETATM    6  C   UNK N   1      21.376  13.606   2.614  0.00  0.00    -0.043 A 
HETATM    7  C   UNK N   1      21.813  17.035   3.395  0.00  0.00     0.020 C 
HETATM    8  C   UNK N   1      19.580  16.382   4.210  0.00  0.00     0.020 C 
HETATM    9  C   UNK N   1      19.870  13.158   0.681  0.00  0.00     0.020 C 
HETATM   10  C   UNK N   1      22.295  13.403   0.306  0.00  0.00     0.020 C 
HETATM   11  C   UNK N   1      21.562  14.341   4.919  0.00  0.00     0.038 A 
HETATM   12  C   UNK N   1      21.788  12.319   3.023  0.00  0.00     0.011 A 
HETATM   13  C   UNK N   1      21.990  13.080   5.314  0.00  0.00     0.035 A 
HETATM   14  C   UNK N   1      22.090  12.054   4.365  0.00  0.00     0.030 A 
ENDROOT
BRANCH  13  15
HETATM   15  N   UNK N   1      22.273  12.901   6.690  0.00  0.00    -0.323 N 
HETATM   16  C   UNK N   1      23.463  12.903   7.340  0.00  0.00     0.256 C 
HETATM   17  O   UNK N   1      24.515  13.094   6.743  0.00  0.00    -0.267 OA
HETATM   18  H   UNK N   1      21.486  12.753   7.262  0.00  0.00     0.169 HD
BRANCH  16  19
HETATM   19  C   UNK N   1      23.447  12.658   8.798  0.00  0.00     0.032 A 
HETATM   20  C   UNK N   1      24.620  12.515   9.554  0.00  0.00     0.018 A 
HETATM   21  C   UNK N   1      24.538  12.277  10.935  0.00  0.00     0.019 A 
HETATM   22  C   UNK N   1      23.285  12.179  11.566  0.00  0.00     0.037 A 
HETATM   23  C   UNK N   1      22.122  12.321  10.806  0.00  0.00     0.019 A 
HETATM   24  C   UNK N   1      22.203  12.559   9.440  0.00  0.00     0.018 A 
BRANCH  22  25
HETATM   25  C   UNK N   1      23.180  11.927  13.016  0.00  0.00     0.176 C 
HETATM   26  O   UNK N   1      22.381  11.106  13.441  0.00  0.00    -0.646 OA
BRANCH  25  27
HETATM   27  O   UNK N   1      23.961  12.601  13.882  0.00  0.00    -0.773 OA
HETATM   28  H   UNK N   1      24.622  13.181  13.562  0.00  0.00     0.167 HD
ENDBRANCH  25  27
ENDBRANCH  22  25
ENDBRANCH  16  19
ENDBRANCH  13  15
TORSDOF 4
ENDMDL
MODEL 8
REMARK VINA RESULT:      -7.2      5.002     10.213
REMARK  4 active torsions:
REMARK  status: ('A' for Active; 'I' for Inactive)
REMARK    1  A    between atoms: O_2  and  C_26 
REMARK    2  A    between atoms: N_4  and  C_17 
REMARK       I    between atoms: N_4  and  C_19 
REMARK    3  A    between atoms: C_19  and  C_20 
REMARK    4  A    between atoms: C_25  and  C_26 
ROOT
HETATM    1  C   UNK N   1      30.151  16.198   4.151  0.00  0.00    -0.020 C 
HETATM    2  C   UNK N   1      27.842  17.965   4.981  0.00  0.00    -0.020 C 
HETATM    3  C   UNK N   1      29.242  16.933   3.169  0.00  0.00     0.015 C 
HETATM    4  C   UNK N   1      27.846  17.082   3.731  0.00  0.00     0.015 C 
HETATM    5  C   UNK N   1      30.004  16.722   5.570  0.00  0.00    -0.041 A 
HETATM    6  C   UNK N   1      28.956  17.597   5.952  0.00  0.00    -0.043 A 
HETATM    7  C   UNK N   1      29.868  14.705   4.119  0.00  0.00     0.020 C 
HETATM    8  C   UNK N   1      31.570  16.426   3.656  0.00  0.00     0.020 C 
HETATM    9  C   UNK N   1      27.957  19.428   4.587  0.00  0.00     0.020 C 
HETATM   10  C   UNK N   1      26.488  17.746   5.635  0.00  0.00     0.020 C 
HETATM   11  C   UNK N   1      30.955  16.345   6.522  0.00  0.00     0.038 A 
HETATM   12  C   UNK N   1      28.941  18.113   7.266  0.00  0.00     0.011 A 
HETATM   13  C   UNK N   1      30.923  16.835   7.821  0.00  0.00     0.035 A 
HETATM   14  C   UNK N   1      29.921  17.739   8.196  0.00  0.00     0.030 A 
ENDROOT
BRANCH  13  15
HETATM   15  N   UNK N   1      31.952  16.405   8.694  0.00  0.00    -0.323 N 
HETATM   16  C   UNK N   1      33.233  16.836   8.806  0.00  0.00     0.256 C 
HETATM   17  O   UNK N   1      33.665  17.741   8.103  0.00  0.00    -0.267 OA
HETATM   18  H   UNK N   1      31.699  15.683   9.313  0.00  0.00     0.169 HD
BRANCH  16  19
HETATM   19  C   UNK N   1      34.095  16.168   9.804  0.00  0.00     0.032 A 
HETATM   20  C   UNK N   1      35.278  16.745  10.289  0.00  0.00     0.018 A 
HETATM   21  C   UNK N   1      36.057  16.056  11.232  0.00  0.00     0.019 A 
HETATM   22  C   UNK N   1      35.660  14.788  11.692  0.00  0.00     0.037 A 
HETATM   23  C   UNK N   1      34.482  14.220  11.203  0.00  0.00     0.019 A 
HETATM   24  C   UNK N   1      33.709  14.902  10.272  0.00  0.00     0.018 A 
BRANCH  22  25
HETATM   25  C   UNK N   1      36.467  14.049  12.682  0.00  0.00     0.176 C 
HETATM   26  O   UNK N   1      36.161  14.070  13.865  0.00  0.00    -0.646 OA
BRANCH  25  27
HETATM   27  O   UNK N   1      37.548  13.348  12.291  0.00  0.00    -0.773 OA
HETATM   28  H   UNK N   1      38.110  13.687  11.623  0.00  0.00     0.167 HD
ENDBRANCH  25  27
ENDBRANCH  22  25
ENDBRANCH  16  19
ENDBRANCH  13  15
TORSDOF 4
ENDMDL
MODEL 9
REMARK VINA RESULT:      -6.9      3.303      8.906
REMARK  4 active torsions:
REMARK  status: ('A' for Active; 'I' for Inactive)
REMARK    1  A    between atoms: O_2  and  C_26 
REMARK    2  A    between atoms: N_4  and  C_17 
REMARK       I    between atoms: N_4  and  C_19 
REMARK    3  A    between atoms: C_19  and  C_20 
REMARK    4  A    between atoms: C_25  and  C_26 
ROOT
HETATM    1  C   UNK N   1      23.715  14.774   5.667  0.00  0.00    -0.020 C 
HETATM    2  C   UNK N   1      22.077  17.223   4.990  0.00  0.00    -0.020 C 
HETATM    3  C   UNK N   1      22.268  14.726   5.182  0.00  0.00     0.015 C 
HETATM    4  C   UNK N   1      21.507  15.955   5.628  0.00  0.00     0.015 C 
HETATM    5  C   UNK N   1      24.354  16.134   5.436  0.00  0.00    -0.041 A 
HETATM    6  C   UNK N   1      23.597  17.274   5.061  0.00  0.00    -0.043 A 
HETATM    7  C   UNK N   1      23.792  14.412   7.142  0.00  0.00     0.020 C 
HETATM    8  C   UNK N   1      24.456  13.709   4.875  0.00  0.00     0.020 C 
HETATM    9  C   UNK N   1      21.620  17.331   3.545  0.00  0.00     0.020 C 
HETATM   10  C   UNK N   1      21.480  18.381   5.772  0.00  0.00     0.020 C 
HETATM   11  C   UNK N   1      25.738  16.253   5.571  0.00  0.00     0.038 A 
HETATM   12  C   UNK N   1      24.274  18.479   4.774  0.00  0.00     0.011 A 
HETATM   13  C   UNK N   1      26.399  17.447   5.312  0.00  0.00     0.035 A 
HETATM   14  C   UNK N   1      25.668  18.566   4.894  0.00  0.00     0.030 A 
ENDROOT
BRANCH  13  15
HETATM   15  N   UNK N   1      27.808  17.444   5.458  0.00  0.00    -0.323 N 
HETATM   16  C   UNK N   1      28.774  17.126   4.561  0.00  0.00     0.256 C 
HETATM   17  O   UNK N   1      28.495  16.790   3.417  0.00  0.00    -0.267 OA
HETATM   18  H   UNK N   1      28.136  17.716   6.345  0.00  0.00     0.169 HD
BRANCH  16  19
HETATM   19  C   UNK N   1      30.179  17.192   5.016  0.00  0.00     0.032 A 
HETATM   20  C   UNK N   1      31.239  17.504   4.152  0.00  0.00     0.018 A 
HETATM   21  C   UNK N   1      32.554  17.545   4.645  0.00  0.00     0.019 A 
HETATM   22  C   UNK N   1      32.814  17.270   5.999  0.00  0.00     0.037 A 
HETATM   23  C   UNK N   1      31.752  16.959   6.851  0.00  0.00     0.019 A 
HETATM   24  C   UNK N   1      30.451  16.921   6.365  0.00  0.00     0.018 A 
BRANCH  22  25
HETATM   25  C   UNK N   1      34.188  17.306   6.533  0.00  0.00     0.176 C 
HETATM   26  O   UNK N   1      34.948  16.368   6.340  0.00  0.00    -0.646 OA
BRANCH  25  27
HETATM   27  O   UNK N   1      34.617  18.370   7.240  0.00  0.00    -0.773 OA
HETATM   28  H   UNK N   1      34.206  18.589   8.052  0.00  0.00     0.167 HD
ENDBRANCH  25  27
ENDBRANCH  22  25
ENDBRANCH  16  19
ENDBRANCH  13  15
TORSDOF 4
ENDMDL
