REMARK  7 active torsions:
REMARK  status: ('A' for Active; 'I' for Inactive)
REMARK    1  A    between atoms: O_1  and  C_21 
REMARK    2  A    between atoms: O_3  and  C_31 
REMARK    3  A    between atoms: O_4  and  C_42 
REMARK    4  A    between atoms: C_11  and  C_21 
REMARK    5  A    between atoms: C_13  and  C_19 
REMARK    6  A    between atoms: C_28  and  C_29 
REMARK    7  A    between atoms: C_33  and  C_42 
ROOT
HETATM    1  N   UNK N   1       9.819   5.044  -0.198  0.00  0.00    -0.406 N 
HETATM    2  N   UNK N   1       8.316   0.979  -0.638  0.00  0.00    -0.357 N 
HETATM    3  C   UNK N   1      10.157   3.776   0.469  0.00  0.00     0.107 C 
HETATM    4  C   UNK N   1      10.159   2.579  -0.556  0.00  0.00     0.111 C 
HETATM    5  C   UNK N   1      11.734   4.267  -1.557  0.00  0.00     0.005 C 
HETATM    6  C   UNK N   1      11.602   3.946   0.970  0.00  0.00     0.010 C 
HETATM    7  C   UNK N   1      11.043   2.916  -1.771  0.00  0.00     0.034 C 
HETATM    8  C   UNK N   1      12.533   4.252  -0.227  0.00  0.00     0.013 C 
HETATM    9  C   UNK N   1      10.588   5.296  -1.437  0.00  0.00     0.122 C 
HETATM   10  C   UNK N   1       8.725   2.230  -0.897  0.00  0.00     0.037 A 
HETATM   11  C   UNK N   1       8.405   5.403  -0.206  0.00  0.00     0.122 C 
HETATM   12  C   UNK N   1       7.615   3.096  -0.905  0.00  0.00    -0.020 A 
HETATM   13  C   UNK N   1       7.575   4.571  -1.154  0.00  0.00     0.061 C 
HETATM   14  C   UNK N   1       6.554   2.319  -0.469  0.00  0.00     0.002 A 
HETATM   15  C   UNK N   1       7.045   1.061  -0.363  0.00  0.00     0.044 A 
HETATM   16  C   UNK N   1       5.263   2.616  -0.023  0.00  0.00     0.051 A 
HETATM   17  C   UNK N   1       6.360   0.041   0.164  0.00  0.00     0.041 A 
HETATM   18  C   UNK N   1       5.093   0.244   0.675  0.00  0.00    -0.013 A 
HETATM   19  C   UNK N   1       4.513   1.558   0.591  0.00  0.00     0.076 A 
HETATM   20  H   UNK N   1       8.865   0.162  -0.653  0.00  0.00     0.166 HD
ENDROOT
BRANCH  18  21
HETATM   21  C   UNK N   1       4.375  -0.979   1.219  0.00  0.00     0.072 C 
HETATM   22  C   UNK N   1       3.243  -1.043   0.226  0.00  0.00     0.025 C 
HETATM   23  C   UNK N   1       2.098  -1.994   0.398  0.00  0.00     0.033 C 
HETATM   24  C   UNK N   1       2.535  -3.450   0.530  0.00  0.00     0.127 C 
HETATM   25  C   UNK N   1       1.294  -1.780  -0.865  0.00  0.00    -0.051 C 
HETATM   26  C   UNK N   1       3.214  -3.962  -0.761  0.00  0.00     0.241 C 
HETATM   27  N   UNK N   1       2.325  -3.873  -1.935  0.00  0.00     0.093 N 
HETATM   28  C   UNK N   1       4.520  -3.226  -1.096  0.00  0.00     0.078 C 
HETATM   29  C   UNK N   1       1.487  -2.665  -2.084  0.00  0.00     0.306 C 
HETATM   30  C   UNK N   1       1.487  -5.053  -2.089  0.00  0.00     0.310 C 
HETATM   31  C   UNK N   1       5.446  -3.085   0.074  0.00  0.00    -0.020 A 
HETATM   32  C   UNK N   1       5.345  -2.178   1.137  0.00  0.00     0.025 A 
HETATM   33  C   UNK N   1       6.664  -3.707   0.221  0.00  0.00    -0.001 A 
HETATM   34  N   UNK N   1       6.456  -2.261   1.921  0.00  0.00    -0.358 N 
HETATM   35  C   UNK N   1       7.245  -3.194   1.350  0.00  0.00     0.043 A 
HETATM   36  H   UNK N   1       6.645  -1.745   2.738  0.00  0.00     0.166 HD
HETATM   37  C   UNK N   1       8.530  -3.561   1.746  0.00  0.00     0.030 A 
HETATM   38  C   UNK N   1       9.224  -4.491   0.947  0.00  0.00     0.002 A 
HETATM   39  C   UNK N   1       8.624  -5.020  -0.219  0.00  0.00     0.001 A 
HETATM   40  C   UNK N   1       7.326  -4.625  -0.594  0.00  0.00     0.014 A 
HETATM   41  C   UNK N   1       0.555  -0.669  -1.034  0.00  0.00    -0.026 C 
HETATM   42  C   UNK N   1       0.376   0.370   0.031  0.00  0.00     0.036 C 
BRANCH  24  43
HETATM   43  C   UNK N   1       1.349  -4.272   0.973  0.00  0.00     0.265 C 
HETATM   44  O   UNK N   1       1.425  -4.926   2.003  0.00  0.00    -0.265 OA
BRANCH  43  45
HETATM   45  O   UNK N   1       0.179  -4.194   0.289  0.00  0.00    -0.326 OA
HETATM   46  C   UNK N   1      -0.987  -4.767   0.735  0.00  0.00     0.213 C 
ENDBRANCH  43  45
ENDBRANCH  24  43
ENDBRANCH  18  21
BRANCH  19  47
HETATM   47  O   UNK N   1       3.278   1.774   1.105  0.00  0.00    -0.355 OA
HETATM   48  C   UNK N   1       2.686   3.015   1.150  0.00  0.00     0.210 C 
ENDBRANCH  19  47
BRANCH   4  49
HETATM   49  C   UNK N   1      10.741   1.333   0.149  0.00  0.00     0.275 C 
HETATM   50  O   UNK N   1      10.992   0.328  -0.507  0.00  0.00    -0.264 OA
BRANCH  49  51
HETATM   51  O   UNK N   1      10.749   1.274   1.508  0.00  0.00    -0.326 OA
HETATM   52  C   UNK N   1      10.962   0.105   2.201  0.00  0.00     0.213 C 
ENDBRANCH  49  51
ENDBRANCH   4  49
BRANCH   6  53
HETATM   53  C   UNK N   1      11.744   4.947   2.123  0.00  0.00     0.002 C 
HETATM   54  C   UNK N   1      11.506   6.392   1.710  0.00  0.00     0.005 C 
ENDBRANCH   6  53
TORSDOF 7
