REMARK  30 active torsions:
REMARK  status: ('A' for Active; 'I' for Inactive)
REMARK    1  A    between atoms: C_43  and  O_5 
REMARK    2  A    between atoms: C_46  and  O_5 
REMARK    3  A    between atoms: C_41  and  O_6 
REMARK    4  A    between atoms: C_47  and  O_8 
REMARK    5  A    between atoms: C_48  and  O_9 
REMARK    6  A    between atoms: O_9  and  C_61 
REMARK    7  A    between atoms: C_50  and  O_10 
REMARK    8  A    between atoms: C_59  and  O_12 
REMARK    9  A    between atoms: C_65  and  O_12 
REMARK   10  A    between atoms: C_54  and  O_13 
REMARK   11  A    between atoms: O_14  and  C_55 
REMARK   12  A    between atoms: O_21  and  C_103 
REMARK   13  A    between atoms: O_23  and  C_107 
REMARK   14  A    between atoms: C_111  and  O_24 
REMARK   15  A    between atoms: O_25  and  C_112 
REMARK   16  A    between atoms: O_26  and  C_115 
REMARK   17  A    between atoms: C_40  and  N_30 
REMARK   18  A    between atoms: N_30  and  C_52 
REMARK   19  A    between atoms: C_53  and  N_31 
REMARK   20  A    between atoms: C_113  and  N_37 
REMARK       I    between atoms: N_37  and  C_119 
REMARK       I    between atoms: N_38  and  C_118 
REMARK   21  A    between atoms: C_120  and  N_39 
REMARK   22  A    between atoms: C_51  and  C_55 
REMARK   23  A    between atoms: C_52  and  C_56 
REMARK   24  A    between atoms: C_71  and  C_78 
REMARK   25  A    between atoms: C_87  and  C_103 
REMARK   26  A    between atoms: C_99  and  C_114 
REMARK   27  A    between atoms: C_114  and  C_118 
REMARK   28  A    between atoms: C_119  and  C_120 
REMARK   29  A    between atoms: C_120  and  C_121 
REMARK   30  A    between atoms: C_121  and  C_122 
ROOT
HETATM    1 Cl   UNK N   1       4.947   1.937  -1.498  0.00  0.00    -0.114 Cl
HETATM    2 Cl   UNK N   1      14.839   0.576  -2.189  0.00  0.00    -0.081 Cl
HETATM    3  O   UNK N   1       8.448   1.155  -1.005  0.00  0.00    -0.310 OA
HETATM    4  O   UNK N   1      13.012   0.427   0.225  0.00  0.00    -0.306 OA
HETATM    5  O   UNK N   1       2.221  -3.869   1.138  0.00  0.00    -0.271 OA
HETATM    6  O   UNK N   1       6.026  -3.666   2.291  0.00  0.00    -0.271 OA
HETATM    7  O   UNK N   1       8.930  -3.896  -2.506  0.00  0.00    -0.271 OA
HETATM    8  O   UNK N   1      12.958  -3.281  -1.491  0.00  0.00    -0.271 OA
HETATM    9  O   UNK N   1      15.596  -3.677  -1.516  0.00  0.00    -0.271 OA
HETATM   10  N   UNK N   1       5.609  -3.665   0.079  0.00  0.00    -0.343 N 
HETATM   11  N   UNK N   1       3.446  -5.591   0.448  0.00  0.00    -0.341 N 
HETATM   12  N   UNK N   1       8.045  -4.289  -0.535  0.00  0.00    -0.342 N 
HETATM   13  N   UNK N   1      11.287  -4.132  -0.241  0.00  0.00    -0.342 N 
HETATM   14  N   UNK N   1      14.782  -4.796   0.259  0.00  0.00    -0.345 N 
HETATM   15  C   UNK N   1      10.787   0.815  -0.444  0.00  0.00     0.139 A 
HETATM   16  C   UNK N   1       4.266  -1.780   0.732  0.00  0.00     0.189 C 
HETATM   17  C   UNK N   1       4.235  -3.200   0.104  0.00  0.00     0.210 C 
HETATM   18  C   UNK N   1       9.475   0.340  -0.602  0.00  0.00     0.112 A 
HETATM   19  C   UNK N   1      11.775  -0.028   0.086  0.00  0.00     0.113 A 
HETATM   20  C   UNK N   1       5.166  -0.847  -0.038  0.00  0.00    -0.029 C 
HETATM   21  C   UNK N   1       9.242  -1.030  -0.365  0.00  0.00     0.050 A 
HETATM   22  C   UNK N   1      10.248  -1.897   0.023  0.00  0.00    -0.021 A 
HETATM   23  C   UNK N   1      11.495  -1.374   0.313  0.00  0.00     0.050 A 
HETATM   24  C   UNK N   1       3.273  -4.246   0.647  0.00  0.00     0.244 C 
HETATM   25  C   UNK N   1      10.312  -3.178  -0.749  0.00  0.00     0.210 C 
HETATM   26  C   UNK N   1       5.359   0.458   0.405  0.00  0.00     0.010 C 
HETATM   27  C   UNK N   1       5.843  -1.280  -1.199  0.00  0.00     0.012 C 
HETATM   28  C   UNK N   1       7.162   0.709  -1.107  0.00  0.00     0.075 C 
HETATM   29  C   UNK N   1       6.142   1.318  -0.359  0.00  0.00     0.163 C 
HETATM   30  C   UNK N   1       6.899  -0.535  -1.690  0.00  0.00     0.035 C 
HETATM   31  C   UNK N   1       6.438  -3.829   1.151  0.00  0.00     0.245 C 
HETATM   32  C   UNK N   1       7.874  -4.282   0.899  0.00  0.00     0.210 C 
HETATM   33  C   UNK N   1       9.048  -3.807  -1.292  0.00  0.00     0.246 C 
HETATM   34  C   UNK N   1       4.595  -6.249  -0.169  0.00  0.00     0.217 C 
HETATM   35  C   UNK N   1      14.141  -0.262   0.378  0.00  0.00     0.098 A 
HETATM   36  C   UNK N   1       8.060  -5.719   1.259  0.00  0.00    -0.025 A 
HETATM   37  C   UNK N   1       4.560  -7.757   0.024  0.00  0.00    -0.009 A 
HETATM   38  C   UNK N   1      12.581  -4.138  -0.704  0.00  0.00     0.241 C 
HETATM   39  C   UNK N   1       6.979  -6.536   1.005  0.00  0.00     0.025 A 
HETATM   40  C   UNK N   1       5.714  -8.554   0.408  0.00  0.00     0.019 A 
HETATM   41  C   UNK N   1       7.049  -7.883   0.726  0.00  0.00     0.011 A 
HETATM   42  C   UNK N   1      13.539  -5.237  -0.334  0.00  0.00     0.185 C 
HETATM   43  C   UNK N   1      15.103  -0.213  -0.643  0.00  0.00     0.068 A 
HETATM   44  C   UNK N   1      14.379  -0.989   1.550  0.00  0.00     0.040 A 
HETATM   45  C   UNK N   1       9.335  -6.281   1.225  0.00  0.00     0.012 A 
HETATM   46  C   UNK N   1       3.343  -8.383  -0.260  0.00  0.00     0.047 A 
HETATM   47  C   UNK N   1      16.532  -1.611   0.665  0.00  0.00    -0.025 A 
HETATM   48  C   UNK N   1       8.362  -8.451   0.696  0.00  0.00     0.076 A 
HETATM   49  C   UNK N   1       9.479  -7.648   0.985  0.00  0.00     0.038 A 
HETATM   50  C   UNK N   1      16.281  -0.882  -0.488  0.00  0.00     0.036 A 
HETATM   51  C   UNK N   1      15.574  -1.687   1.684  0.00  0.00     0.012 A 
HETATM   52  C   UNK N   1      17.660  -2.555   0.628  0.00  0.00     0.183 C 
HETATM   53  C   UNK N   1       5.530  -9.966   0.481  0.00  0.00     0.080 A 
HETATM   54  C   UNK N   1      17.114  -3.953   0.291  0.00  0.00     0.210 C 
HETATM   55  C   UNK N   1       3.204  -9.754  -0.164  0.00  0.00     0.069 A 
HETATM   56  C   UNK N   1      15.761  -4.101  -0.382  0.00  0.00     0.244 C 
HETATM   57  C   UNK N   1       4.289 -10.537   0.198  0.00  0.00     0.074 A 
HETATM   58  H   UNK N   1       5.983  -3.887  -0.804  0.00  0.00     0.163 HD
HETATM   59  H   UNK N   1       2.717  -6.177   0.753  0.00  0.00     0.163 HD
HETATM   60  H   UNK N   1       7.313  -4.713  -1.038  0.00  0.00     0.163 HD
HETATM   61  H   UNK N   1      11.015  -4.784   0.445  0.00  0.00     0.163 HD
HETATM   62  H   UNK N   1      14.933  -5.018   1.206  0.00  0.00     0.163 HD
ENDROOT
BRANCH  15  63
HETATM   63  O   UNK N   1      11.086   2.090  -0.871  0.00  0.00    -0.312 OA
BRANCH  63  64
HETATM   64  C   UNK N   1      12.111   2.949  -0.486  0.00  0.00     0.298 C 
HETATM   65  O   UNK N   1      13.415   2.491  -0.781  0.00  0.00    -0.348 OA
HETATM   66  C   UNK N   1      14.456   3.262  -0.199  0.00  0.00     0.179 C 
HETATM   67  C   UNK N   1      14.238   3.651   1.282  0.00  0.00     0.180 C 
HETATM   68  C   UNK N   1      12.908   4.335   1.470  0.00  0.00     0.183 C 
HETATM   69  C   UNK N   1      11.865   3.355   0.971  0.00  0.00     0.211 C 
BRANCH  66  70
HETATM   70  C   UNK N   1      14.902   4.376  -1.127  0.00  0.00     0.198 C 
BRANCH  70  71
HETATM   71  O   UNK N   1      16.237   4.687  -0.865  0.00  0.00    -0.398 OA
HETATM   72  H   UNK N   1      16.888   3.991  -0.683  0.00  0.00     0.209 HD
ENDBRANCH  70  71
ENDBRANCH  66  70
BRANCH  67  73
HETATM   73  O   UNK N   1      15.265   4.461   1.769  0.00  0.00    -0.390 OA
HETATM   74  H   UNK N   1      16.110   4.125   2.107  0.00  0.00     0.210 HD
ENDBRANCH  67  73
BRANCH  68  75
HETATM   75  O   UNK N   1      12.873   5.531   0.743  0.00  0.00    -0.390 OA
HETATM   76  H   UNK N   1      13.579   5.967   0.240  0.00  0.00     0.210 HD
ENDBRANCH  68  75
BRANCH  69  77
HETATM   77  O   UNK N   1      10.559   3.839   1.158  0.00  0.00    -0.348 OA
BRANCH  77  78
HETATM   78  C   UNK N   1      10.294   4.776   0.147  0.00  0.00     0.263 C 
HETATM   79  O   UNK N   1       9.959   6.010   0.748  0.00  0.00    -0.354 OA
HETATM   80  C   UNK N   1       9.335   6.787  -0.228  0.00  0.00     0.151 C 
HETATM   81  C   UNK N   1       7.917   6.261  -0.485  0.00  0.00     0.174 C 
HETATM   82  C   UNK N   1       9.347   8.247   0.158  0.00  0.00     0.042 C 
HETATM   83  C   UNK N   1       7.881   4.701  -0.338  0.00  0.00     0.055 C 
HETATM   84  C   UNK N   1       9.218   4.182  -0.784  0.00  0.00     0.093 C 
HETATM   85  C   UNK N   1       7.659   4.264   1.114  0.00  0.00     0.041 C 
BRANCH  81  86
HETATM   86  O   UNK N   1       7.541   6.677  -1.765  0.00  0.00    -0.391 OA
HETATM   87  H   UNK N   1       7.661   7.047  -2.654  0.00  0.00     0.210 HD
ENDBRANCH  81  86
BRANCH  83  88
HETATM   88  N   UNK N   1       6.880   4.043  -1.155  0.00  0.00    -0.406 N 
HETATM   89  H   UNK N   1       7.053   3.176  -1.663  0.00  0.00     0.154 HD
BRANCH  88  90
HETATM   90  C   UNK N   1       5.610   4.738  -1.180  0.00  0.00     0.153 C 
BRANCH  90  91
HETATM   91  C   UNK N   1       4.902   4.910   0.116  0.00  0.00    -0.041 C 
HETATM   92  C   UNK N   1       3.588   4.446   0.087  0.00  0.00     0.009 C 
HETATM   93  C   UNK N   1       2.555   5.308   0.423  0.00  0.00     0.013 C 
HETATM   94  C   UNK N   1       2.855   6.624   0.799  0.00  0.00    -0.026 C 
HETATM   95  C   UNK N   1       4.176   6.989   1.060  0.00  0.00     0.013 C 
HETATM   96  C   UNK N   1       5.194   6.124   0.729  0.00  0.00     0.009 C 
BRANCH  94  97
HETATM   97  C   UNK N   1       1.860   7.683   0.595  0.00  0.00    -0.026 A 
HETATM   98  C   UNK N   1       0.569   7.366   0.150  0.00  0.00     0.014 A 
HETATM   99  C   UNK N   1      -0.316   8.382  -0.211  0.00  0.00     0.024 A 
HETATM  100  C   UNK N   1       0.094   9.717  -0.158  0.00  0.00     0.034 A 
HETATM  101 Cl   UNK N   1      -1.018  10.989  -0.595  0.00  0.00    -0.084 Cl
HETATM  102  C   UNK N   1       1.386  10.040   0.259  0.00  0.00     0.024 A 
HETATM  103  C   UNK N   1       2.267   9.027   0.626  0.00  0.00     0.014 A 
ENDBRANCH  94  97
ENDBRANCH  90  91
ENDBRANCH  88  90
ENDBRANCH  83  88
ENDBRANCH  77  78
ENDBRANCH  69  77
ENDBRANCH  63  64
ENDBRANCH  15  63
BRANCH  16 104
HETATM  104  O   UNK N   1       3.073  -1.170   1.176  0.00  0.00    -0.349 OA
BRANCH 104 105
HETATM  105  C   UNK N   1       2.155  -1.017   0.132  0.00  0.00     0.263 C 
HETATM  106  O   UNK N   1       0.897  -1.414   0.640  0.00  0.00    -0.354 OA
HETATM  107  C   UNK N   1      -0.087  -0.997  -0.256  0.00  0.00     0.151 C 
HETATM  108  C   UNK N   1      -0.357   0.500  -0.062  0.00  0.00     0.174 C 
HETATM  109  C   UNK N   1      -1.341  -1.825  -0.078  0.00  0.00     0.042 C 
HETATM  110  C   UNK N   1       0.975   1.273   0.144  0.00  0.00     0.052 C 
HETATM  111  C   UNK N   1       2.168   0.457  -0.380  0.00  0.00     0.093 C 
HETATM  112  C   UNK N   1       1.173   1.533   1.628  0.00  0.00     0.041 C 
BRANCH 108 113
HETATM  113  O   UNK N   1      -1.076   0.969  -1.164  0.00  0.00    -0.391 OA
HETATM  114  H   UNK N   1      -1.044   1.565  -1.929  0.00  0.00     0.210 HD
ENDBRANCH 108 113
BRANCH 110 115
HETATM  115  N   UNK N   1       0.934   2.559  -0.534  0.00  0.00    -0.420 N 
HETATM  116  H   UNK N   1       1.701   3.035  -1.010  0.00  0.00     0.150 HD
HETATM  117  H   UNK N   1       0.036   3.041  -0.534  0.00  0.00     0.150 HD
ENDBRANCH 110 115
ENDBRANCH 104 105
ENDBRANCH  16 104
BRANCH  42 118
HETATM  118  C   UNK N   1      12.909  -6.277   0.571  0.00  0.00     0.137 C 
BRANCH 118 119
HETATM  119  C   UNK N   1      12.551  -7.476  -0.235  0.00  0.00     0.217 C 
HETATM  120  O   UNK N   1      11.750  -7.387  -1.151  0.00  0.00    -0.274 OA
HETATM  121  N   UNK N   1      13.120  -8.663   0.048  0.00  0.00    -0.370 N 
HETATM  122  H   UNK N   1      12.576  -9.457   0.254  0.00  0.00     0.159 HD
HETATM  123  H   UNK N   1      14.101  -8.738   0.048  0.00  0.00     0.159 HD
ENDBRANCH 118 119
ENDBRANCH  42 118
BRANCH  52 124
HETATM  124  O   UNK N   1      18.564  -2.173  -0.367  0.00  0.00    -0.388 OA
HETATM  125  H   UNK N   1      19.108  -2.583  -1.058  0.00  0.00     0.210 HD
ENDBRANCH  52 124
BRANCH  54 126
HETATM  126  N   UNK N   1      17.217  -4.821   1.424  0.00  0.00    -0.343 N 
HETATM  127  C   UNK N   1      18.015  -5.914   1.389  0.00  0.00     0.240 C 
HETATM  128  O   UNK N   1      18.065  -6.639   2.367  0.00  0.00    -0.271 OA
HETATM  129  H   UNK N   1      16.702  -4.621   2.239  0.00  0.00     0.163 HD
BRANCH 127 130
HETATM  130  C   UNK N   1      18.828  -6.287   0.159  0.00  0.00     0.169 C 
BRANCH 130 131
HETATM  131  N   UNK N   1      17.981  -6.906  -0.846  0.00  0.00    -0.413 N 
HETATM  132  C   UNK N   1      18.103  -8.342  -0.660  0.00  0.00     0.140 C 
HETATM  133  H   UNK N   1      17.412  -6.427  -1.545  0.00  0.00     0.153 HD
ENDBRANCH 130 131
BRANCH 130 134
HETATM  134  C   UNK N   1      19.626  -5.139  -0.484  0.00  0.00     0.038 C 
BRANCH 134 135
HETATM  135  C   UNK N   1      20.520  -4.371   0.481  0.00  0.00    -0.020 C 
HETATM  136  C   UNK N   1      21.172  -3.213  -0.250  0.00  0.00     0.009 C 
HETATM  137  C   UNK N   1      21.608  -5.271   1.019  0.00  0.00     0.009 C 
ENDBRANCH 134 135
ENDBRANCH 130 134
ENDBRANCH 127 130
ENDBRANCH  54 126
BRANCH  34 138
HETATM  138  C   UNK N   1       4.835  -5.912  -1.619  0.00  0.00     0.168 C 
HETATM  139  O   UNK N   1       5.876  -6.268  -2.150  0.00  0.00    -0.648 OA
BRANCH 138 140
HETATM  140  O   UNK N   1       3.939  -5.202  -2.327  0.00  0.00    -0.775 OA
HETATM  141  H   UNK N   1       4.055  -4.414  -2.821  0.00  0.00     0.167 HD
ENDBRANCH 138 140
ENDBRANCH  34 138
BRANCH  48 142
HETATM  142  O   UNK N   1       8.593  -9.717   0.328  0.00  0.00    -0.360 OA
HETATM  143  H   UNK N   1       7.907 -10.300   0.070  0.00  0.00     0.217 HD
ENDBRANCH  48 142
BRANCH  53 144
HETATM  144  O   UNK N   1       6.508 -10.794   0.864  0.00  0.00    -0.360 OA
HETATM  145  H   UNK N   1       6.349 -11.678   1.133  0.00  0.00     0.217 HD
ENDBRANCH  53 144
BRANCH  55 146
HETATM  146  O   UNK N   1       2.017 -10.325  -0.417  0.00  0.00    -0.361 OA
HETATM  147  H   UNK N   1       1.257  -9.806  -0.593  0.00  0.00     0.217 HD
ENDBRANCH  55 146
TORSDOF 30
