MODEL 1
REMARK VINA RESULT:      -6.9      0.000      0.000
REMARK  6 active torsions:
REMARK  status: ('A' for Active; 'I' for Inactive)
REMARK    1  A    between atoms: N_3  and  C_12 
REMARK    2  A    between atoms: N_4  and  C_11 
REMARK       I    between atoms: N_4  and  C_15 
REMARK    3  A    between atoms: C_6  and  C_11 
REMARK    4  A    between atoms: C_12  and  C_13 
REMARK    5  A    between atoms: C_13  and  C_18 
REMARK    6  A    between atoms: C_14  and  C_15 
ROOT
HETATM    1  O   UNK N   1      34.811  18.556   7.862  0.00  0.00    -0.267 OA
HETATM    2  N   UNK N   1      34.016  17.171   9.436  0.00  0.00    -0.356 N 
HETATM    3  C   UNK N   1      33.897  17.854   8.273  0.00  0.00     0.256 C 
HETATM    4  H   UNK N   1      33.234  16.667   9.757  0.00  0.00     0.162 HD
ENDROOT
BRANCH   3   5
HETATM    5  C   UNK N   1      32.670  17.675   7.476  0.00  0.00     0.095 A 
HETATM    6  C   UNK N   1      31.372  17.772   7.965  0.00  0.00     0.162 A 
HETATM    7  O   UNK N   1      31.001  18.066   9.229  0.00  0.00    -0.335 OA
HETATM    8  N   UNK N   1      30.478  17.513   6.995  0.00  0.00    -0.326 N 
HETATM    9  C   UNK N   1      29.669  18.290   9.538  0.00  0.00     0.179 C 
HETATM   10  C   UNK N   1      28.730  17.395   8.711  0.00  0.00     0.047 C 
HETATM   11  C   UNK N   1      29.034  17.501   7.207  0.00  0.00     0.133 C 
HETATM   12  C   UNK N   1      31.179  17.259   5.878  0.00  0.00     0.047 A 
HETATM   13  C   UNK N   1      32.532  17.348   6.133  0.00  0.00     0.011 A 
HETATM   14  C   UNK N   1      30.685  16.927   4.619  0.00  0.00     0.030 A 
HETATM   15  C   UNK N   1      33.476  17.111   5.137  0.00  0.00     0.015 A 
HETATM   16  C   UNK N   1      33.007  16.777   3.852  0.00  0.00     0.001 A 
HETATM   17  C   UNK N   1      31.619  16.686   3.595  0.00  0.00     0.002 A 
ENDBRANCH   3   5
BRANCH   2  18
HETATM   18  C   UNK N   1      35.215  17.136  10.231  0.00  0.00     0.127 C 
BRANCH  18  19
HETATM   19  C   UNK N   1      35.331  15.750  10.858  0.00  0.00     0.007 C 
HETATM   20  C   UNK N   1      34.021  14.969  10.746  0.00  0.00     0.036 C 
HETATM   21  C   UNK N   1      34.087  13.842   9.714  0.00  0.00     0.273 C 
HETATM   22  N   UNK N   1      34.911  14.234   8.569  0.00  0.00     0.088 N 
HETATM   23  C   UNK N   1      36.320  14.293   8.977  0.00  0.00     0.273 C 
HETATM   24  C   UNK N   1      36.541  14.947  10.352  0.00  0.00     0.036 C 
BRANCH  22  25
HETATM   25  C   UNK N   1      34.834  13.173   7.572  0.00  0.00     0.272 C 
BRANCH  25  26
HETATM   26  C   UNK N   1      34.206  13.669   6.279  0.00  0.00     0.030 C 
BRANCH  26  27
HETATM   27  C   UNK N   1      32.701  13.676   6.446  0.00  0.00    -0.003 C 
HETATM   28  C   UNK N   1      32.042  13.289   5.140  0.00  0.00     0.005 C 
ENDBRANCH  26  27
ENDBRANCH  25  26
ENDBRANCH  22  25
ENDBRANCH  18  19
ENDBRANCH   2  18
TORSDOF 6
ENDMDL
MODEL 2
REMARK VINA RESULT:      -6.7      2.040      3.712
REMARK  6 active torsions:
REMARK  status: ('A' for Active; 'I' for Inactive)
REMARK    1  A    between atoms: N_3  and  C_12 
REMARK    2  A    between atoms: N_4  and  C_11 
REMARK       I    between atoms: N_4  and  C_15 
REMARK    3  A    between atoms: C_6  and  C_11 
REMARK    4  A    between atoms: C_12  and  C_13 
REMARK    5  A    between atoms: C_13  and  C_18 
REMARK    6  A    between atoms: C_14  and  C_15 
ROOT
HETATM    1  O   UNK N   1      34.537  18.342   7.786  0.00  0.00    -0.267 OA
HETATM    2  N   UNK N   1      33.704  16.808   9.194  0.00  0.00    -0.356 N 
HETATM    3  C   UNK N   1      33.609  17.612   8.109  0.00  0.00     0.256 C 
HETATM    4  H   UNK N   1      32.912  16.283   9.450  0.00  0.00     0.162 HD
ENDROOT
BRANCH   3   5
HETATM    5  C   UNK N   1      32.391  17.534   7.281  0.00  0.00     0.095 A 
HETATM    6  C   UNK N   1      31.089  17.656   7.753  0.00  0.00     0.162 A 
HETATM    7  O   UNK N   1      30.706  17.889   9.026  0.00  0.00    -0.335 OA
HETATM    8  N   UNK N   1      30.204  17.494   6.754  0.00  0.00    -0.326 N 
HETATM    9  C   UNK N   1      29.378  18.151   9.325  0.00  0.00     0.179 C 
HETATM   10  C   UNK N   1      28.420  17.348   8.430  0.00  0.00     0.047 C 
HETATM   11  C   UNK N   1      28.758  17.531   6.940  0.00  0.00     0.133 C 
HETATM   12  C   UNK N   1      30.916  17.278   5.635  0.00  0.00     0.047 A 
HETATM   13  C   UNK N   1      32.266  17.294   5.919  0.00  0.00     0.011 A 
HETATM   14  C   UNK N   1      30.433  17.043   4.350  0.00  0.00     0.030 A 
HETATM   15  C   UNK N   1      33.219  17.076   4.927  0.00  0.00     0.015 A 
HETATM   16  C   UNK N   1      32.762  16.841   3.616  0.00  0.00     0.001 A 
HETATM   17  C   UNK N   1      31.377  16.824   3.330  0.00  0.00     0.002 A 
ENDBRANCH   3   5
BRANCH   2  18
HETATM   18  C   UNK N   1      34.891  16.675   9.995  0.00  0.00     0.127 C 
BRANCH  18  19
HETATM   19  C   UNK N   1      35.534  15.328   9.674  0.00  0.00     0.007 C 
HETATM   20  C   UNK N   1      36.843  15.132  10.442  0.00  0.00     0.036 C 
HETATM   21  C   UNK N   1      36.718  14.115  11.578  0.00  0.00     0.273 C 
HETATM   22  N   UNK N   1      35.399  14.200  12.208  0.00  0.00     0.088 N 
HETATM   23  C   UNK N   1      34.381  13.683  11.286  0.00  0.00     0.273 C 
HETATM   24  C   UNK N   1      34.575  14.137   9.829  0.00  0.00     0.036 C 
BRANCH  22  25
HETATM   25  C   UNK N   1      35.387  13.300  13.355  0.00  0.00     0.272 C 
BRANCH  25  26
HETATM   26  C   UNK N   1      36.552  13.576  14.292  0.00  0.00     0.030 C 
BRANCH  26  27
HETATM   27  C   UNK N   1      36.177  13.101  15.680  0.00  0.00    -0.003 C 
HETATM   28  C   UNK N   1      34.675  12.942  15.776  0.00  0.00     0.005 C 
ENDBRANCH  26  27
ENDBRANCH  25  26
ENDBRANCH  22  25
ENDBRANCH  18  19
ENDBRANCH   2  18
TORSDOF 6
ENDMDL
MODEL 3
REMARK VINA RESULT:      -6.6      2.553      5.332
REMARK  6 active torsions:
REMARK  status: ('A' for Active; 'I' for Inactive)
REMARK    1  A    between atoms: N_3  and  C_12 
REMARK    2  A    between atoms: N_4  and  C_11 
REMARK       I    between atoms: N_4  and  C_15 
REMARK    3  A    between atoms: C_6  and  C_11 
REMARK    4  A    between atoms: C_12  and  C_13 
REMARK    5  A    between atoms: C_13  and  C_18 
REMARK    6  A    between atoms: C_14  and  C_15 
ROOT
HETATM    1  O   UNK N   1      29.218  15.707   4.494  0.00  0.00    -0.267 OA
HETATM    2  N   UNK N   1      30.564  17.329   3.729  0.00  0.00    -0.356 N 
HETATM    3  C   UNK N   1      29.594  16.870   4.555  0.00  0.00     0.256 C 
HETATM    4  H   UNK N   1      30.793  18.285   3.772  0.00  0.00     0.162 HD
ENDROOT
BRANCH   3   5
HETATM    5  C   UNK N   1      29.054  17.783   5.579  0.00  0.00     0.095 A 
HETATM    6  C   UNK N   1      29.298  17.695   6.944  0.00  0.00     0.162 A 
HETATM    7  O   UNK N   1      30.078  16.790   7.572  0.00  0.00    -0.335 OA
HETATM    8  N   UNK N   1      28.625  18.649   7.611  0.00  0.00    -0.326 N 
HETATM    9  C   UNK N   1      30.362  16.921   8.923  0.00  0.00     0.179 C 
HETATM   10  C   UNK N   1      29.169  17.497   9.705  0.00  0.00     0.047 C 
HETATM   11  C   UNK N   1      28.649  18.793   9.062  0.00  0.00     0.133 C 
HETATM   12  C   UNK N   1      27.954  19.364   6.692  0.00  0.00     0.047 A 
HETATM   13  C   UNK N   1      28.191  18.862   5.429  0.00  0.00     0.011 A 
HETATM   14  C   UNK N   1      27.109  20.449   6.909  0.00  0.00     0.030 A 
HETATM   15  C   UNK N   1      27.595  19.420   4.301  0.00  0.00     0.015 A 
HETATM   16  C   UNK N   1      26.738  20.522   4.488  0.00  0.00     0.001 A 
HETATM   17  C   UNK N   1      26.496  21.033   5.784  0.00  0.00     0.002 A 
ENDBRANCH   3   5
BRANCH   2  18
HETATM   18  C   UNK N   1      31.280  16.505   2.792  0.00  0.00     0.127 C 
BRANCH  18  19
HETATM   19  C   UNK N   1      32.775  16.714   3.020  0.00  0.00     0.007 C 
HETATM   20  C   UNK N   1      33.040  17.668   4.185  0.00  0.00     0.036 C 
HETATM   21  C   UNK N   1      33.569  16.953   5.430  0.00  0.00     0.273 C 
HETATM   22  N   UNK N   1      32.952  15.632   5.571  0.00  0.00     0.088 N 
HETATM   23  C   UNK N   1      33.462  14.739   4.524  0.00  0.00     0.273 C 
HETATM   24  C   UNK N   1      33.567  15.402   3.140  0.00  0.00     0.036 C 
BRANCH  22  25
HETATM   25  C   UNK N   1      33.400  15.056   6.834  0.00  0.00     0.272 C 
BRANCH  25  26
HETATM   26  C   UNK N   1      34.767  15.589   7.234  0.00  0.00     0.030 C 
BRANCH  26  27
HETATM   27  C   UNK N   1      34.786  15.789   8.735  0.00  0.00    -0.003 C 
HETATM   28  C   UNK N   1      34.471  17.233   9.059  0.00  0.00     0.005 C 
ENDBRANCH  26  27
ENDBRANCH  25  26
ENDBRANCH  22  25
ENDBRANCH  18  19
ENDBRANCH   2  18
TORSDOF 6
ENDMDL
MODEL 4
REMARK VINA RESULT:      -6.6      2.714      5.515
REMARK  6 active torsions:
REMARK  status: ('A' for Active; 'I' for Inactive)
REMARK    1  A    between atoms: N_3  and  C_12 
REMARK    2  A    between atoms: N_4  and  C_11 
REMARK       I    between atoms: N_4  and  C_15 
REMARK    3  A    between atoms: C_6  and  C_11 
REMARK    4  A    between atoms: C_12  and  C_13 
REMARK    5  A    between atoms: C_13  and  C_18 
REMARK    6  A    between atoms: C_14  and  C_15 
ROOT
HETATM    1  O   UNK N   1      29.006  15.818   4.236  0.00  0.00    -0.267 OA
HETATM    2  N   UNK N   1      30.596  17.342   3.816  0.00  0.00    -0.356 N 
HETATM    3  C   UNK N   1      29.514  16.899   4.500  0.00  0.00     0.256 C 
HETATM    4  H   UNK N   1      30.934  18.243   4.023  0.00  0.00     0.162 HD
ENDROOT
BRANCH   3   5
HETATM    5  C   UNK N   1      29.007  17.715   5.618  0.00  0.00     0.095 A 
HETATM    6  C   UNK N   1      28.083  18.748   5.506  0.00  0.00     0.162 A 
HETATM    7  O   UNK N   1      27.472  19.171   4.379  0.00  0.00    -0.335 OA
HETATM    8  N   UNK N   1      27.862  19.321   6.702  0.00  0.00    -0.326 N 
HETATM    9  C   UNK N   1      26.449  20.104   4.440  0.00  0.00     0.179 C 
HETATM   10  C   UNK N   1      26.683  21.139   5.554  0.00  0.00     0.047 C 
HETATM   11  C   UNK N   1      26.969  20.457   6.902  0.00  0.00     0.133 C 
HETATM   12  C   UNK N   1      28.624  18.666   7.593  0.00  0.00     0.047 A 
HETATM   13  C   UNK N   1      29.344  17.671   6.965  0.00  0.00     0.011 A 
HETATM   14  C   UNK N   1      28.739  18.911   8.959  0.00  0.00     0.030 A 
HETATM   15  C   UNK N   1      30.227  16.856   7.671  0.00  0.00     0.015 A 
HETATM   16  C   UNK N   1      30.361  17.077   9.055  0.00  0.00     0.001 A 
HETATM   17  C   UNK N   1      29.622  18.099   9.695  0.00  0.00     0.002 A 
ENDBRANCH   3   5
BRANCH   2  18
HETATM   18  C   UNK N   1      31.281  16.578   2.809  0.00  0.00     0.127 C 
BRANCH  18  19
HETATM   19  C   UNK N   1      32.783  16.745   3.022  0.00  0.00     0.007 C 
HETATM   20  C   UNK N   1      33.085  17.654   4.215  0.00  0.00     0.036 C 
HETATM   21  C   UNK N   1      33.613  16.885   5.428  0.00  0.00     0.273 C 
HETATM   22  N   UNK N   1      32.969  15.575   5.534  0.00  0.00     0.088 N 
HETATM   23  C   UNK N   1      33.444  14.706   4.451  0.00  0.00     0.273 C 
HETATM   24  C   UNK N   1      33.546  15.412   3.088  0.00  0.00     0.036 C 
BRANCH  22  25
HETATM   25  C   UNK N   1      33.420  14.947   6.770  0.00  0.00     0.272 C 
BRANCH  25  26
HETATM   26  C   UNK N   1      34.715  15.568   7.269  0.00  0.00     0.030 C 
BRANCH  26  27
HETATM   27  C   UNK N   1      34.627  15.726   8.772  0.00  0.00    -0.003 C 
HETATM   28  C   UNK N   1      34.157  17.124   9.111  0.00  0.00     0.005 C 
ENDBRANCH  26  27
ENDBRANCH  25  26
ENDBRANCH  22  25
ENDBRANCH  18  19
ENDBRANCH   2  18
TORSDOF 6
ENDMDL
MODEL 5
REMARK VINA RESULT:      -6.5      2.210      4.774
REMARK  6 active torsions:
REMARK  status: ('A' for Active; 'I' for Inactive)
REMARK    1  A    between atoms: N_3  and  C_12 
REMARK    2  A    between atoms: N_4  and  C_11 
REMARK       I    between atoms: N_4  and  C_15 
REMARK    3  A    between atoms: C_6  and  C_11 
REMARK    4  A    between atoms: C_12  and  C_13 
REMARK    5  A    between atoms: C_13  and  C_18 
REMARK    6  A    between atoms: C_14  and  C_15 
ROOT
HETATM    1  O   UNK N   1      34.466  18.352   7.885  0.00  0.00    -0.267 OA
HETATM    2  N   UNK N   1      33.753  16.798   9.336  0.00  0.00    -0.356 N 
HETATM    3  C   UNK N   1      33.575  17.603   8.261  0.00  0.00     0.256 C 
HETATM    4  H   UNK N   1      32.990  16.256   9.637  0.00  0.00     0.162 HD
ENDROOT
BRANCH   3   5
HETATM    5  C   UNK N   1      32.310  17.502   7.510  0.00  0.00     0.095 A 
HETATM    6  C   UNK N   1      32.193  17.118   6.180  0.00  0.00     0.162 A 
HETATM    7  O   UNK N   1      33.192  16.749   5.351  0.00  0.00    -0.335 OA
HETATM    8  N   UNK N   1      30.910  17.169   5.780  0.00  0.00    -0.326 N 
HETATM    9  C   UNK N   1      32.912  16.232   4.095  0.00  0.00     0.179 C 
HETATM   10  C   UNK N   1      31.674  16.894   3.467  0.00  0.00     0.047 C 
HETATM   11  C   UNK N   1      30.471  16.858   4.425  0.00  0.00     0.133 C 
HETATM   12  C   UNK N   1      30.190  17.573   6.840  0.00  0.00     0.047 A 
HETATM   13  C   UNK N   1      31.015  17.789   7.924  0.00  0.00     0.011 A 
HETATM   14  C   UNK N   1      28.815  17.785   6.905  0.00  0.00     0.030 A 
HETATM   15  C   UNK N   1      30.511  18.232   9.145  0.00  0.00     0.015 A 
HETATM   16  C   UNK N   1      29.123  18.450   9.242  0.00  0.00     0.001 A 
HETATM   17  C   UNK N   1      28.281  18.229   8.128  0.00  0.00     0.002 A 
ENDBRANCH   3   5
BRANCH   2  18
HETATM   18  C   UNK N   1      34.990  16.687  10.061  0.00  0.00     0.127 C 
BRANCH  18  19
HETATM   19  C   UNK N   1      35.616  15.334   9.732  0.00  0.00     0.007 C 
HETATM   20  C   UNK N   1      36.909  15.105  10.517  0.00  0.00     0.036 C 
HETATM   21  C   UNK N   1      36.749  14.076  11.637  0.00  0.00     0.273 C 
HETATM   22  N   UNK N   1      35.422  14.176  12.249  0.00  0.00     0.088 N 
HETATM   23  C   UNK N   1      34.410  13.688  11.305  0.00  0.00     0.273 C 
HETATM   24  C   UNK N   1      34.634  14.157   9.857  0.00  0.00     0.036 C 
BRANCH  22  25
HETATM   25  C   UNK N   1      35.377  13.261  13.383  0.00  0.00     0.272 C 
BRANCH  25  26
HETATM   26  C   UNK N   1      36.537  13.500  14.337  0.00  0.00     0.030 C 
BRANCH  26  27
HETATM   27  C   UNK N   1      36.136  13.014  15.714  0.00  0.00    -0.003 C 
HETATM   28  C   UNK N   1      34.631  12.880  15.789  0.00  0.00     0.005 C 
ENDBRANCH  26  27
ENDBRANCH  25  26
ENDBRANCH  22  25
ENDBRANCH  18  19
ENDBRANCH   2  18
TORSDOF 6
ENDMDL
MODEL 6
REMARK VINA RESULT:      -6.2      3.244      7.683
REMARK  6 active torsions:
REMARK  status: ('A' for Active; 'I' for Inactive)
REMARK    1  A    between atoms: N_3  and  C_12 
REMARK    2  A    between atoms: N_4  and  C_11 
REMARK       I    between atoms: N_4  and  C_15 
REMARK    3  A    between atoms: C_6  and  C_11 
REMARK    4  A    between atoms: C_12  and  C_13 
REMARK    5  A    between atoms: C_13  and  C_18 
REMARK    6  A    between atoms: C_14  and  C_15 
ROOT
HETATM    1  O   UNK N   1      29.914  16.872   3.668  0.00  0.00    -0.267 OA
HETATM    2  N   UNK N   1      29.144  15.113   4.826  0.00  0.00    -0.356 N 
HETATM    3  C   UNK N   1      29.833  16.275   4.733  0.00  0.00     0.256 C 
HETATM    4  H   UNK N   1      29.156  14.638   5.689  0.00  0.00     0.162 HD
ENDROOT
BRANCH   3   5
HETATM    5  C   UNK N   1      30.421  16.844   5.960  0.00  0.00     0.095 A 
HETATM    6  C   UNK N   1      31.777  16.876   6.261  0.00  0.00     0.162 A 
HETATM    7  O   UNK N   1      32.790  16.424   5.493  0.00  0.00    -0.335 OA
HETATM    8  N   UNK N   1      31.982  17.422   7.473  0.00  0.00    -0.326 N 
HETATM    9  C   UNK N   1      34.108  16.670   5.847  0.00  0.00     0.179 C 
HETATM   10  C   UNK N   1      34.305  16.642   7.373  0.00  0.00     0.047 C 
HETATM   11  C   UNK N   1      33.299  17.562   8.085  0.00  0.00     0.133 C 
HETATM   12  C   UNK N   1      30.775  17.755   7.959  0.00  0.00     0.047 A 
HETATM   13  C   UNK N   1      29.788  17.415   7.057  0.00  0.00     0.011 A 
HETATM   14  C   UNK N   1      30.483  18.339   9.188  0.00  0.00     0.030 A 
HETATM   15  C   UNK N   1      28.441  17.641   7.333  0.00  0.00     0.015 A 
HETATM   16  C   UNK N   1      28.115  18.236   8.568  0.00  0.00     0.001 A 
HETATM   17  C   UNK N   1      29.129  18.582   9.490  0.00  0.00     0.002 A 
ENDBRANCH   3   5
BRANCH   2  18
HETATM   18  C   UNK N   1      28.397  14.531   3.744  0.00  0.00     0.127 C 
BRANCH  18  19
HETATM   19  C   UNK N   1      26.924  14.505   4.142  0.00  0.00     0.007 C 
HETATM   20  C   UNK N   1      26.688  15.215   5.476  0.00  0.00     0.036 C 
HETATM   21  C   UNK N   1      25.994  16.569   5.314  0.00  0.00     0.273 C 
HETATM   22  N   UNK N   1      26.444  17.240   4.093  0.00  0.00     0.088 N 
HETATM   23  C   UNK N   1      25.911  16.536   2.921  0.00  0.00     0.273 C 
HETATM   24  C   UNK N   1      25.981  15.003   3.034  0.00  0.00     0.036 C 
BRANCH  22  25
HETATM   25  C   UNK N   1      25.845  18.570   4.061  0.00  0.00     0.272 C 
BRANCH  25  26
HETATM   26  C   UNK N   1      26.871  19.650   4.366  0.00  0.00     0.030 C 
BRANCH  26  27
HETATM   27  C   UNK N   1      26.410  20.422   5.584  0.00  0.00    -0.003 C 
HETATM   28  C   UNK N   1      27.586  21.146   6.203  0.00  0.00     0.005 C 
ENDBRANCH  26  27
ENDBRANCH  25  26
ENDBRANCH  22  25
ENDBRANCH  18  19
ENDBRANCH   2  18
TORSDOF 6
ENDMDL
MODEL 7
REMARK VINA RESULT:      -6.0      2.437      4.902
REMARK  6 active torsions:
REMARK  status: ('A' for Active; 'I' for Inactive)
REMARK    1  A    between atoms: N_3  and  C_12 
REMARK    2  A    between atoms: N_4  and  C_11 
REMARK       I    between atoms: N_4  and  C_15 
REMARK    3  A    between atoms: C_6  and  C_11 
REMARK    4  A    between atoms: C_12  and  C_13 
REMARK    5  A    between atoms: C_13  and  C_18 
REMARK    6  A    between atoms: C_14  and  C_15 
ROOT
HETATM    1  O   UNK N   1      30.892  14.115   6.016  0.00  0.00    -0.267 OA
HETATM    2  N   UNK N   1      32.000  15.773   4.991  0.00  0.00    -0.356 N 
HETATM    3  C   UNK N   1      30.932  15.287   5.668  0.00  0.00     0.256 C 
HETATM    4  H   UNK N   1      31.963  16.707   4.681  0.00  0.00     0.162 HD
ENDROOT
BRANCH   3   5
HETATM    5  C   UNK N   1      29.853  16.220   6.041  0.00  0.00     0.095 A 
HETATM    6  C   UNK N   1      28.727  16.494   5.274  0.00  0.00     0.162 A 
HETATM    7  O   UNK N   1      28.406  15.953   4.081  0.00  0.00    -0.335 OA
HETATM    8  N   UNK N   1      27.957  17.420   5.874  0.00  0.00    -0.326 N 
HETATM    9  C   UNK N   1      27.169  16.198   3.505  0.00  0.00     0.179 C 
HETATM   10  C   UNK N   1      26.676  17.627   3.793  0.00  0.00     0.047 C 
HETATM   11  C   UNK N   1      26.724  17.943   5.297  0.00  0.00     0.133 C 
HETATM   12  C   UNK N   1      28.565  17.742   7.028  0.00  0.00     0.047 A 
HETATM   13  C   UNK N   1      29.735  17.025   7.167  0.00  0.00     0.011 A 
HETATM   14  C   UNK N   1      28.147  18.667   7.981  0.00  0.00     0.030 A 
HETATM   15  C   UNK N   1      30.562  17.192   8.276  0.00  0.00     0.015 A 
HETATM   16  C   UNK N   1      30.163  18.117   9.259  0.00  0.00     0.001 A 
HETATM   17  C   UNK N   1      28.964  18.851   9.113  0.00  0.00     0.002 A 
ENDBRANCH   3   5
BRANCH   2  18
HETATM   18  C   UNK N   1      33.184  15.011   4.700  0.00  0.00     0.127 C 
BRANCH  18  19
HETATM   19  C   UNK N   1      34.392  15.795   5.205  0.00  0.00     0.007 C 
HETATM   20  C   UNK N   1      33.971  17.074   5.929  0.00  0.00     0.036 C 
HETATM   21  C   UNK N   1      34.158  16.988   7.445  0.00  0.00     0.273 C 
HETATM   22  N   UNK N   1      33.869  15.636   7.927  0.00  0.00     0.088 N 
HETATM   23  C   UNK N   1      34.927  14.721   7.485  0.00  0.00     0.273 C 
HETATM   24  C   UNK N   1      35.374  14.946   6.029  0.00  0.00     0.036 C 
BRANCH  22  25
HETATM   25  C   UNK N   1      33.944  15.650   9.384  0.00  0.00     0.272 C 
BRANCH  25  26
HETATM   26  C   UNK N   1      34.865  16.752   9.883  0.00  0.00     0.030 C 
BRANCH  26  27
HETATM   27  C   UNK N   1      35.876  16.143  10.831  0.00  0.00    -0.003 C 
HETATM   28  C   UNK N   1      35.223  15.035  11.629  0.00  0.00     0.005 C 
ENDBRANCH  26  27
ENDBRANCH  25  26
ENDBRANCH  22  25
ENDBRANCH  18  19
ENDBRANCH   2  18
TORSDOF 6
ENDMDL
MODEL 8
REMARK VINA RESULT:      -6.0     13.601     17.246
REMARK  6 active torsions:
REMARK  status: ('A' for Active; 'I' for Inactive)
REMARK    1  A    between atoms: N_3  and  C_12 
REMARK    2  A    between atoms: N_4  and  C_11 
REMARK       I    between atoms: N_4  and  C_15 
REMARK    3  A    between atoms: C_6  and  C_11 
REMARK    4  A    between atoms: C_12  and  C_13 
REMARK    5  A    between atoms: C_13  and  C_18 
REMARK    6  A    between atoms: C_14  and  C_15 
ROOT
HETATM    1  O   UNK N   1      28.130  24.652  -7.889  0.00  0.00    -0.267 OA
HETATM    2  N   UNK N   1      26.550  24.031  -6.424  0.00  0.00    -0.356 N 
HETATM    3  C   UNK N   1      27.762  23.884  -7.011  0.00  0.00     0.256 C 
HETATM    4  H   UNK N   1      26.272  23.356  -5.765  0.00  0.00     0.162 HD
ENDROOT
BRANCH   3   5
HETATM    5  C   UNK N   1      28.657  22.822  -6.516  0.00  0.00     0.095 A 
HETATM    6  C   UNK N   1      28.994  21.666  -7.211  0.00  0.00     0.162 A 
HETATM    7  O   UNK N   1      28.591  21.318  -8.452  0.00  0.00    -0.335 OA
HETATM    8  N   UNK N   1      29.794  20.881  -6.470  0.00  0.00    -0.326 N 
HETATM    9  C   UNK N   1      29.136  20.213  -9.086  0.00  0.00     0.179 C 
HETATM   10  C   UNK N   1      29.444  19.078  -8.094  0.00  0.00     0.047 C 
HETATM   11  C   UNK N   1      30.288  19.581  -6.911  0.00  0.00     0.133 C 
HETATM   12  C   UNK N   1      29.991  21.518  -5.303  0.00  0.00     0.047 A 
HETATM   13  C   UNK N   1      29.307  22.717  -5.293  0.00  0.00     0.011 A 
HETATM   14  C   UNK N   1      30.742  21.087  -4.213  0.00  0.00     0.030 A 
HETATM   15  C   UNK N   1      29.335  23.560  -4.185  0.00  0.00     0.015 A 
HETATM   16  C   UNK N   1      30.091  23.153  -3.069  0.00  0.00     0.001 A 
HETATM   17  C   UNK N   1      30.789  21.924  -3.082  0.00  0.00     0.002 A 
ENDBRANCH   3   5
BRANCH   2  18
HETATM   18  C   UNK N   1      25.647  25.115  -6.703  0.00  0.00     0.127 C 
BRANCH  18  19
HETATM   19  C   UNK N   1      25.336  25.828  -5.390  0.00  0.00     0.007 C 
HETATM   20  C   UNK N   1      26.328  25.443  -4.292  0.00  0.00     0.036 C 
HETATM   21  C   UNK N   1      27.315  26.565  -3.964  0.00  0.00     0.273 C 
HETATM   22  N   UNK N   1      27.672  27.312  -5.171  0.00  0.00     0.088 N 
HETATM   23  C   UNK N   1      26.520  28.104  -5.617  0.00  0.00     0.273 C 
HETATM   24  C   UNK N   1      25.181  27.350  -5.539  0.00  0.00     0.036 C 
BRANCH  22  25
HETATM   25  C   UNK N   1      28.703  28.280  -4.816  0.00  0.00     0.272 C 
BRANCH  25  26
HETATM   26  C   UNK N   1      29.012  28.243  -3.327  0.00  0.00     0.030 C 
BRANCH  26  27
HETATM   27  C   UNK N   1      30.515  28.205  -3.147  0.00  0.00    -0.003 C 
HETATM   28  C   UNK N   1      31.020  26.799  -3.387  0.00  0.00     0.005 C 
ENDBRANCH  26  27
ENDBRANCH  25  26
ENDBRANCH  22  25
ENDBRANCH  18  19
ENDBRANCH   2  18
TORSDOF 6
ENDMDL
MODEL 9
REMARK VINA RESULT:      -6.0      3.220      7.231
REMARK  6 active torsions:
REMARK  status: ('A' for Active; 'I' for Inactive)
REMARK    1  A    between atoms: N_3  and  C_12 
REMARK    2  A    between atoms: N_4  and  C_11 
REMARK       I    between atoms: N_4  and  C_15 
REMARK    3  A    between atoms: C_6  and  C_11 
REMARK    4  A    between atoms: C_12  and  C_13 
REMARK    5  A    between atoms: C_13  and  C_18 
REMARK    6  A    between atoms: C_14  and  C_15 
ROOT
HETATM    1  O   UNK N   1      36.841  15.957  10.903  0.00  0.00    -0.267 OA
HETATM    2  N   UNK N   1      34.669  15.823  10.364  0.00  0.00    -0.356 N 
HETATM    3  C   UNK N   1      35.782  15.348  10.971  0.00  0.00     0.256 C 
HETATM    4  H   UNK N   1      33.854  15.271  10.396  0.00  0.00     0.162 HD
ENDROOT
BRANCH   3   5
HETATM    5  C   UNK N   1      35.671  14.120  11.779  0.00  0.00     0.095 A 
HETATM    6  C   UNK N   1      35.156  12.908  11.333  0.00  0.00     0.162 A 
HETATM    7  O   UNK N   1      34.693  12.629  10.096  0.00  0.00    -0.335 OA
HETATM    8  N   UNK N   1      35.154  11.998  12.323  0.00  0.00    -0.326 N 
HETATM    9  C   UNK N   1      34.360  11.330   9.744  0.00  0.00     0.179 C 
HETATM   10  C   UNK N   1      33.747  10.556  10.924  0.00  0.00     0.047 C 
HETATM   11  C   UNK N   1      34.639  10.641  12.174  0.00  0.00     0.133 C 
HETATM   12  C   UNK N   1      35.672  12.602  13.406  0.00  0.00     0.047 A 
HETATM   13  C   UNK N   1      36.002  13.909  13.111  0.00  0.00     0.011 A 
HETATM   14  C   UNK N   1      35.858  12.061  14.675  0.00  0.00     0.030 A 
HETATM   15  C   UNK N   1      36.543  14.756  14.075  0.00  0.00     0.015 A 
HETATM   16  C   UNK N   1      36.748  14.235  15.368  0.00  0.00     0.001 A 
HETATM   17  C   UNK N   1      36.407  12.896  15.666  0.00  0.00     0.002 A 
ENDBRANCH   3   5
BRANCH   2  18
HETATM   18  C   UNK N   1      34.603  17.085   9.676  0.00  0.00     0.127 C 
BRANCH  18  19
HETATM   19  C   UNK N   1      33.259  17.168   8.958  0.00  0.00     0.007 C 
HETATM   20  C   UNK N   1      33.287  18.195   7.825  0.00  0.00     0.036 C 
HETATM   21  C   UNK N   1      33.301  17.548   6.439  0.00  0.00     0.273 C 
HETATM   22  N   UNK N   1      34.086  16.313   6.449  0.00  0.00     0.088 N 
HETATM   23  C   UNK N   1      33.367  15.282   7.207  0.00  0.00     0.273 C 
HETATM   24  C   UNK N   1      32.721  15.802   8.503  0.00  0.00     0.036 C 
BRANCH  22  25
HETATM   25  C   UNK N   1      34.164  15.814   5.081  0.00  0.00     0.272 C 
BRANCH  25  26
HETATM   26  C   UNK N   1      33.069  16.408   4.209  0.00  0.00     0.030 C 
BRANCH  26  27
HETATM   27  C   UNK N   1      33.346  16.038   2.768  0.00  0.00    -0.003 C 
HETATM   28  C   UNK N   1      33.840  14.609   2.695  0.00  0.00     0.005 C 
ENDBRANCH  26  27
ENDBRANCH  25  26
ENDBRANCH  22  25
ENDBRANCH  18  19
ENDBRANCH   2  18
TORSDOF 6
ENDMDL
