MODEL 1
REMARK VINA RESULT:      -6.9      0.000      0.000
REMARK  5 active torsions:
REMARK  status: ('A' for Active; 'I' for Inactive)
REMARK    1  A    between atoms: C_7  and  C_21 
REMARK    2  A    between atoms: C_10  and  C_11 
REMARK    3  A    between atoms: C_14  and  O_20 
REMARK    4  A    between atoms: C_16  and  O_19 
REMARK    5  A    between atoms: C_21  and  C_22 
ROOT
HETATM    1  C   UNK N   1      34.997  11.115  11.732  0.00  0.00     0.010 C 
HETATM    2  C   UNK N   1      35.373  10.683  10.282  0.00  0.00     0.005 C 
HETATM    3  C   UNK N   1      36.396  11.602   9.564  0.00  0.00     0.034 C 
HETATM    4  C   UNK N   1      36.034  13.042   9.790  0.00  0.00    -0.075 C 
HETATM    5  C   UNK N   1      35.637  13.454  11.189  0.00  0.00     0.023 C 
HETATM    6  C   UNK N   1      35.806  12.330  12.208  0.00  0.00    -0.033 C 
HETATM    7  C   UNK N   1      35.326  13.078  13.465  0.00  0.00    -0.002 C 
HETATM    8  C   UNK N   1      36.359  14.622  11.849  0.00  0.00     0.010 C 
HETATM    9  C   UNK N   1      36.095  14.412  13.353  0.00  0.00     0.006 C 
HETATM   10  C   UNK N   1      35.928  13.881   8.748  0.00  0.00     0.003 C 
HETATM   11  C   UNK N   1      37.279  11.897  12.374  0.00  0.00     0.016 C 
ENDROOT
BRANCH  10  12
HETATM   12  C   UNK N   1      35.448  15.265   8.935  0.00  0.00     0.003 C 
HETATM   13  C   UNK N   1      34.187  15.653   8.747  0.00  0.00    -0.074 C 
HETATM   14  C   UNK N   1      33.111  14.720   8.258  0.00  0.00     0.070 C 
HETATM   15  C   UNK N   1      33.829  17.100   8.934  0.00  0.00     0.070 C 
HETATM   16  C   UNK N   1      32.531  15.267   6.949  0.00  0.00     0.152 C 
HETATM   17  C   UNK N   1      32.177  16.733   7.135  0.00  0.00    -0.032 C 
HETATM   18  C   UNK N   1      33.266  17.662   7.624  0.00  0.00     0.152 C 
HETATM   19  C   UNK N   1      30.934  17.187   6.953  0.00  0.00     0.019 C 
BRANCH  16  20
HETATM   20  O   UNK N   1      31.418  14.508   6.579  0.00  0.00    -0.391 OA
HETATM   21  H   UNK N   1      30.534  14.747   6.898  0.00  0.00     0.210 HD
ENDBRANCH  16  20
BRANCH  18  22
HETATM   22  O   UNK N   1      34.286  17.731   6.672  0.00  0.00    -0.391 OA
HETATM   23  H   UNK N   1      34.906  17.273   6.083  0.00  0.00     0.210 HD
ENDBRANCH  18  22
ENDBRANCH  10  12
BRANCH   7  24
HETATM   24  C   UNK N   1      35.513  12.374  14.828  0.00  0.00    -0.014 C 
HETATM   25  C   UNK N   1      34.236  11.667  15.260  0.00  0.00     0.010 C 
BRANCH  24  26
HETATM   26  C   UNK N   1      35.950  13.359  15.922  0.00  0.00     0.000 C 
HETATM   27  C   UNK N   1      35.043  13.350  17.147  0.00  0.00     0.005 C 
ENDBRANCH  24  26
ENDBRANCH   7  24
TORSDOF 5
ENDMDL
MODEL 2
REMARK VINA RESULT:      -6.9      2.669      8.304
REMARK  5 active torsions:
REMARK  status: ('A' for Active; 'I' for Inactive)
REMARK    1  A    between atoms: C_7  and  C_21 
REMARK    2  A    between atoms: C_10  and  C_11 
REMARK    3  A    between atoms: C_14  and  O_20 
REMARK    4  A    between atoms: C_16  and  O_19 
REMARK    5  A    between atoms: C_21  and  C_22 
ROOT
HETATM    1  C   UNK N   1      31.718  17.546   4.038  0.00  0.00     0.010 C 
HETATM    2  C   UNK N   1      33.034  16.896   3.511  0.00  0.00     0.005 C 
HETATM    3  C   UNK N   1      33.564  15.706   4.352  0.00  0.00     0.034 C 
HETATM    4  C   UNK N   1      33.491  16.043   5.814  0.00  0.00    -0.075 C 
HETATM    5  C   UNK N   1      32.229  16.704   6.319  0.00  0.00     0.023 C 
HETATM    6  C   UNK N   1      31.143  16.802   5.250  0.00  0.00    -0.033 C 
HETATM    7  C   UNK N   1      30.055  17.500   6.085  0.00  0.00    -0.002 C 
HETATM    8  C   UNK N   1      31.490  16.085   7.499  0.00  0.00     0.010 C 
HETATM    9  C   UNK N   1      30.067  16.666   7.384  0.00  0.00     0.006 C 
HETATM   10  C   UNK N   1      34.573  15.892   6.595  0.00  0.00     0.003 C 
HETATM   11  C   UNK N   1      30.650  15.416   4.780  0.00  0.00     0.016 C 
ENDROOT
BRANCH  10  12
HETATM   12  C   UNK N   1      34.559  16.339   8.002  0.00  0.00     0.003 C 
HETATM   13  C   UNK N   1      35.199  15.719   8.992  0.00  0.00    -0.074 C 
HETATM   14  C   UNK N   1      35.972  14.442   8.789  0.00  0.00     0.070 C 
HETATM   15  C   UNK N   1      35.078  16.250  10.392  0.00  0.00     0.070 C 
HETATM   16  C   UNK N   1      35.382  13.352   9.692  0.00  0.00     0.152 C 
HETATM   17  C   UNK N   1      35.250  13.892  11.106  0.00  0.00    -0.032 C 
HETATM   18  C   UNK N   1      34.470  15.174  11.298  0.00  0.00     0.152 C 
HETATM   19  C   UNK N   1      35.861  13.311  12.142  0.00  0.00     0.019 C 
BRANCH  16  20
HETATM   20  O   UNK N   1      36.194  12.217   9.643  0.00  0.00    -0.391 OA
HETATM   21  H   UNK N   1      36.177  11.571  10.367  0.00  0.00     0.210 HD
ENDBRANCH  16  20
BRANCH  18  22
HETATM   22  O   UNK N   1      33.135  14.969  10.942  0.00  0.00    -0.391 OA
HETATM   23  H   UNK N   1      32.237  14.710  11.199  0.00  0.00     0.210 HD
ENDBRANCH  18  22
ENDBRANCH  10  12
BRANCH   7  24
HETATM   24  C   UNK N   1      28.649  17.632   5.455  0.00  0.00    -0.014 C 
HETATM   25  C   UNK N   1      28.376  19.065   5.020  0.00  0.00     0.010 C 
BRANCH  24  26
HETATM   26  C   UNK N   1      27.547  17.169   6.420  0.00  0.00     0.000 C 
HETATM   27  C   UNK N   1      26.757  15.970   5.911  0.00  0.00     0.005 C 
ENDBRANCH  24  26
ENDBRANCH   7  24
TORSDOF 5
ENDMDL
MODEL 3
REMARK VINA RESULT:      -6.8      7.319     11.747
REMARK  5 active torsions:
REMARK  status: ('A' for Active; 'I' for Inactive)
REMARK    1  A    between atoms: C_7  and  C_21 
REMARK    2  A    between atoms: C_10  and  C_11 
REMARK    3  A    between atoms: C_14  and  O_20 
REMARK    4  A    between atoms: C_16  and  O_19 
REMARK    5  A    between atoms: C_21  and  C_22 
ROOT
HETATM    1  C   UNK N   1      34.464  12.492  15.934  0.00  0.00     0.010 C 
HETATM    2  C   UNK N   1      34.765  13.415  17.155  0.00  0.00     0.005 C 
HETATM    3  C   UNK N   1      35.650  12.780  18.259  0.00  0.00     0.034 C 
HETATM    4  C   UNK N   1      35.186  11.380  18.542  0.00  0.00    -0.075 C 
HETATM    5  C   UNK N   1      34.861  10.496  17.360  0.00  0.00     0.023 C 
HETATM    6  C   UNK N   1      35.200  11.148  16.022  0.00  0.00    -0.033 C 
HETATM    7  C   UNK N   1      34.754  10.010  15.087  0.00  0.00    -0.002 C 
HETATM    8  C   UNK N   1      35.529   9.131  17.252  0.00  0.00     0.010 C 
HETATM    9  C   UNK N   1      35.398   8.778  15.757  0.00  0.00     0.006 C 
HETATM   10  C   UNK N   1      34.931  10.997  19.804  0.00  0.00     0.003 C 
HETATM   11  C   UNK N   1      36.713  11.412  15.859  0.00  0.00     0.016 C 
ENDROOT
BRANCH  10  12
HETATM   12  C   UNK N   1      34.351   9.670  20.090  0.00  0.00     0.003 C 
HETATM   13  C   UNK N   1      33.401   9.447  20.997  0.00  0.00    -0.074 C 
HETATM   14  C   UNK N   1      32.848  10.532  21.883  0.00  0.00     0.070 C 
HETATM   15  C   UNK N   1      32.917   8.042  21.223  0.00  0.00     0.070 C 
HETATM   16  C   UNK N   1      33.084  10.149  23.349  0.00  0.00     0.152 C 
HETATM   17  C   UNK N   1      32.604   8.725  23.576  0.00  0.00    -0.032 C 
HETATM   18  C   UNK N   1      33.167   7.644  22.682  0.00  0.00     0.152 C 
HETATM   19  C   UNK N   1      31.660   8.435  24.476  0.00  0.00     0.019 C 
BRANCH  16  20
HETATM   20  O   UNK N   1      32.425  11.058  24.179  0.00  0.00    -0.391 OA
HETATM   21  H   UNK N   1      32.929  11.619  24.789  0.00  0.00     0.210 HD
ENDBRANCH  16  20
BRANCH  18  22
HETATM   22  O   UNK N   1      34.541   7.522  22.900  0.00  0.00    -0.391 OA
HETATM   23  H   UNK N   1      35.270   7.253  23.481  0.00  0.00     0.210 HD
ENDBRANCH  18  22
ENDBRANCH  10  12
BRANCH   7  24
HETATM   24  C   UNK N   1      35.103  10.144  13.587  0.00  0.00    -0.014 C 
HETATM   25  C   UNK N   1      33.842  10.229  12.736  0.00  0.00     0.010 C 
BRANCH  24  26
HETATM   26  C   UNK N   1      35.973   8.977  13.098  0.00  0.00     0.000 C 
HETATM   27  C   UNK N   1      37.361   9.405  12.635  0.00  0.00     0.005 C 
ENDBRANCH  24  26
ENDBRANCH   7  24
TORSDOF 5
ENDMDL
MODEL 4
REMARK VINA RESULT:      -6.7      3.215      9.001
REMARK  5 active torsions:
REMARK  status: ('A' for Active; 'I' for Inactive)
REMARK    1  A    between atoms: C_7  and  C_21 
REMARK    2  A    between atoms: C_10  and  C_11 
REMARK    3  A    between atoms: C_14  and  O_20 
REMARK    4  A    between atoms: C_16  and  O_19 
REMARK    5  A    between atoms: C_21  and  C_22 
ROOT
HETATM    1  C   UNK N   1      29.522  17.016   4.268  0.00  0.00     0.010 C 
HETATM    2  C   UNK N   1      30.093  15.600   3.951  0.00  0.00     0.005 C 
HETATM    3  C   UNK N   1      30.237  14.658   5.173  0.00  0.00     0.034 C 
HETATM    4  C   UNK N   1      30.839  15.408   6.327  0.00  0.00    -0.075 C 
HETATM    5  C   UNK N   1      30.309  16.795   6.615  0.00  0.00     0.023 C 
HETATM    6  C   UNK N   1      29.114  17.165   5.740  0.00  0.00    -0.033 C 
HETATM    7  C   UNK N   1      28.854  18.581   6.284  0.00  0.00    -0.002 C 
HETATM    8  C   UNK N   1      29.817  17.123   8.019  0.00  0.00     0.010 C 
HETATM    9  C   UNK N   1      28.907  18.349   7.810  0.00  0.00     0.006 C 
HETATM   10  C   UNK N   1      31.907  14.911   6.971  0.00  0.00     0.003 C 
HETATM   11  C   UNK N   1      27.889  16.260   5.998  0.00  0.00     0.016 C 
ENDROOT
BRANCH  10  12
HETATM   12  C   UNK N   1      32.590  15.694   8.020  0.00  0.00     0.003 C 
HETATM   13  C   UNK N   1      33.822  15.441   8.460  0.00  0.00    -0.074 C 
HETATM   14  C   UNK N   1      34.642  14.277   7.968  0.00  0.00     0.070 C 
HETATM   15  C   UNK N   1      34.396  16.287   9.561  0.00  0.00     0.070 C 
HETATM   16  C   UNK N   1      35.000  13.379   9.158  0.00  0.00     0.152 C 
HETATM   17  C   UNK N   1      35.571  14.236  10.276  0.00  0.00    -0.032 C 
HETATM   18  C   UNK N   1      34.739  15.401  10.763  0.00  0.00     0.152 C 
HETATM   19  C   UNK N   1      36.796  14.029  10.766  0.00  0.00     0.019 C 
BRANCH  16  20
HETATM   20  O   UNK N   1      35.901  12.396   8.745  0.00  0.00    -0.391 OA
HETATM   21  H   UNK N   1      36.756  12.646   8.360  0.00  0.00     0.210 HD
ENDBRANCH  16  20
BRANCH  18  22
HETATM   22  O   UNK N   1      33.559  14.925  11.340  0.00  0.00    -0.391 OA
HETATM   23  H   UNK N   1      32.885  14.997  12.033  0.00  0.00     0.210 HD
ENDBRANCH  18  22
ENDBRANCH  10  12
BRANCH   7  24
HETATM   24  C   UNK N   1      27.567  19.298   5.818  0.00  0.00    -0.014 C 
HETATM   25  C   UNK N   1      27.766  19.951   4.456  0.00  0.00     0.010 C 
BRANCH  24  26
HETATM   26  C   UNK N   1      27.105  20.356   6.831  0.00  0.00     0.000 C 
HETATM   27  C   UNK N   1      26.835  21.719   6.207  0.00  0.00     0.005 C 
ENDBRANCH  24  26
ENDBRANCH   7  24
TORSDOF 5
ENDMDL
MODEL 5
REMARK VINA RESULT:      -6.7     16.612     20.557
REMARK  5 active torsions:
REMARK  status: ('A' for Active; 'I' for Inactive)
REMARK    1  A    between atoms: C_7  and  C_21 
REMARK    2  A    between atoms: C_10  and  C_11 
REMARK    3  A    between atoms: C_14  and  O_20 
REMARK    4  A    between atoms: C_16  and  O_19 
REMARK    5  A    between atoms: C_21  and  C_22 
ROOT
HETATM    1  C   UNK N   1      26.737  25.726  -6.038  0.00  0.00     0.010 C 
HETATM    2  C   UNK N   1      25.998  24.579  -5.282  0.00  0.00     0.005 C 
HETATM    3  C   UNK N   1      26.415  24.390  -3.801  0.00  0.00     0.034 C 
HETATM    4  C   UNK N   1      27.911  24.453  -3.679  0.00  0.00    -0.075 C 
HETATM    5  C   UNK N   1      28.630  25.544  -4.439  0.00  0.00     0.023 C 
HETATM    6  C   UNK N   1      27.674  26.521  -5.119  0.00  0.00    -0.033 C 
HETATM    7  C   UNK N   1      28.714  27.452  -5.769  0.00  0.00    -0.002 C 
HETATM    8  C   UNK N   1      29.580  26.467  -3.685  0.00  0.00     0.010 C 
HETATM    9  C   UNK N   1      29.690  27.703  -4.600  0.00  0.00     0.006 C 
HETATM   10  C   UNK N   1      28.576  23.478  -3.040  0.00  0.00     0.003 C 
HETATM   11  C   UNK N   1      26.812  27.307  -4.107  0.00  0.00     0.016 C 
ENDROOT
BRANCH  10  12
HETATM   12  C   UNK N   1      30.053  23.455  -3.023  0.00  0.00     0.003 C 
HETATM   13  C   UNK N   1      30.804  22.865  -3.952  0.00  0.00    -0.074 C 
HETATM   14  C   UNK N   1      30.218  22.096  -5.107  0.00  0.00     0.070 C 
HETATM   15  C   UNK N   1      32.299  22.876  -3.804  0.00  0.00     0.070 C 
HETATM   16  C   UNK N   1      30.730  20.652  -5.058  0.00  0.00     0.152 C 
HETATM   17  C   UNK N   1      32.241  20.664  -4.898  0.00  0.00    -0.032 C 
HETATM   18  C   UNK N   1      32.818  21.437  -3.734  0.00  0.00     0.152 C 
HETATM   19  C   UNK N   1      33.048  20.084  -5.791  0.00  0.00     0.019 C 
BRANCH  16  20
HETATM   20  O   UNK N   1      30.335  19.979  -6.216  0.00  0.00    -0.391 OA
HETATM   21  H   UNK N   1      30.449  19.018  -6.287  0.00  0.00     0.210 HD
ENDBRANCH  16  20
BRANCH  18  22
HETATM   22  O   UNK N   1      32.407  20.853  -2.533  0.00  0.00    -0.391 OA
HETATM   23  H   UNK N   1      32.080  20.074  -2.056  0.00  0.00     0.210 HD
ENDBRANCH  18  22
ENDBRANCH  10  12
BRANCH   7  24
HETATM   24  C   UNK N   1      28.195  28.752  -6.424  0.00  0.00    -0.014 C 
HETATM   25  C   UNK N   1      28.627  28.843  -7.881  0.00  0.00     0.010 C 
BRANCH  24  26
HETATM   26  C   UNK N   1      28.673  30.000  -5.668  0.00  0.00     0.000 C 
HETATM   27  C   UNK N   1      27.565  30.709  -4.899  0.00  0.00     0.005 C 
ENDBRANCH  24  26
ENDBRANCH   7  24
TORSDOF 5
ENDMDL
MODEL 6
REMARK VINA RESULT:      -6.6     15.929     21.741
REMARK  5 active torsions:
REMARK  status: ('A' for Active; 'I' for Inactive)
REMARK    1  A    between atoms: C_7  and  C_21 
REMARK    2  A    between atoms: C_10  and  C_11 
REMARK    3  A    between atoms: C_14  and  O_20 
REMARK    4  A    between atoms: C_16  and  O_19 
REMARK    5  A    between atoms: C_21  and  C_22 
ROOT
HETATM    1  C   UNK N   1      25.612  25.193  -6.451  0.00  0.00     0.010 C 
HETATM    2  C   UNK N   1      25.825  25.150  -4.906  0.00  0.00     0.005 C 
HETATM    3  C   UNK N   1      27.304  25.164  -4.443  0.00  0.00     0.034 C 
HETATM    4  C   UNK N   1      28.111  24.215  -5.284  0.00  0.00    -0.075 C 
HETATM    5  C   UNK N   1      27.881  24.233  -6.778  0.00  0.00     0.023 C 
HETATM    6  C   UNK N   1      26.933  25.345  -7.218  0.00  0.00    -0.033 C 
HETATM    7  C   UNK N   1      26.932  25.068  -8.732  0.00  0.00    -0.002 C 
HETATM    8  C   UNK N   1      29.074  24.415  -7.708  0.00  0.00     0.010 C 
HETATM    9  C   UNK N   1      28.439  24.903  -9.025  0.00  0.00     0.006 C 
HETATM   10  C   UNK N   1      28.889  23.291  -4.698  0.00  0.00     0.003 C 
HETATM   11  C   UNK N   1      27.500  26.753  -6.932  0.00  0.00     0.016 C 
ENDROOT
BRANCH  10  12
HETATM   12  C   UNK N   1      29.586  22.268  -5.503  0.00  0.00     0.003 C 
HETATM   13  C   UNK N   1      30.408  21.349  -4.998  0.00  0.00    -0.074 C 
HETATM   14  C   UNK N   1      30.765  21.290  -3.536  0.00  0.00     0.070 C 
HETATM   15  C   UNK N   1      31.089  20.383  -5.926  0.00  0.00     0.070 C 
HETATM   16  C   UNK N   1      32.284  21.434  -3.387  0.00  0.00     0.152 C 
HETATM   17  C   UNK N   1      32.973  20.465  -4.332  0.00  0.00    -0.032 C 
HETATM   18  C   UNK N   1      32.608  20.534  -5.798  0.00  0.00     0.152 C 
HETATM   19  C   UNK N   1      33.814  19.526  -3.889  0.00  0.00     0.019 C 
BRANCH  16  20
HETATM   20  O   UNK N   1      32.645  21.207  -2.057  0.00  0.00    -0.391 OA
HETATM   21  H   UNK N   1      32.159  21.640  -1.337  0.00  0.00     0.210 HD
ENDBRANCH  16  20
BRANCH  18  22
HETATM   22  O   UNK N   1      32.997  21.770  -6.320  0.00  0.00    -0.391 OA
HETATM   23  H   UNK N   1      33.219  22.703  -6.172  0.00  0.00     0.210 HD
ENDBRANCH  18  22
ENDBRANCH  10  12
BRANCH   7  24
HETATM   24  C   UNK N   1      26.240  26.105  -9.645  0.00  0.00    -0.014 C 
HETATM   25  C   UNK N   1      25.044  25.493 -10.362  0.00  0.00     0.010 C 
BRANCH  24  26
HETATM   26  C   UNK N   1      27.213  26.692 -10.679  0.00  0.00     0.000 C 
HETATM   27  C   UNK N   1      26.532  27.154 -11.962  0.00  0.00     0.005 C 
ENDBRANCH  24  26
ENDBRANCH   7  24
TORSDOF 5
ENDMDL
MODEL 7
REMARK VINA RESULT:      -6.5      1.713      2.403
REMARK  5 active torsions:
REMARK  status: ('A' for Active; 'I' for Inactive)
REMARK    1  A    between atoms: C_7  and  C_21 
REMARK    2  A    between atoms: C_10  and  C_11 
REMARK    3  A    between atoms: C_14  and  O_20 
REMARK    4  A    between atoms: C_16  and  O_19 
REMARK    5  A    between atoms: C_21  and  C_22 
ROOT
HETATM    1  C   UNK N   1      36.052   9.926  13.649  0.00  0.00     0.010 C 
HETATM    2  C   UNK N   1      36.732   9.673  12.269  0.00  0.00     0.005 C 
HETATM    3  C   UNK N   1      37.254  10.943  11.547  0.00  0.00     0.034 C 
HETATM    4  C   UNK N   1      36.223  12.033  11.626  0.00  0.00    -0.075 C 
HETATM    5  C   UNK N   1      35.539  12.257  12.955  0.00  0.00     0.023 C 
HETATM    6  C   UNK N   1      36.124  11.399  14.074  0.00  0.00    -0.033 C 
HETATM    7  C   UNK N   1      35.220  11.870  15.228  0.00  0.00    -0.002 C 
HETATM    8  C   UNK N   1      35.539  13.654  13.562  0.00  0.00     0.010 C 
HETATM    9  C   UNK N   1      35.260  13.404  15.057  0.00  0.00     0.006 C 
HETATM   10  C   UNK N   1      35.831  12.671  10.512  0.00  0.00     0.003 C 
HETATM   11  C   UNK N   1      37.599  11.746  14.375  0.00  0.00     0.016 C 
ENDROOT
BRANCH  10  12
HETATM   12  C   UNK N   1      34.729  13.652  10.549  0.00  0.00     0.003 C 
HETATM   13  C   UNK N   1      34.249  14.282   9.477  0.00  0.00    -0.074 C 
HETATM   14  C   UNK N   1      34.827  14.101   8.098  0.00  0.00     0.070 C 
HETATM   15  C   UNK N   1      33.148  15.289   9.649  0.00  0.00     0.070 C 
HETATM   16  C   UNK N   1      35.302  15.460   7.572  0.00  0.00     0.152 C 
HETATM   17  C   UNK N   1      34.192  16.482   7.755  0.00  0.00    -0.032 C 
HETATM   18  C   UNK N   1      33.621  16.656   9.144  0.00  0.00     0.152 C 
HETATM   19  C   UNK N   1      33.674  17.151   6.722  0.00  0.00     0.019 C 
BRANCH  16  20
HETATM   20  O   UNK N   1      35.678  15.336   6.233  0.00  0.00    -0.391 OA
HETATM   21  H   UNK N   1      36.565  15.605   5.947  0.00  0.00     0.210 HD
ENDBRANCH  16  20
BRANCH  18  22
HETATM   22  O   UNK N   1      34.609  17.150   9.999  0.00  0.00    -0.391 OA
HETATM   23  H   UNK N   1      35.038  17.139  10.869  0.00  0.00     0.210 HD
ENDBRANCH  18  22
ENDBRANCH  10  12
BRANCH   7  24
HETATM   24  C   UNK N   1      35.586  11.402  16.655  0.00  0.00    -0.014 C 
HETATM   25  C   UNK N   1      34.847  10.121  17.019  0.00  0.00     0.010 C 
BRANCH  24  26
HETATM   26  C   UNK N   1      35.283  12.484  17.703  0.00  0.00     0.000 C 
HETATM   27  C   UNK N   1      35.300  11.965  19.136  0.00  0.00     0.005 C 
ENDBRANCH  24  26
ENDBRANCH   7  24
TORSDOF 5
ENDMDL
MODEL 8
REMARK VINA RESULT:      -6.5     16.724     21.276
REMARK  5 active torsions:
REMARK  status: ('A' for Active; 'I' for Inactive)
REMARK    1  A    between atoms: C_7  and  C_21 
REMARK    2  A    between atoms: C_10  and  C_11 
REMARK    3  A    between atoms: C_14  and  O_20 
REMARK    4  A    between atoms: C_16  and  O_19 
REMARK    5  A    between atoms: C_21  and  C_22 
ROOT
HETATM    1  C   UNK N   1      27.215  27.439  -7.116  0.00  0.00     0.010 C 
HETATM    2  C   UNK N   1      26.867  26.171  -7.954  0.00  0.00     0.005 C 
HETATM    3  C   UNK N   1      26.258  24.994  -7.149  0.00  0.00     0.034 C 
HETATM    4  C   UNK N   1      27.029  24.797  -5.874  0.00  0.00    -0.075 C 
HETATM    5  C   UNK N   1      27.396  26.028  -5.078  0.00  0.00     0.023 C 
HETATM    6  C   UNK N   1      26.785  27.306  -5.649  0.00  0.00    -0.033 C 
HETATM    7  C   UNK N   1      27.349  28.311  -4.629  0.00  0.00    -0.002 C 
HETATM    8  C   UNK N   1      27.015  26.098  -3.605  0.00  0.00     0.010 C 
HETATM    9  C   UNK N   1      27.050  27.606  -3.289  0.00  0.00     0.006 C 
HETATM   10  C   UNK N   1      27.494  23.580  -5.551  0.00  0.00     0.003 C 
HETATM   11  C   UNK N   1      25.241  27.299  -5.595  0.00  0.00     0.016 C 
ENDROOT
BRANCH  10  12
HETATM   12  C   UNK N   1      28.362  23.390  -4.371  0.00  0.00     0.003 C 
HETATM   13  C   UNK N   1      29.693  23.361  -4.417  0.00  0.00    -0.074 C 
HETATM   14  C   UNK N   1      30.467  23.462  -5.706  0.00  0.00     0.070 C 
HETATM   15  C   UNK N   1      30.467  23.123  -3.152  0.00  0.00     0.070 C 
HETATM   16  C   UNK N   1      31.329  22.205  -5.872  0.00  0.00     0.152 C 
HETATM   17  C   UNK N   1      32.104  21.959  -4.588  0.00  0.00    -0.032 C 
HETATM   18  C   UNK N   1      31.317  21.857  -3.301  0.00  0.00     0.152 C 
HETATM   19  C   UNK N   1      33.439  21.911  -4.570  0.00  0.00     0.019 C 
BRANCH  16  20
HETATM   20  O   UNK N   1      32.178  22.365  -6.969  0.00  0.00    -0.391 OA
HETATM   21  H   UNK N   1      32.826  21.678  -7.190  0.00  0.00     0.210 HD
ENDBRANCH  16  20
BRANCH  18  22
HETATM   22  O   UNK N   1      30.479  20.740  -3.351  0.00  0.00    -0.391 OA
HETATM   23  H   UNK N   1      29.769  20.252  -3.796  0.00  0.00     0.210 HD
ENDBRANCH  18  22
ENDBRANCH  10  12
BRANCH   7  24
HETATM   24  C   UNK N   1      26.818  29.761  -4.691  0.00  0.00    -0.014 C 
HETATM   25  C   UNK N   1      27.866  30.706  -5.265  0.00  0.00     0.010 C 
BRANCH  24  26
HETATM   26  C   UNK N   1      26.377  30.265  -3.309  0.00  0.00     0.000 C 
HETATM   27  C   UNK N   1      27.451  31.062  -2.580  0.00  0.00     0.005 C 
ENDBRANCH  24  26
ENDBRANCH   7  24
TORSDOF 5
ENDMDL
MODEL 9
REMARK VINA RESULT:      -6.4     18.172     20.740
REMARK  5 active torsions:
REMARK  status: ('A' for Active; 'I' for Inactive)
REMARK    1  A    between atoms: C_7  and  C_21 
REMARK    2  A    between atoms: C_10  and  C_11 
REMARK    3  A    between atoms: C_14  and  O_20 
REMARK    4  A    between atoms: C_16  and  O_19 
REMARK    5  A    between atoms: C_21  and  C_22 
ROOT
HETATM    1  C   UNK N   1      31.771  23.044  -5.919  0.00  0.00     0.010 C 
HETATM    2  C   UNK N   1      32.190  23.636  -4.538  0.00  0.00     0.005 C 
HETATM    3  C   UNK N   1      31.046  23.756  -3.498  0.00  0.00     0.034 C 
HETATM    4  C   UNK N   1      29.817  24.319  -4.154  0.00  0.00    -0.075 C 
HETATM    5  C   UNK N   1      29.430  23.769  -5.507  0.00  0.00     0.023 C 
HETATM    6  C   UNK N   1      30.304  22.595  -5.941  0.00  0.00    -0.033 C 
HETATM    7  C   UNK N   1      29.650  22.307  -7.305  0.00  0.00    -0.002 C 
HETATM    8  C   UNK N   1      28.018  23.237  -5.713  0.00  0.00     0.010 C 
HETATM    9  C   UNK N   1      28.149  22.321  -6.946  0.00  0.00     0.006 C 
HETATM   10  C   UNK N   1      29.189  25.374  -3.612  0.00  0.00     0.003 C 
HETATM   11  C   UNK N   1      30.156  21.372  -5.009  0.00  0.00     0.016 C 
ENDROOT
BRANCH  10  12
HETATM   12  C   UNK N   1      28.059  26.022  -4.308  0.00  0.00     0.003 C 
HETATM   13  C   UNK N   1      27.900  27.341  -4.411  0.00  0.00    -0.074 C 
HETATM   14  C   UNK N   1      28.838  28.329  -3.769  0.00  0.00     0.070 C 
HETATM   15  C   UNK N   1      26.687  27.881  -5.114  0.00  0.00     0.070 C 
HETATM   16  C   UNK N   1      28.046  29.212  -2.798  0.00  0.00     0.152 C 
HETATM   17  C   UNK N   1      26.814  29.751  -3.505  0.00  0.00    -0.032 C 
HETATM   18  C   UNK N   1      25.878  28.750  -4.145  0.00  0.00     0.152 C 
HETATM   19  C   UNK N   1      26.592  31.062  -3.635  0.00  0.00     0.019 C 
BRANCH  16  20
HETATM   20  O   UNK N   1      28.867  30.241  -2.329  0.00  0.00    -0.391 OA
HETATM   21  H   UNK N   1      28.593  31.166  -2.425  0.00  0.00     0.210 HD
ENDBRANCH  16  20
BRANCH  18  22
HETATM   22  O   UNK N   1      25.312  27.940  -3.158  0.00  0.00    -0.391 OA
HETATM   23  H   UNK N   1      24.803  27.863  -2.336  0.00  0.00     0.210 HD
ENDBRANCH  18  22
ENDBRANCH  10  12
BRANCH   7  24
HETATM   24  C   UNK N   1      30.091  21.027  -8.050  0.00  0.00    -0.014 C 
HETATM   25  C   UNK N   1      30.723  21.364  -9.394  0.00  0.00     0.010 C 
BRANCH  24  26
HETATM   26  C   UNK N   1      28.916  20.060  -8.263  0.00  0.00     0.000 C 
HETATM   27  C   UNK N   1      29.161  18.669  -7.691  0.00  0.00     0.005 C 
ENDBRANCH  24  26
ENDBRANCH   7  24
TORSDOF 5
ENDMDL
