MODEL 1
REMARK VINA RESULT:      -6.4      0.000      0.000
REMARK  5 active torsions:
REMARK  status: ('A' for Active; 'I' for Inactive)
REMARK    1  A    between atoms: N_2  and  C_13 
REMARK       I    between atoms: N_3  and  C_19 
REMARK    2  A    between atoms: N_4  and  C_18 
REMARK    3  A    between atoms: C_13  and  C_16 
REMARK    4  A    between atoms: C_16  and  C_17 
REMARK    5  A    between atoms: C_17  and  C_18 
ROOT
HETATM    1  N   UNK N   1      34.560  16.050   9.273  0.00  0.00     0.091 N 
HETATM    2  N   UNK N   1      35.455  14.713  11.543  0.00  0.00    -0.214 N 
HETATM    3  N   UNK N   1      36.565  14.765  13.689  0.00  0.00    -0.202 N 
ATOM      4  HN  UNK N   1      37.030  15.630  13.408  1.00  0.00     0.183 HD
HETATM    5  N   UNK N   1      35.072  13.009  13.206  0.00  0.00    -0.202 N 
ATOM      6  HN  UNK N   1      34.415  12.562  12.565  1.00  0.00     0.183 HD
HETATM    7  C   UNK N   1      33.674  15.114   9.968  0.00  0.00     0.292 C 
HETATM    8  C   UNK N   1      35.289  16.808  10.290  0.00  0.00     0.292 C 
HETATM    9  C   UNK N   1      34.539  14.057  10.635  0.00  0.00     0.171 C 
HETATM   10  C   UNK N   1      36.208  15.862  11.074  0.00  0.00     0.171 C 
HETATM   11  C   UNK N   1      35.690  14.165  12.834  0.00  0.00     0.679 A 
HETATM   12  C   UNK N   1      36.828  14.228  14.909  0.00  0.00     0.107 A 
HETATM   13  C   UNK N   1      35.314  12.441  14.415  0.00  0.00     0.107 A 
HETATM   14  C   UNK N   1      36.206  13.044  15.299  0.00  0.00     0.035 A 
ENDROOT
BRANCH   1  15
HETATM   15  C   UNK N   1      33.792  16.994   8.461  0.00  0.00     0.272 C 
BRANCH  15  16
HETATM   16  C   UNK N   1      32.313  16.616   8.349  0.00  0.00     0.032 C 
BRANCH  16  17
HETATM   17  C   UNK N   1      31.382  17.808   8.522  0.00  0.00     0.023 C 
BRANCH  17  18
HETATM   18  C   UNK N   1      29.944  17.309   8.522  0.00  0.00     0.148 C 
BRANCH  18  19
HETATM   19  N   UNK N   1      29.132  18.007   7.535  0.00  0.00    -0.302 N 
HETATM   20  N   UNK N   1      29.129  17.746   6.236  0.00  0.00    -0.308 N 
HETATM   21  C   UNK N   1      28.285  18.604   5.632  0.00  0.00     0.132 A 
ATOM     22  HN  UNK N   1      29.674  17.018   5.773  1.00  0.00     0.186 HD
HETATM   23  C   UNK N   1      27.758  19.429   6.604  0.00  0.00     0.068 A 
HETATM   24 Cl   UNK N   1      26.622  20.737   6.355  0.00  0.00    -0.081 Cl
HETATM   25  C   UNK N   1      28.309  19.036   7.802  0.00  0.00     0.135 A 
ENDBRANCH  18  19
ENDBRANCH  17  18
ENDBRANCH  16  17
ENDBRANCH  15  16
ENDBRANCH   1  15
TORSDOF 5
ENDMDL
MODEL 2
REMARK VINA RESULT:      -6.2      1.503      2.077
REMARK  5 active torsions:
REMARK  status: ('A' for Active; 'I' for Inactive)
REMARK    1  A    between atoms: N_2  and  C_13 
REMARK       I    between atoms: N_3  and  C_19 
REMARK    2  A    between atoms: N_4  and  C_18 
REMARK    3  A    between atoms: C_13  and  C_16 
REMARK    4  A    between atoms: C_16  and  C_17 
REMARK    5  A    between atoms: C_17  and  C_18 
ROOT
HETATM    1  N   UNK N   1      32.893  16.483   7.898  0.00  0.00     0.091 N 
HETATM    2  N   UNK N   1      34.313  15.225   9.935  0.00  0.00    -0.214 N 
HETATM    3  N   UNK N   1      35.677  15.377  11.923  0.00  0.00    -0.202 N 
ATOM      4  HN  UNK N   1      35.938  16.326  11.650  1.00  0.00     0.183 HD
HETATM    5  N   UNK N   1      34.468  13.400  11.504  0.00  0.00    -0.202 N 
ATOM      6  HN  UNK N   1      33.820  12.871  10.919  1.00  0.00     0.183 HD
HETATM    7  C   UNK N   1      32.291  15.366   8.629  0.00  0.00     0.292 C 
HETATM    8  C   UNK N   1      33.608  17.312   8.869  0.00  0.00     0.292 C 
HETATM    9  C   UNK N   1      33.412  14.456   9.103  0.00  0.00     0.171 C 
HETATM   10  C   UNK N   1      34.778  16.516   9.460  0.00  0.00     0.171 C 
HETATM   11  C   UNK N   1      34.814  14.667  11.143  0.00  0.00     0.679 A 
HETATM   12  C   UNK N   1      36.195  14.839  13.058  0.00  0.00     0.107 A 
HETATM   13  C   UNK N   1      34.969  12.828  12.628  0.00  0.00     0.107 A 
HETATM   14  C   UNK N   1      35.852  13.543  13.435  0.00  0.00     0.035 A 
ENDROOT
BRANCH   1  15
HETATM   15  C   UNK N   1      31.867  17.307   7.260  0.00  0.00     0.272 C 
BRANCH  15  16
HETATM   16  C   UNK N   1      31.904  17.225   5.732  0.00  0.00     0.032 C 
BRANCH  16  17
HETATM   17  C   UNK N   1      30.583  16.764   5.131  0.00  0.00     0.023 C 
BRANCH  17  18
HETATM   18  C   UNK N   1      29.467  17.056   6.124  0.00  0.00     0.148 C 
BRANCH  18  19
HETATM   19  N   UNK N   1      28.731  18.262   5.767  0.00  0.00    -0.302 N 
HETATM   20  N   UNK N   1      28.688  18.790   4.552  0.00  0.00    -0.308 N 
HETATM   21  C   UNK N   1      27.942  19.910   4.604  0.00  0.00     0.132 A 
ATOM     22  HN  UNK N   1      29.141  18.412   3.721  1.00  0.00     0.186 HD
HETATM   23  C   UNK N   1      27.521  20.077   5.907  0.00  0.00     0.068 A 
HETATM   24 Cl   UNK N   1      26.540  21.388   6.526  0.00  0.00    -0.081 Cl
HETATM   25  C   UNK N   1      28.034  19.022   6.628  0.00  0.00     0.135 A 
ENDBRANCH  18  19
ENDBRANCH  17  18
ENDBRANCH  16  17
ENDBRANCH  15  16
ENDBRANCH   1  15
TORSDOF 5
ENDMDL
MODEL 3
REMARK VINA RESULT:      -6.2      3.613      5.587
REMARK  5 active torsions:
REMARK  status: ('A' for Active; 'I' for Inactive)
REMARK    1  A    between atoms: N_2  and  C_13 
REMARK       I    between atoms: N_3  and  C_19 
REMARK    2  A    between atoms: N_4  and  C_18 
REMARK    3  A    between atoms: C_13  and  C_16 
REMARK    4  A    between atoms: C_16  and  C_17 
REMARK    5  A    between atoms: C_17  and  C_18 
ROOT
HETATM    1  N   UNK N   1      30.479  17.092   6.839  0.00  0.00     0.091 N 
HETATM    2  N   UNK N   1      32.921  16.667   8.104  0.00  0.00    -0.214 N 
HETATM    3  N   UNK N   1      34.344  16.960  10.035  0.00  0.00    -0.202 N 
ATOM      4  HN  UNK N   1      33.777  17.764  10.309  1.00  0.00     0.183 HD
HETATM    5  N   UNK N   1      34.775  15.190   8.542  0.00  0.00    -0.202 N 
ATOM      6  HN  UNK N   1      34.527  14.665   7.703  1.00  0.00     0.183 HD
HETATM    7  C   UNK N   1      31.085  15.759   6.833  0.00  0.00     0.292 C 
HETATM    8  C   UNK N   1      30.688  17.667   8.168  0.00  0.00     0.292 C 
HETATM    9  C   UNK N   1      32.593  15.929   6.904  0.00  0.00     0.171 C 
HETATM   10  C   UNK N   1      32.188  17.885   8.402  0.00  0.00     0.171 C 
HETATM   11  C   UNK N   1      34.017  16.260   8.912  0.00  0.00     0.679 A 
HETATM   12  C   UNK N   1      35.415  16.605  10.792  0.00  0.00     0.107 A 
HETATM   13  C   UNK N   1      35.855  14.808   9.272  0.00  0.00     0.107 A 
HETATM   14  C   UNK N   1      36.200  15.516  10.421  0.00  0.00     0.035 A 
ENDROOT
BRANCH   1  15
HETATM   15  C   UNK N   1      29.038  17.015   6.595  0.00  0.00     0.272 C 
BRANCH  15  16
HETATM   16  C   UNK N   1      28.693  16.261   5.308  0.00  0.00     0.032 C 
BRANCH  16  17
HETATM   17  C   UNK N   1      28.792  17.135   4.065  0.00  0.00     0.023 C 
BRANCH  17  18
HETATM   18  C   UNK N   1      29.409  16.316   2.940  0.00  0.00     0.148 C 
BRANCH  18  19
HETATM   19  N   UNK N   1      30.861  16.258   3.050  0.00  0.00    -0.302 N 
HETATM   20  N   UNK N   1      31.667  17.307   2.971  0.00  0.00    -0.308 N 
HETATM   21  C   UNK N   1      32.937  16.874   3.086  0.00  0.00     0.132 A 
ATOM     22  HN  UNK N   1      31.375  18.276   2.845  1.00  0.00     0.186 HD
HETATM   23  C   UNK N   1      32.903  15.503   3.232  0.00  0.00     0.068 A 
HETATM   24 Cl   UNK N   1      34.282  14.438   3.400  0.00  0.00    -0.081 Cl
HETATM   25  C   UNK N   1      31.577  15.133   3.204  0.00  0.00     0.135 A 
ENDBRANCH  18  19
ENDBRANCH  17  18
ENDBRANCH  16  17
ENDBRANCH  15  16
ENDBRANCH   1  15
TORSDOF 5
ENDMDL
MODEL 4
REMARK VINA RESULT:      -6.2      5.961     11.389
REMARK  5 active torsions:
REMARK  status: ('A' for Active; 'I' for Inactive)
REMARK    1  A    between atoms: N_2  and  C_13 
REMARK       I    between atoms: N_3  and  C_19 
REMARK    2  A    between atoms: N_4  and  C_18 
REMARK    3  A    between atoms: C_13  and  C_16 
REMARK    4  A    between atoms: C_16  and  C_17 
REMARK    5  A    between atoms: C_17  and  C_18 
ROOT
HETATM    1  N   UNK N   1      35.575  12.176  15.932  0.00  0.00     0.091 N 
HETATM    2  N   UNK N   1      35.541  13.423  13.444  0.00  0.00    -0.214 N 
HETATM    3  N   UNK N   1      34.368  13.964  11.402  0.00  0.00    -0.202 N 
ATOM      4  HN  UNK N   1      33.754  13.164  11.564  1.00  0.00     0.183 HD
HETATM    5  N   UNK N   1      36.170  15.316  12.089  0.00  0.00    -0.202 N 
ATOM      6  HN  UNK N   1      36.901  15.531  12.768  1.00  0.00     0.183 HD
HETATM    7  C   UNK N   1      36.053  13.553  15.797  0.00  0.00     0.292 C 
HETATM    8  C   UNK N   1      34.382  12.037  15.095  0.00  0.00     0.292 C 
HETATM    9  C   UNK N   1      36.596  13.726  14.388  0.00  0.00     0.171 C 
HETATM   10  C   UNK N   1      34.769  12.206  13.621  0.00  0.00     0.171 C 
HETATM   11  C   UNK N   1      35.347  14.252  12.305  0.00  0.00     0.679 A 
HETATM   12  C   UNK N   1      34.200  14.724  10.289  0.00  0.00     0.107 A 
HETATM   13  C   UNK N   1      36.035  16.095  10.985  0.00  0.00     0.107 A 
HETATM   14  C   UNK N   1      35.039  15.811  10.054  0.00  0.00     0.035 A 
ENDROOT
BRANCH   1  15
HETATM   15  C   UNK N   1      35.200  11.883  17.315  0.00  0.00     0.272 C 
BRANCH  15  16
HETATM   16  C   UNK N   1      35.906  10.645  17.873  0.00  0.00     0.032 C 
BRANCH  16  17
HETATM   17  C   UNK N   1      35.985  10.642  19.394  0.00  0.00     0.023 C 
BRANCH  17  18
HETATM   18  C   UNK N   1      35.605   9.258  19.901  0.00  0.00     0.148 C 
BRANCH  18  19
HETATM   19  N   UNK N   1      34.197   9.188  20.271  0.00  0.00    -0.302 N 
HETATM   20  N   UNK N   1      33.659   9.801  21.316  0.00  0.00    -0.308 N 
HETATM   21  C   UNK N   1      32.351   9.488  21.363  0.00  0.00     0.132 A 
ATOM     22  HN  UNK N   1      34.153  10.407  21.972  1.00  0.00     0.186 HD
HETATM   23  C   UNK N   1      32.082   8.641  20.308  0.00  0.00     0.068 A 
HETATM   24 Cl   UNK N   1      30.536   7.918  19.919  0.00  0.00    -0.081 Cl
HETATM   25  C   UNK N   1      33.267   8.462  19.630  0.00  0.00     0.135 A 
ENDBRANCH  18  19
ENDBRANCH  17  18
ENDBRANCH  16  17
ENDBRANCH  15  16
ENDBRANCH   1  15
TORSDOF 5
ENDMDL
MODEL 5
REMARK VINA RESULT:      -6.1      1.972      2.418
REMARK  5 active torsions:
REMARK  status: ('A' for Active; 'I' for Inactive)
REMARK    1  A    between atoms: N_2  and  C_13 
REMARK       I    between atoms: N_3  and  C_19 
REMARK    2  A    between atoms: N_4  and  C_18 
REMARK    3  A    between atoms: C_13  and  C_16 
REMARK    4  A    between atoms: C_16  and  C_17 
REMARK    5  A    between atoms: C_17  and  C_18 
ROOT
HETATM    1  N   UNK N   1      35.272  15.019   9.354  0.00  0.00     0.091 N 
HETATM    2  N   UNK N   1      35.213  13.476  11.669  0.00  0.00    -0.214 N 
HETATM    3  N   UNK N   1      35.274  13.337  14.081  0.00  0.00    -0.202 N 
ATOM      4  HN  UNK N   1      35.735  14.248  14.104  1.00  0.00     0.183 HD
HETATM    5  N   UNK N   1      34.303  11.580  12.849  0.00  0.00    -0.202 N 
ATOM      6  HN  UNK N   1      34.032  11.179  11.951  1.00  0.00     0.183 HD
HETATM    7  C   UNK N   1      34.261  13.971   9.510  0.00  0.00     0.292 C 
HETATM    8  C   UNK N   1      35.417  15.690  10.646  0.00  0.00     0.292 C 
HETATM    9  C   UNK N   1      34.843  12.885  10.401  0.00  0.00     0.171 C 
HETATM   10  C   UNK N   1      35.987  14.704  11.673  0.00  0.00     0.171 C 
HETATM   11  C   UNK N   1      34.914  12.798  12.882  0.00  0.00     0.679 A 
HETATM   12  C   UNK N   1      35.031  12.679  15.244  0.00  0.00     0.107 A 
HETATM   13  C   UNK N   1      34.048  10.891  13.991  0.00  0.00     0.107 A 
HETATM   14  C   UNK N   1      34.412  11.432  15.223  0.00  0.00     0.035 A 
ENDROOT
BRANCH   1  15
HETATM   15  C   UNK N   1      34.849  16.012   8.366  0.00  0.00     0.272 C 
BRANCH  15  16
HETATM   16  C   UNK N   1      34.583  17.387   8.983  0.00  0.00     0.032 C 
BRANCH  16  17
HETATM   17  C   UNK N   1      33.759  18.293   8.077  0.00  0.00     0.023 C 
BRANCH  17  18
HETATM   18  C   UNK N   1      32.686  17.456   7.395  0.00  0.00     0.148 C 
BRANCH  18  19
HETATM   19  N   UNK N   1      31.380  17.650   8.010  0.00  0.00    -0.302 N 
HETATM   20  N   UNK N   1      31.149  18.413   9.069  0.00  0.00    -0.308 N 
HETATM   21  C   UNK N   1      29.840  18.330   9.374  0.00  0.00     0.132 A 
ATOM     22  HN  UNK N   1      31.844  18.970   9.567  1.00  0.00     0.186 HD
HETATM   23  C   UNK N   1      29.251  17.471   8.468  0.00  0.00     0.068 A 
HETATM   24 Cl   UNK N   1      27.567  16.996   8.427  0.00  0.00    -0.081 Cl
HETATM   25  C   UNK N   1      30.245  17.050   7.614  0.00  0.00     0.135 A 
ENDBRANCH  18  19
ENDBRANCH  17  18
ENDBRANCH  16  17
ENDBRANCH  15  16
ENDBRANCH   1  15
TORSDOF 5
ENDMDL
MODEL 6
REMARK VINA RESULT:      -6.0      3.590      9.752
REMARK  5 active torsions:
REMARK  status: ('A' for Active; 'I' for Inactive)
REMARK    1  A    between atoms: N_2  and  C_13 
REMARK       I    between atoms: N_3  and  C_19 
REMARK    2  A    between atoms: N_4  and  C_18 
REMARK    3  A    between atoms: C_13  and  C_16 
REMARK    4  A    between atoms: C_16  and  C_17 
REMARK    5  A    between atoms: C_17  and  C_18 
ROOT
HETATM    1  N   UNK N   1      30.775  16.992   8.235  0.00  0.00     0.091 N 
HETATM    2  N   UNK N   1      28.612  18.192   6.959  0.00  0.00    -0.214 N 
HETATM    3  N   UNK N   1      27.094  20.060   6.746  0.00  0.00    -0.202 N 
ATOM      4  HN  UNK N   1      27.306  20.319   7.710  1.00  0.00     0.183 HD
HETATM    5  N   UNK N   1      27.426  18.629   4.905  0.00  0.00    -0.202 N 
ATOM      6  HN  UNK N   1      27.890  17.820   4.490  1.00  0.00     0.183 HD
HETATM    7  C   UNK N   1      30.712  17.021   6.772  0.00  0.00     0.292 C 
HETATM    8  C   UNK N   1      30.304  18.289   8.724  0.00  0.00     0.292 C 
HETATM    9  C   UNK N   1      29.247  17.034   6.365  0.00  0.00     0.171 C 
HETATM   10  C   UNK N   1      28.822  18.462   8.369  0.00  0.00     0.171 C 
HETATM   11  C   UNK N   1      27.711  18.979   6.190  0.00  0.00     0.679 A 
HETATM   12  C   UNK N   1      26.200  20.794   6.035  0.00  0.00     0.107 A 
HETATM   13  C   UNK N   1      26.534  19.337   4.166  0.00  0.00     0.107 A 
HETATM   14  C   UNK N   1      25.896  20.444   4.722  0.00  0.00     0.035 A 
ENDROOT
BRANCH   1  15
HETATM   15  C   UNK N   1      32.149  16.799   8.697  0.00  0.00     0.272 C 
BRANCH  15  16
HETATM   16  C   UNK N   1      33.064  17.976   8.349  0.00  0.00     0.032 C 
BRANCH  16  17
HETATM   17  C   UNK N   1      34.540  17.658   8.550  0.00  0.00     0.023 C 
BRANCH  17  18
HETATM   18  C   UNK N   1      34.756  16.170   8.311  0.00  0.00     0.148 C 
BRANCH  18  19
HETATM   19  N   UNK N   1      35.448  15.541   9.429  0.00  0.00    -0.302 N 
HETATM   20  N   UNK N   1      36.354  14.581   9.313  0.00  0.00    -0.308 N 
HETATM   21  C   UNK N   1      36.754  14.225  10.549  0.00  0.00     0.132 A 
ATOM     22  HN  UNK N   1      36.692  14.181   8.438  1.00  0.00     0.186 HD
HETATM   23  C   UNK N   1      36.054  14.994  11.455  0.00  0.00     0.068 A 
HETATM   24 Cl   UNK N   1      36.177  14.918  13.200  0.00  0.00    -0.081 Cl
HETATM   25  C   UNK N   1      35.230  15.820  10.725  0.00  0.00     0.135 A 
ENDBRANCH  18  19
ENDBRANCH  17  18
ENDBRANCH  16  17
ENDBRANCH  15  16
ENDBRANCH   1  15
TORSDOF 5
ENDMDL
MODEL 7
REMARK VINA RESULT:      -6.0      5.182     12.320
REMARK  5 active torsions:
REMARK  status: ('A' for Active; 'I' for Inactive)
REMARK    1  A    between atoms: N_2  and  C_13 
REMARK       I    between atoms: N_3  and  C_19 
REMARK    2  A    between atoms: N_4  and  C_18 
REMARK    3  A    between atoms: C_13  and  C_16 
REMARK    4  A    between atoms: C_16  and  C_17 
REMARK    5  A    between atoms: C_17  and  C_18 
ROOT
HETATM    1  N   UNK N   1      26.444  17.934   4.857  0.00  0.00     0.091 N 
HETATM    2  N   UNK N   1      23.940  18.515   3.790  0.00  0.00    -0.214 N 
HETATM    3  N   UNK N   1      21.580  18.023   3.630  0.00  0.00    -0.202 N 
ATOM      4  HN  UNK N   1      21.774  17.072   3.948  1.00  0.00     0.183 HD
HETATM    5  N   UNK N   1      22.346  20.182   3.084  0.00  0.00    -0.202 N 
ATOM      6  HN  UNK N   1      23.115  20.848   2.999  1.00  0.00     0.183 HD
HETATM    7  C   UNK N   1      25.962  19.316   4.829  0.00  0.00     0.292 C 
HETATM    8  C   UNK N   1      25.313  17.078   5.219  0.00  0.00     0.292 C 
HETATM    9  C   UNK N   1      25.023  19.463   3.643  0.00  0.00     0.171 C 
HETATM   10  C   UNK N   1      24.254  17.134   4.111  0.00  0.00     0.171 C 
HETATM   11  C   UNK N   1      22.604  18.914   3.513  0.00  0.00     0.679 A 
HETATM   12  C   UNK N   1      20.305  18.381   3.328  0.00  0.00     0.107 A 
HETATM   13  C   UNK N   1      21.085  20.574   2.768  0.00  0.00     0.107 A 
HETATM   14  C   UNK N   1      20.030  19.672   2.884  0.00  0.00     0.035 A 
ENDROOT
BRANCH   1  15
HETATM   15  C   UNK N   1      27.489  17.762   5.865  0.00  0.00     0.272 C 
BRANCH  15  16
HETATM   16  C   UNK N   1      27.794  19.052   6.631  0.00  0.00     0.032 C 
BRANCH  16  17
HETATM   17  C   UNK N   1      28.377  18.796   8.014  0.00  0.00     0.023 C 
BRANCH  17  18
HETATM   18  C   UNK N   1      29.011  17.411   8.028  0.00  0.00     0.148 C 
BRANCH  18  19
HETATM   19  N   UNK N   1      30.461  17.482   7.906  0.00  0.00    -0.302 N 
HETATM   20  N   UNK N   1      31.284  17.868   8.871  0.00  0.00    -0.308 N 
HETATM   21  C   UNK N   1      32.542  17.837   8.392  0.00  0.00     0.132 A 
ATOM     22  HN  UNK N   1      31.010  18.141   9.815  1.00  0.00     0.186 HD
HETATM   23  C   UNK N   1      32.482  17.425   7.077  0.00  0.00     0.068 A 
HETATM   24 Cl   UNK N   1      33.835  17.234   5.983  0.00  0.00    -0.081 Cl
HETATM   25  C   UNK N   1      31.154  17.207   6.788  0.00  0.00     0.135 A 
ENDBRANCH  18  19
ENDBRANCH  17  18
ENDBRANCH  16  17
ENDBRANCH  15  16
ENDBRANCH   1  15
TORSDOF 5
ENDMDL
MODEL 8
REMARK VINA RESULT:      -5.9      4.985     10.220
REMARK  5 active torsions:
REMARK  status: ('A' for Active; 'I' for Inactive)
REMARK    1  A    between atoms: N_2  and  C_13 
REMARK       I    between atoms: N_3  and  C_19 
REMARK    2  A    between atoms: N_4  and  C_18 
REMARK    3  A    between atoms: C_13  and  C_16 
REMARK    4  A    between atoms: C_16  and  C_17 
REMARK    5  A    between atoms: C_17  and  C_18 
ROOT
HETATM    1  N   UNK N   1      36.361  13.981  11.895  0.00  0.00     0.091 N 
HETATM    2  N   UNK N   1      34.943  15.360   9.938  0.00  0.00    -0.214 N 
HETATM    3  N   UNK N   1      33.198  15.395   8.267  0.00  0.00    -0.202 N 
ATOM      4  HN  UNK N   1      33.251  14.377   8.215  1.00  0.00     0.183 HD
HETATM    5  N   UNK N   1      33.938  17.425   9.203  0.00  0.00    -0.202 N 
ATOM      6  HN  UNK N   1      34.541  17.926   9.857  1.00  0.00     0.183 HD
HETATM    7  C   UNK N   1      35.867  15.333  12.164  0.00  0.00     0.292 C 
HETATM    8  C   UNK N   1      35.321  13.269  11.152  0.00  0.00     0.292 C 
HETATM    9  C   UNK N   1      35.808  16.084  10.844  0.00  0.00     0.171 C 
HETATM   10  C   UNK N   1      35.129  13.929   9.780  0.00  0.00     0.171 C 
HETATM   11  C   UNK N   1      34.004  16.066   9.136  0.00  0.00     0.679 A 
HETATM   12  C   UNK N   1      32.327  16.062   7.466  0.00  0.00     0.107 A 
HETATM   13  C   UNK N   1      33.082  18.126   8.415  0.00  0.00     0.107 A 
HETATM   14  C   UNK N   1      32.253  17.452   7.522  0.00  0.00     0.035 A 
ENDROOT
BRANCH   1  15
HETATM   15  C   UNK N   1      36.612  13.256  13.140  0.00  0.00     0.272 C 
BRANCH  15  16
HETATM   16  C   UNK N   1      35.668  13.672  14.271  0.00  0.00     0.032 C 
BRANCH  16  17
HETATM   17  C   UNK N   1      36.046  13.060  15.613  0.00  0.00     0.023 C 
BRANCH  17  18
HETATM   18  C   UNK N   1      34.888  13.256  16.582  0.00  0.00     0.148 C 
BRANCH  18  19
HETATM   19  N   UNK N   1      35.135  12.592  17.856  0.00  0.00    -0.302 N 
HETATM   20  N   UNK N   1      35.217  13.208  19.026  0.00  0.00    -0.308 N 
HETATM   21  C   UNK N   1      35.482  12.288  19.973  0.00  0.00     0.132 A 
ATOM     22  HN  UNK N   1      35.098  14.209  19.183  1.00  0.00     0.186 HD
HETATM   23  C   UNK N   1      35.575  11.060  19.351  0.00  0.00     0.068 A 
HETATM   24 Cl   UNK N   1      35.925   9.527  20.119  0.00  0.00    -0.081 Cl
HETATM   25  C   UNK N   1      35.354  11.276  18.009  0.00  0.00     0.135 A 
ENDBRANCH  18  19
ENDBRANCH  17  18
ENDBRANCH  16  17
ENDBRANCH  15  16
ENDBRANCH   1  15
TORSDOF 5
ENDMDL
MODEL 9
REMARK VINA RESULT:      -5.9      3.659      8.736
REMARK  5 active torsions:
REMARK  status: ('A' for Active; 'I' for Inactive)
REMARK    1  A    between atoms: N_2  and  C_13 
REMARK       I    between atoms: N_3  and  C_19 
REMARK    2  A    between atoms: N_4  and  C_18 
REMARK    3  A    between atoms: C_13  and  C_16 
REMARK    4  A    between atoms: C_16  and  C_17 
REMARK    5  A    between atoms: C_17  and  C_18 
ROOT
HETATM    1  N   UNK N   1      35.191  15.177   8.515  0.00  0.00     0.091 N 
HETATM    2  N   UNK N   1      32.815  16.583   8.165  0.00  0.00    -0.214 N 
HETATM    3  N   UNK N   1      30.548  16.666   7.330  0.00  0.00    -0.202 N 
ATOM      4  HN  UNK N   1      30.778  15.912   6.682  1.00  0.00     0.183 HD
HETATM    5  N   UNK N   1      31.196  18.132   9.057  0.00  0.00    -0.202 N 
ATOM      6  HN  UNK N   1      31.909  18.471   9.704  1.00  0.00     0.183 HD
HETATM    7  C   UNK N   1      34.602  15.911   9.637  0.00  0.00     0.292 C 
HETATM    8  C   UNK N   1      34.098  14.534   7.785  0.00  0.00     0.292 C 
HETATM    9  C   UNK N   1      33.823  17.088   9.072  0.00  0.00     0.171 C 
HETATM   10  C   UNK N   1      33.198  15.608   7.160  0.00  0.00     0.171 C 
HETATM   11  C   UNK N   1      31.499  17.122   8.193  0.00  0.00     0.679 A 
HETATM   12  C   UNK N   1      29.300  17.202   7.320  0.00  0.00     0.107 A 
HETATM   13  C   UNK N   1      29.960  18.695   9.072  0.00  0.00     0.107 A 
HETATM   14  C   UNK N   1      28.979  18.238   8.195  0.00  0.00     0.035 A 
ENDROOT
BRANCH   1  15
HETATM   15  C   UNK N   1      36.100  14.135   8.990  0.00  0.00     0.272 C 
BRANCH  15  16
HETATM   16  C   UNK N   1      36.895  14.558  10.228  0.00  0.00     0.032 C 
BRANCH  16  17
HETATM   17  C   UNK N   1      37.101  13.419  11.217  0.00  0.00     0.023 C 
BRANCH  17  18
HETATM   18  C   UNK N   1      35.795  12.650  11.356  0.00  0.00     0.148 C 
BRANCH  18  19
HETATM   19  N   UNK N   1      35.391  12.523  12.751  0.00  0.00    -0.302 N 
HETATM   20  N   UNK N   1      34.398  11.760  13.184  0.00  0.00    -0.308 N 
HETATM   21  C   UNK N   1      34.296  11.914  14.518  0.00  0.00     0.132 A 
ATOM     22  HN  UNK N   1      33.813  11.157  12.606  1.00  0.00     0.186 HD
HETATM   23  C   UNK N   1      35.261  12.818  14.912  0.00  0.00     0.068 A 
HETATM   24 Cl   UNK N   1      35.549  13.390  16.541  0.00  0.00    -0.081 Cl
HETATM   25  C   UNK N   1      35.943  13.193  13.776  0.00  0.00     0.135 A 
ENDBRANCH  18  19
ENDBRANCH  17  18
ENDBRANCH  16  17
ENDBRANCH  15  16
ENDBRANCH   1  15
TORSDOF 5
ENDMDL
