MODEL 1
REMARK VINA RESULT:      -7.5      0.000      0.000
REMARK  4 active torsions:
REMARK  status: ('A' for Active; 'I' for Inactive)
REMARK    1  A    between atoms: C_11  and  C_17 
REMARK    2  A    between atoms: C_12  and  C_16 
REMARK    3  A    between atoms: C_13  and  O_27 
REMARK    4  A    between atoms: C_18  and  O_26 
ROOT
HETATM    1  O   UNK N   1      25.950  13.551   2.400  0.00  0.00    -0.369 OA
HETATM    2  C   UNK N   1      25.372  12.919   3.506  0.00  0.00     0.084 A 
HETATM    3  C   UNK N   1      25.528  14.404   3.444  0.00  0.00     0.159 A 
HETATM    4  C   UNK N   1      29.872  17.091   5.810  0.00  0.00     0.143 C 
HETATM    5  C   UNK N   1      28.417  17.573   5.782  0.00  0.00     0.040 C 
HETATM    6  C   UNK N   1      30.532  16.402   4.618  0.00  0.00     0.081 C 
HETATM    7  N   UNK N   1      25.485  17.294   3.842  0.00  0.00    -0.353 N 
HETATM    8  C   UNK N   1      25.526  18.567   4.312  0.00  0.00     0.220 C 
HETATM    9  C   UNK N   1      24.237  16.573   3.638  0.00  0.00     0.115 C 
HETATM   10  C   UNK N   1      28.152  18.465   4.535  0.00  0.00     0.142 C 
HETATM   11  C   UNK N   1      24.441  15.277   2.858  0.00  0.00     0.064 C 
HETATM   12  C   UNK N   1      26.833  19.264   4.584  0.00  0.00     0.135 C 
HETATM   13  C   UNK N   1      30.229  14.904   4.465  0.00  0.00     0.132 C 
HETATM   14  O   UNK N   1      30.564  17.352   6.788  0.00  0.00    -0.297 OA
HETATM   15  O   UNK N   1      24.491  19.181   4.514  0.00  0.00    -0.274 OA
HETATM   16  C   UNK N   1      28.918  14.628   3.737  0.00  0.00     0.011 C 
HETATM   17  C   UNK N   1      26.411  12.026   4.207  0.00  0.00     0.040 C 
HETATM   18  C   UNK N   1      24.047  12.292   3.107  0.00  0.00     0.049 C 
HETATM   19  C   UNK N   1      27.495  16.374   5.793  0.00  0.00     0.026 C 
HETATM   20  C   UNK N   1      28.114  18.366   7.057  0.00  0.00     0.026 C 
HETATM   21  C   UNK N   1      32.044  16.583   4.646  0.00  0.00     0.020 C 
HETATM   22  C   UNK N   1      27.646  12.744   4.761  0.00  0.00     0.004 C 
HETATM   23  C   UNK N   1      28.608  13.139   3.647  0.00  0.00     0.007 C 
HETATM   24  C   UNK N   1      28.970  15.198   2.331  0.00  0.00     0.012 C 
HETATM   25  H   UNK N   1      26.333  16.840   3.631  0.00  0.00     0.163 HD
ENDROOT
BRANCH   9  26
HETATM   26  C   UNK N   1      23.474  16.380   4.932  0.00  0.00    -0.059 C 
HETATM   27  C   UNK N   1      22.266  16.938   5.106  0.00  0.00     0.034 C 
HETATM   28  C   UNK N   1      24.124  15.701   6.092  0.00  0.00     0.045 C 
BRANCH  27  29
HETATM   29  C   UNK N   1      21.493  17.553   4.008  0.00  0.00     0.039 A 
HETATM   30  N   UNK N   1      21.630  18.885   3.682  0.00  0.00    -0.354 N 
HETATM   31  C   UNK N   1      20.825  19.235   2.651  0.00  0.00     0.047 A 
ATOM     32  HN  UNK N   1      22.262  19.528   4.159  1.00  0.00     0.166 HD
HETATM   33  C   UNK N   1      20.782  20.587   2.037  0.00  0.00     0.076 C 
HETATM   34  S   UNK N   1      19.942  17.932   2.171  0.00  0.00    -0.087 SA
HETATM   35  C   UNK N   1      20.549  16.832   3.246  0.00  0.00     0.081 A 
ENDBRANCH  27  29
ENDBRANCH   9  26
BRANCH  10  36
HETATM   36  O   UNK N   1      29.183  19.399   4.402  0.00  0.00    -0.394 OA
HETATM   37  H   UNK N   1      29.644  19.843   5.131  0.00  0.00     0.210 HD
ENDBRANCH  10  36
BRANCH  13  38
HETATM   38  O   UNK N   1      30.292  14.253   5.700  0.00  0.00    -0.394 OA
HETATM   39  H   UNK N   1      30.192  14.115   6.655  0.00  0.00     0.210 HD
ENDBRANCH  13  38
TORSDOF 4
ENDMDL
MODEL 2
REMARK VINA RESULT:      -7.5      4.220      8.315
REMARK  4 active torsions:
REMARK  status: ('A' for Active; 'I' for Inactive)
REMARK    1  A    between atoms: C_11  and  C_17 
REMARK    2  A    between atoms: C_12  and  C_16 
REMARK    3  A    between atoms: C_13  and  O_27 
REMARK    4  A    between atoms: C_18  and  O_26 
ROOT
HETATM    1  O   UNK N   1      30.196  12.349   3.965  0.00  0.00    -0.369 OA
HETATM    2  C   UNK N   1      30.975  12.756   2.876  0.00  0.00     0.084 A 
HETATM    3  C   UNK N   1      30.707  13.664   4.033  0.00  0.00     0.159 A 
HETATM    4  C   UNK N   1      26.584  17.496   3.981  0.00  0.00     0.143 C 
HETATM    5  C   UNK N   1      27.981  17.679   4.584  0.00  0.00     0.040 C 
HETATM    6  C   UNK N   1      25.804  16.188   4.096  0.00  0.00     0.081 C 
HETATM    7  N   UNK N   1      30.606  15.806   6.011  0.00  0.00    -0.353 N 
HETATM    8  C   UNK N   1      30.545  16.980   6.691  0.00  0.00     0.220 C 
HETATM    9  C   UNK N   1      31.858  15.103   5.769  0.00  0.00     0.115 C 
HETATM   10  C   UNK N   1      27.996  17.270   6.085  0.00  0.00     0.142 C 
HETATM   11  C   UNK N   1      31.632  13.693   5.229  0.00  0.00     0.064 C 
HETATM   12  C   UNK N   1      29.248  17.724   6.864  0.00  0.00     0.135 C 
HETATM   13  C   UNK N   1      26.186  15.096   3.086  0.00  0.00     0.132 C 
HETATM   14  O   UNK N   1      26.028  18.462   3.470  0.00  0.00    -0.297 OA
HETATM   15  O   UNK N   1      31.554  17.453   7.190  0.00  0.00    -0.274 OA
HETATM   16  C   UNK N   1      27.390  14.269   3.521  0.00  0.00     0.011 C 
HETATM   17  C   UNK N   1      30.116  12.799   1.600  0.00  0.00     0.040 C 
HETATM   18  C   UNK N   1      32.267  11.959   2.839  0.00  0.00     0.049 C 
HETATM   19  C   UNK N   1      28.976  16.861   3.793  0.00  0.00     0.026 C 
HETATM   20  C   UNK N   1      28.413  19.142   4.444  0.00  0.00     0.026 C 
HETATM   21  C   UNK N   1      24.304  16.431   3.995  0.00  0.00     0.020 C 
HETATM   22  C   UNK N   1      28.929  13.769   1.624  0.00  0.00     0.004 C 
HETATM   23  C   UNK N   1      27.788  13.231   2.479  0.00  0.00     0.007 C 
HETATM   24  C   UNK N   1      27.091  13.555   4.827  0.00  0.00     0.012 C 
HETATM   25  H   UNK N   1      29.771  15.415   5.669  0.00  0.00     0.163 HD
ENDROOT
BRANCH   9  26
HETATM   26  C   UNK N   1      32.815  15.922   4.928  0.00  0.00    -0.059 C 
HETATM   27  C   UNK N   1      33.995  16.324   5.427  0.00  0.00     0.034 C 
HETATM   28  C   UNK N   1      32.392  16.428   3.589  0.00  0.00     0.045 C 
BRANCH  27  29
HETATM   29  C   UNK N   1      34.553  15.815   6.696  0.00  0.00     0.039 A 
HETATM   30  N   UNK N   1      34.419  16.512   7.877  0.00  0.00    -0.354 N 
HETATM   31  C   UNK N   1      35.009  15.866   8.911  0.00  0.00     0.047 A 
ATOM     32  HN  UNK N   1      33.935  17.406   7.963  1.00  0.00     0.166 HD
HETATM   33  C   UNK N   1      34.993  16.338  10.319  0.00  0.00     0.076 C 
HETATM   34  S   UNK N   1      35.704  14.476   8.370  0.00  0.00    -0.087 SA
HETATM   35  C   UNK N   1      35.278  14.608   6.778  0.00  0.00     0.081 A 
ENDBRANCH  27  29
ENDBRANCH   9  26
BRANCH  10  36
HETATM   36  O   UNK N   1      26.894  17.834   6.733  0.00  0.00    -0.394 OA
HETATM   37  H   UNK N   1      26.198  17.345   7.201  0.00  0.00     0.210 HD
ENDBRANCH  10  36
BRANCH  13  38
HETATM   38  O   UNK N   1      26.351  15.636   1.807  0.00  0.00    -0.394 OA
HETATM   39  H   UNK N   1      26.806  16.007   1.035  0.00  0.00     0.210 HD
ENDBRANCH  13  38
TORSDOF 4
ENDMDL
MODEL 3
REMARK VINA RESULT:      -7.2     12.008     15.295
REMARK  4 active torsions:
REMARK  status: ('A' for Active; 'I' for Inactive)
REMARK    1  A    between atoms: C_11  and  C_17 
REMARK    2  A    between atoms: C_12  and  C_16 
REMARK    3  A    between atoms: C_13  and  O_27 
REMARK    4  A    between atoms: C_18  and  O_26 
ROOT
HETATM    1  O   UNK N   1      30.486  26.700  -5.638  0.00  0.00    -0.369 OA
HETATM    2  C   UNK N   1      29.922  26.666  -4.359  0.00  0.00     0.084 A 
HETATM    3  C   UNK N   1      29.965  25.453  -5.230  0.00  0.00     0.159 A 
HETATM    4  C   UNK N   1      25.617  23.873  -8.437  0.00  0.00     0.143 C 
HETATM    5  C   UNK N   1      26.549  22.941  -7.654  0.00  0.00     0.040 C 
HETATM    6  C   UNK N   1      26.121  25.113  -9.170  0.00  0.00     0.081 C 
HETATM    7  N   UNK N   1      29.847  22.789  -6.416  0.00  0.00    -0.353 N 
HETATM    8  C   UNK N   1      29.525  21.537  -6.833  0.00  0.00     0.220 C 
HETATM    9  C   UNK N   1      30.722  23.037  -5.279  0.00  0.00     0.115 C 
HETATM   10  C   UNK N   1      27.752  22.493  -8.534  0.00  0.00     0.142 C 
HETATM   11  C   UNK N   1      31.140  24.502  -5.182  0.00  0.00     0.064 C 
HETATM   12  C   UNK N   1      28.560  21.309  -7.965  0.00  0.00     0.135 C 
HETATM   13  C   UNK N   1      26.337  26.359  -8.297  0.00  0.00     0.132 C 
HETATM   14  O   UNK N   1      24.437  23.563  -8.562  0.00  0.00    -0.297 OA
HETATM   15  O   UNK N   1      30.028  20.563  -6.296  0.00  0.00    -0.274 OA
HETATM   16  C   UNK N   1      27.692  26.376  -7.599  0.00  0.00     0.011 C 
HETATM   17  C   UNK N   1      28.683  27.578  -4.305  0.00  0.00     0.040 C 
HETATM   18  C   UNK N   1      31.003  26.870  -3.312  0.00  0.00     0.049 C 
HETATM   19  C   UNK N   1      27.027  23.648  -6.407  0.00  0.00     0.026 C 
HETATM   20  C   UNK N   1      25.768  21.710  -7.184  0.00  0.00     0.026 C 
HETATM   21  C   UNK N   1      25.195  25.489 -10.319  0.00  0.00     0.020 C 
HETATM   22  C   UNK N   1      27.538  27.209  -5.254  0.00  0.00     0.004 C 
HETATM   23  C   UNK N   1      27.863  27.589  -6.693  0.00  0.00     0.007 C 
HETATM   24  C   UNK N   1      28.810  26.376  -8.626  0.00  0.00     0.012 C 
HETATM   25  H   UNK N   1      29.474  23.559  -6.902  0.00  0.00     0.163 HD
ENDROOT
BRANCH   9  26
HETATM   26  C   UNK N   1      30.146  22.491  -3.989  0.00  0.00    -0.059 C 
HETATM   27  C   UNK N   1      30.744  21.477  -3.345  0.00  0.00     0.034 C 
HETATM   28  C   UNK N   1      28.817  22.967  -3.501  0.00  0.00     0.045 C 
BRANCH  27  29
HETATM   29  C   UNK N   1      32.096  20.988  -3.684  0.00  0.00     0.039 A 
HETATM   30  N   UNK N   1      32.310  20.108  -4.722  0.00  0.00    -0.354 N 
HETATM   31  C   UNK N   1      33.620  19.790  -4.851  0.00  0.00     0.047 A 
ATOM     32  HN  UNK N   1      31.571  19.739  -5.321  1.00  0.00     0.166 HD
HETATM   33  C   UNK N   1      34.173  18.905  -5.907  0.00  0.00     0.076 C 
HETATM   34  S   UNK N   1      34.492  20.562  -3.688  0.00  0.00    -0.087 SA
HETATM   35  C   UNK N   1      33.245  21.364  -2.956  0.00  0.00     0.081 A 
ENDBRANCH  27  29
ENDBRANCH   9  26
BRANCH  10  36
HETATM   36  O   UNK N   1      27.289  22.097  -9.791  0.00  0.00    -0.394 OA
HETATM   37  H   UNK N   1      26.364  22.110 -10.086  0.00  0.00     0.210 HD
ENDBRANCH  10  36
BRANCH  13  38
HETATM   38  O   UNK N   1      25.280  26.528  -7.399  0.00  0.00    -0.394 OA
HETATM   39  H   UNK N   1      24.472  26.902  -7.015  0.00  0.00     0.210 HD
ENDBRANCH  13  38
TORSDOF 4
ENDMDL
MODEL 4
REMARK VINA RESULT:      -7.1     11.740     13.623
REMARK  4 active torsions:
REMARK  status: ('A' for Active; 'I' for Inactive)
REMARK    1  A    between atoms: C_11  and  C_17 
REMARK    2  A    between atoms: C_12  and  C_16 
REMARK    3  A    between atoms: C_13  and  O_27 
REMARK    4  A    between atoms: C_18  and  O_26 
ROOT
HETATM    1  O   UNK N   1      27.707  24.086  -8.882  0.00  0.00    -0.369 OA
HETATM    2  C   UNK N   1      26.545  23.585  -8.287  0.00  0.00     0.084 A 
HETATM    3  C   UNK N   1      27.699  24.068  -7.470  0.00  0.00     0.159 A 
HETATM    4  C   UNK N   1      31.619  20.589  -5.417  0.00  0.00     0.143 C 
HETATM    5  C   UNK N   1      31.026  21.807  -4.700  0.00  0.00     0.040 C 
HETATM    6  C   UNK N   1      31.942  20.591  -6.909  0.00  0.00     0.081 C 
HETATM    7  N   UNK N   1      29.558  24.937  -5.395  0.00  0.00    -0.353 N 
HETATM    8  C   UNK N   1      30.322  25.099  -4.285  0.00  0.00     0.220 C 
HETATM    9  C   UNK N   1      28.316  25.667  -5.607  0.00  0.00     0.115 C 
HETATM   10  C   UNK N   1      31.871  23.083  -4.983  0.00  0.00     0.142 C 
HETATM   11  C   UNK N   1      27.792  25.513  -7.032  0.00  0.00     0.064 C 
HETATM   12  C   UNK N   1      31.563  24.278  -4.057  0.00  0.00     0.135 C 
HETATM   13  C   UNK N   1      30.752  20.337  -7.847  0.00  0.00     0.132 C 
HETATM   14  O   UNK N   1      31.937  19.608  -4.754  0.00  0.00    -0.297 OA
HETATM   15  O   UNK N   1      30.018  25.932  -3.447  0.00  0.00    -0.274 OA
HETATM   16  C   UNK N   1      29.946  21.595  -8.149  0.00  0.00     0.011 C 
HETATM   17  C   UNK N   1      26.370  22.097  -8.639  0.00  0.00     0.040 C 
HETATM   18  C   UNK N   1      25.381  24.523  -8.559  0.00  0.00     0.049 C 
HETATM   19  C   UNK N   1      29.595  22.000  -5.146  0.00  0.00     0.026 C 
HETATM   20  C   UNK N   1      30.980  21.543  -3.192  0.00  0.00     0.026 C 
HETATM   21  C   UNK N   1      33.033  19.581  -7.237  0.00  0.00     0.020 C 
HETATM   22  C   UNK N   1      27.490  21.163  -8.169  0.00  0.00     0.004 C 
HETATM   23  C   UNK N   1      28.737  21.311  -9.033  0.00  0.00     0.007 C 
HETATM   24  C   UNK N   1      30.821  22.624  -8.842  0.00  0.00     0.012 C 
HETATM   25  H   UNK N   1      29.854  24.300  -6.085  0.00  0.00     0.163 HD
ENDROOT
BRANCH   9  26
HETATM   26  C   UNK N   1      27.281  25.346  -4.549  0.00  0.00    -0.059 C 
HETATM   27  C   UNK N   1      26.862  26.289  -3.690  0.00  0.00     0.034 C 
HETATM   28  C   UNK N   1      26.831  23.938  -4.343  0.00  0.00     0.045 C 
BRANCH  27  29
HETATM   29  C   UNK N   1      27.168  27.724  -3.852  0.00  0.00     0.039 A 
HETATM   30  N   UNK N   1      28.305  28.288  -3.312  0.00  0.00    -0.354 N 
HETATM   31  C   UNK N   1      28.382  29.614  -3.577  0.00  0.00     0.047 A 
ATOM     32  HN  UNK N   1      29.002  27.770  -2.778  1.00  0.00     0.166 HD
HETATM   33  C   UNK N   1      29.512  30.489  -3.174  0.00  0.00     0.076 C 
HETATM   34  S   UNK N   1      27.060  30.084  -4.437  0.00  0.00    -0.087 SA
HETATM   35  C   UNK N   1      26.313  28.613  -4.537  0.00  0.00     0.081 A 
ENDBRANCH  27  29
ENDBRANCH   9  26
BRANCH  10  36
HETATM   36  O   UNK N   1      33.228  22.789  -4.821  0.00  0.00    -0.394 OA
HETATM   37  H   UNK N   1      33.869  23.322  -4.324  0.00  0.00     0.210 HD
ENDBRANCH  10  36
BRANCH  13  38
HETATM   38  O   UNK N   1      29.949  19.300  -7.364  0.00  0.00    -0.394 OA
HETATM   39  H   UNK N   1      29.655  18.579  -6.785  0.00  0.00     0.210 HD
ENDBRANCH  13  38
TORSDOF 4
ENDMDL
MODEL 5
REMARK VINA RESULT:      -6.9      3.326      7.259
REMARK  4 active torsions:
REMARK  status: ('A' for Active; 'I' for Inactive)
REMARK    1  A    between atoms: C_11  and  C_17 
REMARK    2  A    between atoms: C_12  and  C_16 
REMARK    3  A    between atoms: C_13  and  O_27 
REMARK    4  A    between atoms: C_18  and  O_26 
ROOT
HETATM    1  O   UNK N   1      26.658  12.946   5.239  0.00  0.00    -0.369 OA
HETATM    2  C   UNK N   1      26.876  12.662   3.887  0.00  0.00     0.084 A 
HETATM    3  C   UNK N   1      27.273  13.972   4.488  0.00  0.00     0.159 A 
HETATM    4  C   UNK N   1      24.016  18.553   4.180  0.00  0.00     0.143 C 
HETATM    5  C   UNK N   1      25.544  18.520   4.059  0.00  0.00     0.040 C 
HETATM    6  C   UNK N   1      23.252  17.683   5.174  0.00  0.00     0.081 C 
HETATM    7  N   UNK N   1      28.325  16.622   5.108  0.00  0.00    -0.353 N 
HETATM    8  C   UNK N   1      28.708  17.925   5.125  0.00  0.00     0.220 C 
HETATM    9  C   UNK N   1      29.240  15.539   4.779  0.00  0.00     0.115 C 
HETATM   10  C   UNK N   1      26.215  18.718   5.449  0.00  0.00     0.142 C 
HETATM   11  C   UNK N   1      28.647  14.167   5.090  0.00  0.00     0.064 C 
HETATM   12  C   UNK N   1      27.724  19.031   5.396  0.00  0.00     0.135 C 
HETATM   13  C   UNK N   1      23.004  16.232   4.734  0.00  0.00     0.132 C 
HETATM   14  O   UNK N   1      23.388  19.376   3.524  0.00  0.00    -0.297 OA
HETATM   15  O   UNK N   1      29.875  18.223   4.929  0.00  0.00    -0.274 OA
HETATM   16  C   UNK N   1      24.181  15.307   5.024  0.00  0.00     0.011 C 
HETATM   17  C   UNK N   1      25.531  12.481   3.162  0.00  0.00     0.040 C 
HETATM   18  C   UNK N   1      27.913  11.561   3.752  0.00  0.00     0.049 C 
HETATM   19  C   UNK N   1      25.966  17.207   3.439  0.00  0.00     0.026 C 
HETATM   20  C   UNK N   1      26.008  19.621   3.101  0.00  0.00     0.026 C 
HETATM   21  C   UNK N   1      21.911  18.308   5.535  0.00  0.00     0.020 C 
HETATM   22  C   UNK N   1      24.598  13.697   3.167  0.00  0.00     0.004 C 
HETATM   23  C   UNK N   1      23.939  13.887   4.527  0.00  0.00     0.007 C 
HETATM   24  C   UNK N   1      24.454  15.259   6.516  0.00  0.00     0.012 C 
HETATM   25  H   UNK N   1      27.391  16.401   5.326  0.00  0.00     0.163 HD
ENDROOT
BRANCH   9  26
HETATM   26  C   UNK N   1      29.773  15.655   3.366  0.00  0.00    -0.059 C 
HETATM   27  C   UNK N   1      31.077  15.880   3.141  0.00  0.00     0.034 C 
HETATM   28  C   UNK N   1      28.831  15.680   2.209  0.00  0.00     0.045 C 
BRANCH  27  29
HETATM   29  C   UNK N   1      32.108  15.788   4.194  0.00  0.00     0.039 A 
HETATM   30  N   UNK N   1      32.467  16.880   4.954  0.00  0.00    -0.354 N 
HETATM   31  C   UNK N   1      33.432  16.571   5.854  0.00  0.00     0.047 A 
ATOM     32  HN  UNK N   1      32.057  17.809   4.852  1.00  0.00     0.166 HD
HETATM   33  C   UNK N   1      33.992  17.521   6.848  0.00  0.00     0.076 C 
HETATM   34  S   UNK N   1      33.850  14.988   5.693  0.00  0.00    -0.087 SA
HETATM   35  C   UNK N   1      32.808  14.595   4.471  0.00  0.00     0.081 A 
ENDBRANCH  27  29
ENDBRANCH   9  26
BRANCH  10  36
HETATM   36  O   UNK N   1      25.606  19.786   6.113  0.00  0.00    -0.394 OA
HETATM   37  H   UNK N   1      25.279  20.601   5.698  0.00  0.00     0.210 HD
ENDBRANCH  10  36
BRANCH  13  38
HETATM   38  O   UNK N   1      22.609  16.177   3.395  0.00  0.00    -0.394 OA
HETATM   39  H   UNK N   1      22.073  15.949   2.620  0.00  0.00     0.210 HD
ENDBRANCH  13  38
TORSDOF 4
ENDMDL
MODEL 6
REMARK VINA RESULT:      -6.7      4.215      7.629
REMARK  4 active torsions:
REMARK  status: ('A' for Active; 'I' for Inactive)
REMARK    1  A    between atoms: C_11  and  C_17 
REMARK    2  A    between atoms: C_12  and  C_16 
REMARK    3  A    between atoms: C_13  and  O_27 
REMARK    4  A    between atoms: C_18  and  O_26 
ROOT
HETATM    1  O   UNK N   1      25.826  13.632   3.572  0.00  0.00    -0.369 OA
HETATM    2  C   UNK N   1      26.667  13.636   4.690  0.00  0.00     0.084 A 
HETATM    3  C   UNK N   1      25.195  13.413   4.816  0.00  0.00     0.159 A 
HETATM    4  C   UNK N   1      21.603  17.560   6.077  0.00  0.00     0.143 C 
HETATM    5  C   UNK N   1      21.533  16.117   6.587  0.00  0.00     0.040 C 
HETATM    6  C   UNK N   1      22.003  17.907   4.645  0.00  0.00     0.081 C 
HETATM    7  N   UNK N   1      22.459  12.844   5.657  0.00  0.00    -0.353 N 
HETATM    8  C   UNK N   1      21.258  12.749   6.284  0.00  0.00     0.220 C 
HETATM    9  C   UNK N   1      23.475  11.805   5.748  0.00  0.00     0.115 C 
HETATM   10  C   UNK N   1      20.661  15.237   5.645  0.00  0.00     0.142 C 
HETATM   11  C   UNK N   1      24.610  12.019   4.750  0.00  0.00     0.064 C 
HETATM   12  C   UNK N   1      20.255  13.870   6.234  0.00  0.00     0.135 C 
HETATM   13  C   UNK N   1      23.512  17.924   4.361  0.00  0.00     0.132 C 
HETATM   14  O   UNK N   1      21.234  18.468   6.813  0.00  0.00    -0.297 OA
HETATM   15  O   UNK N   1      20.964  11.737   6.897  0.00  0.00    -0.274 OA
HETATM   16  C   UNK N   1      24.082  16.544   4.052  0.00  0.00     0.011 C 
HETATM   17  C   UNK N   1      27.292  15.030   4.876  0.00  0.00     0.040 C 
HETATM   18  C   UNK N   1      27.599  12.438   4.638  0.00  0.00     0.049 C 
HETATM   19  C   UNK N   1      22.934  15.560   6.701  0.00  0.00     0.026 C 
HETATM   20  C   UNK N   1      20.943  16.100   8.001  0.00  0.00     0.026 C 
HETATM   21  C   UNK N   1      21.421  19.249   4.220  0.00  0.00     0.020 C 
HETATM   22  C   UNK N   1      26.306  16.178   5.116  0.00  0.00     0.004 C 
HETATM   23  C   UNK N   1      25.589  16.575   3.832  0.00  0.00     0.007 C 
HETATM   24  C   UNK N   1      23.423  15.973   2.810  0.00  0.00     0.012 C 
HETATM   25  H   UNK N   1      22.651  13.646   5.120  0.00  0.00     0.163 HD
ENDROOT
BRANCH   9  26
HETATM   26  C   UNK N   1      23.957  11.604   7.170  0.00  0.00    -0.059 C 
HETATM   27  C   UNK N   1      23.880  10.400   7.757  0.00  0.00     0.034 C 
HETATM   28  C   UNK N   1      24.377  12.778   7.992  0.00  0.00     0.045 C 
BRANCH  27  29
HETATM   29  C   UNK N   1      23.566   9.159   7.021  0.00  0.00     0.039 A 
HETATM   30  N   UNK N   1      22.385   9.007   6.326  0.00  0.00    -0.354 N 
HETATM   31  C   UNK N   1      22.305   7.792   5.732  0.00  0.00     0.047 A 
ATOM     32  HN  UNK N   1      21.660   9.721   6.267  1.00  0.00     0.166 HD
HETATM   33  C   UNK N   1      21.179   7.348   4.873  0.00  0.00     0.076 C 
HETATM   34  S   UNK N   1      23.654   6.916   6.081  0.00  0.00    -0.087 SA
HETATM   35  C   UNK N   1      24.433   8.046   7.003  0.00  0.00     0.081 A 
ENDBRANCH  27  29
ENDBRANCH   9  26
BRANCH  10  36
HETATM   36  O   UNK N   1      19.476  15.912   5.341  0.00  0.00    -0.394 OA
HETATM   37  H   UNK N   1      18.802  16.193   5.981  0.00  0.00     0.210 HD
ENDBRANCH  10  36
BRANCH  13  38
HETATM   38  O   UNK N   1      24.206  18.561   5.394  0.00  0.00    -0.394 OA
HETATM   39  H   UNK N   1      24.527  18.738   6.292  0.00  0.00     0.210 HD
ENDBRANCH  13  38
TORSDOF 4
ENDMDL
MODEL 7
REMARK VINA RESULT:      -6.7     10.857     14.635
REMARK  4 active torsions:
REMARK  status: ('A' for Active; 'I' for Inactive)
REMARK    1  A    between atoms: C_11  and  C_17 
REMARK    2  A    between atoms: C_12  and  C_16 
REMARK    3  A    between atoms: C_13  and  O_27 
REMARK    4  A    between atoms: C_18  and  O_26 
ROOT
HETATM    1  O   UNK N   1      34.600  13.772  12.794  0.00  0.00    -0.369 OA
HETATM    2  C   UNK N   1      35.854  14.387  12.718  0.00  0.00     0.084 A 
HETATM    3  C   UNK N   1      35.583  13.071  12.063  0.00  0.00     0.159 A 
HETATM    4  C   UNK N   1      36.865   8.157  14.491  0.00  0.00     0.143 C 
HETATM    5  C   UNK N   1      37.013   8.497  13.004  0.00  0.00     0.040 C 
HETATM    6  C   UNK N   1      35.678   8.628  15.328  0.00  0.00     0.081 C 
HETATM    7  N   UNK N   1      35.621  10.589  10.530  0.00  0.00    -0.353 N 
HETATM    8  C   UNK N   1      35.915   9.408   9.926  0.00  0.00     0.220 C 
HETATM    9  C   UNK N   1      35.712  11.867   9.839  0.00  0.00     0.115 C 
HETATM   10  C   UNK N   1      35.724   8.119  12.218  0.00  0.00     0.142 C 
HETATM   11  C   UNK N   1      35.076  13.001  10.639  0.00  0.00     0.064 C 
HETATM   12  C   UNK N   1      35.884   8.108  10.684  0.00  0.00     0.135 C 
HETATM   13  C   UNK N   1      35.763  10.070  15.850  0.00  0.00     0.132 C 
HETATM   14  O   UNK N   1      37.679   7.401  15.010  0.00  0.00    -0.297 OA
HETATM   15  O   UNK N   1      36.204   9.380   8.741  0.00  0.00    -0.274 OA
HETATM   16  C   UNK N   1      35.296  11.106  14.835  0.00  0.00     0.011 C 
HETATM   17  C   UNK N   1      36.484  14.476  14.120  0.00  0.00     0.040 C 
HETATM   18  C   UNK N   1      35.755  15.661  11.899  0.00  0.00     0.049 C 
HETATM   19  C   UNK N   1      37.321   9.969  12.857  0.00  0.00     0.026 C 
HETATM   20  C   UNK N   1      38.211   7.742  12.421  0.00  0.00     0.026 C 
HETATM   21  C   UNK N   1      35.439   7.703  16.513  0.00  0.00     0.020 C 
HETATM   22  C   UNK N   1      36.738  13.140  14.826  0.00  0.00     0.004 C 
HETATM   23  C   UNK N   1      35.443  12.532  15.351  0.00  0.00     0.007 C 
HETATM   24  C   UNK N   1      33.840  10.869  14.476  0.00  0.00     0.012 C 
HETATM   25  H   UNK N   1      35.334  10.580  11.471  0.00  0.00     0.163 HD
ENDROOT
BRANCH   9  26
HETATM   26  C   UNK N   1      37.125  12.170   9.388  0.00  0.00    -0.059 C 
HETATM   27  C   UNK N   1      37.367  12.637   8.153  0.00  0.00     0.034 C 
HETATM   28  C   UNK N   1      38.284  11.802  10.256  0.00  0.00     0.045 C 
BRANCH  27  29
HETATM   29  C   UNK N   1      36.305  13.116   7.247  0.00  0.00     0.039 A 
HETATM   30  N   UNK N   1      35.844  14.414   7.292  0.00  0.00    -0.354 N 
HETATM   31  C   UNK N   1      34.868  14.634   6.379  0.00  0.00     0.047 A 
ATOM     32  HN  UNK N   1      36.195  15.124   7.936  1.00  0.00     0.166 HD
HETATM   33  C   UNK N   1      34.208  15.943   6.150  0.00  0.00     0.076 C 
HETATM   34  S   UNK N   1      34.564  13.244   5.551  0.00  0.00    -0.087 SA
HETATM   35  C   UNK N   1      35.676  12.278   6.302  0.00  0.00     0.081 A 
ENDBRANCH  27  29
ENDBRANCH   9  26
BRANCH  10  36
HETATM   36  O   UNK N   1      35.311   6.836  12.588  0.00  0.00    -0.394 OA
HETATM   37  H   UNK N   1      35.133   6.100  11.982  0.00  0.00     0.210 HD
ENDBRANCH  10  36
BRANCH  13  38
HETATM   38  O   UNK N   1      37.043  10.349  16.337  0.00  0.00    -0.394 OA
HETATM   39  H   UNK N   1      37.988  10.566  16.322  0.00  0.00     0.210 HD
ENDBRANCH  13  38
TORSDOF 4
ENDMDL
MODEL 8
REMARK VINA RESULT:      -6.6      2.032      4.866
REMARK  4 active torsions:
REMARK  status: ('A' for Active; 'I' for Inactive)
REMARK    1  A    between atoms: C_11  and  C_17 
REMARK    2  A    between atoms: C_12  and  C_16 
REMARK    3  A    between atoms: C_13  and  O_27 
REMARK    4  A    between atoms: C_18  and  O_26 
ROOT
HETATM    1  O   UNK N   1      25.362  18.166   5.337  0.00  0.00    -0.369 OA
HETATM    2  C   UNK N   1      25.192  18.686   4.050  0.00  0.00     0.084 A 
HETATM    3  C   UNK N   1      25.534  17.249   4.276  0.00  0.00     0.159 A 
HETATM    4  C   UNK N   1      30.817  15.321   4.037  0.00  0.00     0.143 C 
HETATM    5  C   UNK N   1      29.567  14.601   3.518  0.00  0.00     0.040 C 
HETATM    6  C   UNK N   1      30.825  16.117   5.340  0.00  0.00     0.081 C 
HETATM    7  N   UNK N   1      26.096  14.391   4.104  0.00  0.00    -0.353 N 
HETATM    8  C   UNK N   1      26.517  13.141   3.783  0.00  0.00     0.220 C 
HETATM    9  C   UNK N   1      24.778  14.893   3.741  0.00  0.00     0.115 C 
HETATM   10  C   UNK N   1      28.959  13.683   4.617  0.00  0.00     0.142 C 
HETATM   11  C   UNK N   1      24.449  16.208   4.442  0.00  0.00     0.064 C 
HETATM   12  C   UNK N   1      27.911  12.673   4.105  0.00  0.00     0.135 C 
HETATM   13  C   UNK N   1      30.262  17.543   5.251  0.00  0.00     0.132 C 
HETATM   14  O   UNK N   1      31.876  15.176   3.437  0.00  0.00    -0.297 OA
HETATM   15  O   UNK N   1      25.759  12.361   3.230  0.00  0.00    -0.274 OA
HETATM   16  C   UNK N   1      28.743  17.598   5.375  0.00  0.00     0.011 C 
HETATM   17  C   UNK N   1      26.277  19.738   3.758  0.00  0.00     0.040 C 
HETATM   18  C   UNK N   1      23.741  19.082   3.841  0.00  0.00     0.049 C 
HETATM   19  C   UNK N   1      28.558  15.627   3.054  0.00  0.00     0.026 C 
HETATM   20  C   UNK N   1      29.930  13.762   2.288  0.00  0.00     0.026 C 
HETATM   21  C   UNK N   1      32.227  16.192   5.930  0.00  0.00     0.020 C 
HETATM   22  C   UNK N   1      27.724  19.236   3.795  0.00  0.00     0.004 C 
HETATM   23  C   UNK N   1      28.200  19.014   5.225  0.00  0.00     0.007 C 
HETATM   24  C   UNK N   1      28.308  17.051   6.722  0.00  0.00     0.012 C 
HETATM   25  H   UNK N   1      26.706  14.982   4.601  0.00  0.00     0.163 HD
ENDROOT
BRANCH   9  26
HETATM   26  C   UNK N   1      24.585  14.948   2.240  0.00  0.00    -0.059 C 
HETATM   27  C   UNK N   1      23.489  14.423   1.669  0.00  0.00     0.034 C 
HETATM   28  C   UNK N   1      25.684  15.444   1.360  0.00  0.00     0.045 C 
BRANCH  27  29
HETATM   29  C   UNK N   1      22.306  13.988   2.438  0.00  0.00     0.039 A 
HETATM   30  N   UNK N   1      21.391  14.892   2.935  0.00  0.00    -0.354 N 
HETATM   31  C   UNK N   1      20.391  14.276   3.610  0.00  0.00     0.047 A 
ATOM     32  HN  UNK N   1      21.460  15.902   2.810  1.00  0.00     0.166 HD
HETATM   33  C   UNK N   1      19.231  14.974   4.218  0.00  0.00     0.076 C 
HETATM   34  S   UNK N   1      20.648  12.651   3.614  0.00  0.00    -0.087 SA
HETATM   35  C   UNK N   1      22.049  12.634   2.737  0.00  0.00     0.081 A 
ENDBRANCH  27  29
ENDBRANCH   9  26
BRANCH  10  36
HETATM   36  O   UNK N   1      29.977  12.936   5.217  0.00  0.00    -0.394 OA
HETATM   37  H   UNK N   1      30.429  13.158   6.046  0.00  0.00     0.210 HD
ENDBRANCH  10  36
BRANCH  13  38
HETATM   38  O   UNK N   1      30.720  18.189   4.100  0.00  0.00    -0.394 OA
HETATM   39  H   UNK N   1      30.775  18.437   3.164  0.00  0.00     0.210 HD
ENDBRANCH  13  38
TORSDOF 4
ENDMDL
MODEL 9
REMARK VINA RESULT:      -6.6      7.609     11.139
REMARK  4 active torsions:
REMARK  status: ('A' for Active; 'I' for Inactive)
REMARK    1  A    between atoms: C_11  and  C_17 
REMARK    2  A    between atoms: C_12  and  C_16 
REMARK    3  A    between atoms: C_13  and  O_27 
REMARK    4  A    between atoms: C_18  and  O_26 
ROOT
HETATM    1  O   UNK N   1      34.008  10.775   6.238  0.00  0.00    -0.369 OA
HETATM    2  C   UNK N   1      35.403  10.870   6.206  0.00  0.00     0.084 A 
HETATM    3  C   UNK N   1      34.572  11.789   7.042  0.00  0.00     0.159 A 
HETATM    4  C   UNK N   1      33.037  16.915   5.293  0.00  0.00     0.143 C 
HETATM    5  C   UNK N   1      33.459  16.534   6.716  0.00  0.00     0.040 C 
HETATM    6  C   UNK N   1      32.173  16.007   4.421  0.00  0.00     0.081 C 
HETATM    7  N   UNK N   1      33.504  13.767   8.902  0.00  0.00    -0.353 N 
HETATM    8  C   UNK N   1      33.224  14.860   9.658  0.00  0.00     0.220 C 
HETATM    9  C   UNK N   1      34.275  12.640   9.408  0.00  0.00     0.115 C 
HETATM   10  C   UNK N   1      32.224  16.122   7.569  0.00  0.00     0.142 C 
HETATM   11  C   UNK N   1      34.220  11.437   8.470  0.00  0.00     0.064 C 
HETATM   12  C   UNK N   1      32.488  16.043   9.087  0.00  0.00     0.135 C 
HETATM   13  C   UNK N   1      32.917  14.871   3.703  0.00  0.00     0.132 C 
HETATM   14  O   UNK N   1      33.320  18.030   4.869  0.00  0.00    -0.297 OA
HETATM   15  O   UNK N   1      33.560  14.899  10.830  0.00  0.00    -0.274 OA
HETATM   16  C   UNK N   1      33.114  13.636   4.574  0.00  0.00     0.011 C 
HETATM   17  C   UNK N   1      35.873  11.265   4.794  0.00  0.00     0.040 C 
HETATM   18  C   UNK N   1      36.019   9.637   6.843  0.00  0.00     0.049 C 
HETATM   19  C   UNK N   1      34.468  15.410   6.653  0.00  0.00     0.026 C 
HETATM   20  C   UNK N   1      34.169  17.719   7.377  0.00  0.00     0.026 C 
HETATM   21  C   UNK N   1      31.407  16.811   3.379  0.00  0.00     0.020 C 
HETATM   22  C   UNK N   1      35.369  12.617   4.275  0.00  0.00     0.004 C 
HETATM   23  C   UNK N   1      33.905  12.544   3.863  0.00  0.00     0.007 C 
HETATM   24  C   UNK N   1      31.768  13.068   4.988  0.00  0.00     0.012 C 
HETATM   25  H   UNK N   1      33.171  13.734   7.976  0.00  0.00     0.163 HD
ENDROOT
BRANCH   9  26
HETATM   26  C   UNK N   1      35.685  13.042   9.787  0.00  0.00    -0.059 C 
HETATM   27  C   UNK N   1      36.226  12.638  10.947  0.00  0.00     0.034 C 
HETATM   28  C   UNK N   1      36.436  14.025   8.950  0.00  0.00     0.045 C 
BRANCH  27  29
HETATM   29  C   UNK N   1      35.617  11.603  11.806  0.00  0.00     0.039 A 
HETATM   30  N   UNK N   1      34.787  11.930  12.857  0.00  0.00    -0.354 N 
HETATM   31  C   UNK N   1      34.347  10.829  13.512  0.00  0.00     0.047 A 
ATOM     32  HN  UNK N   1      34.535  12.885  13.112  1.00  0.00     0.166 HD
HETATM   33  C   UNK N   1      33.400  10.850  14.655  0.00  0.00     0.076 C 
HETATM   34  S   UNK N   1      34.992   9.481  12.821  0.00  0.00    -0.087 SA
HETATM   35  C   UNK N   1      35.864  10.225  11.630  0.00  0.00     0.081 A 
ENDBRANCH  27  29
ENDBRANCH   9  26
BRANCH  10  36
HETATM   36  O   UNK N   1      31.200  17.055   7.388  0.00  0.00    -0.394 OA
HETATM   37  H   UNK N   1      30.327  16.873   7.005  0.00  0.00     0.210 HD
ENDBRANCH  10  36
BRANCH  13  38
HETATM   38  O   UNK N   1      34.121  15.329   3.159  0.00  0.00    -0.394 OA
HETATM   39  H   UNK N   1      34.936  15.848   3.078  0.00  0.00     0.210 HD
ENDBRANCH  13  38
TORSDOF 4
ENDMDL
