REMARK  20 active torsions:
REMARK  status: ('A' for Active; 'I' for Inactive)
REMARK    1  A    between atoms: C_4  and  C_3 
REMARK    2  A    between atoms: C_7  and  C_3 
REMARK    3  A    between atoms: C_12  and  C_4 
REMARK    4  A    between atoms: C_32  and  C_7 
REMARK    5  A    between atoms: N_41  and  C_12 
REMARK    6  A    between atoms: C_25  and  C_23 
REMARK    7  A    between atoms: C_33  and  C_23 
REMARK    8  A    between atoms: N_50  and  C_27 
REMARK    9  A    between atoms: N_53  and  C_28 
REMARK   10  A    between atoms: C_36  and  C_32 
REMARK   11  A    between atoms: C_32  and  N_44 
REMARK   12  A    between atoms: C_35  and  C_33 
REMARK   13  A    between atoms: C_33  and  N_48 
REMARK   14  A    between atoms: O_54  and  C_34 
REMARK   15  A    between atoms: N_44  and  C_35 
REMARK   16  A    between atoms: C_35  and  O_55 
REMARK       I    between atoms: N_51  and  C_36 
REMARK   17  A    between atoms: N_48  and  C_37 
REMARK   18  A    between atoms: N_52  and  C_37 
REMARK   19  A    between atoms: C_37  and  O_57 
REMARK   20  A    between atoms: O_58  and  C_38 
ROOT
HETATM    1  C   UNK N   1       8.830   1.118   0.610  0.00  0.00     0.163 C 
ENDROOT
BRANCH   1   2
HETATM    2  C   UNK N   1       9.672   0.241  -0.328  0.00  0.00     0.072 C 
BRANCH   2   3
HETATM    3  C   UNK N   1       9.580  -1.233  -0.113  0.00  0.00    -0.053 A 
HETATM    4  C   UNK N   1      10.763  -1.973  -0.107  0.00  0.00     0.029 A 
HETATM    5  C   UNK N   1      10.729  -3.361   0.022  0.00  0.00     0.045 A 
HETATM    6  C   UNK N   1       9.498  -4.021   0.152  0.00  0.00     0.100 A 
HETATM    7 Br   UNK N   1      12.373  -4.333   0.001  0.00  0.00    -0.048 Br
HETATM    8  C   UNK N   1       8.305  -3.279   0.145  0.00  0.00     0.045 A 
HETATM    9  C   UNK N   1       8.348  -1.888   0.001  0.00  0.00     0.029 A 
HETATM   10 Br   UNK N   1       6.616  -4.152   0.321  0.00  0.00    -0.048 Br
BRANCH   6  11
HETATM   11  O   UNK N   1       9.462  -5.359   0.278  0.00  0.00    -0.358 OA
HETATM   12  H   UNK N   1       8.641  -5.803   0.365  0.00  0.00     0.217 HD
ENDBRANCH   6  11
ENDBRANCH   2   3
ENDBRANCH   1   2
BRANCH   1  13
HETATM   13  C   UNK N   1       9.202   2.547   0.443  0.00  0.00     0.135 C 
BRANCH  13  14
HETATM   14  N   UNK N   1       9.066   3.047  -0.737  0.00  0.00    -0.359 N 
ATOM     15  HN  UNK N   1       9.016   2.357  -1.487  1.00  0.00     0.162 HD
BRANCH  14  16
HETATM   16  C   UNK N   1       8.973   4.414  -1.175  0.00  0.00     0.175 C 
BRANCH  16  17
HETATM   17  C   UNK N   1      10.193   5.317  -0.954  0.00  0.00     0.035 C 
BRANCH  17  18
HETATM   18  C   UNK N   1      10.781   5.409   0.440  0.00  0.00     0.004 C 
BRANCH  18  19
HETATM   19  C   UNK N   1      12.228   5.865   0.358  0.00  0.00     0.019 C 
BRANCH  19  20
HETATM   20  C   UNK N   1      12.335   7.283  -0.180  0.00  0.00     0.111 C 
BRANCH  20  21
HETATM   21  N   UNK N   1      11.823   8.225   0.799  0.00  0.00    -0.430 N 
HETATM   22  H   UNK N   1      12.216   8.867   1.488  0.00  0.00     0.149 HD
HETATM   23  H   UNK N   1      10.804   8.251   0.799  0.00  0.00     0.149 HD
ENDBRANCH  20  21
ENDBRANCH  19  20
ENDBRANCH  18  19
ENDBRANCH  17  18
ENDBRANCH  16  17
BRANCH  16  24
HETATM   24  C   UNK N   1       7.549   4.921  -0.941  0.00  0.00     0.242 C 
HETATM   25  N   UNK N   1       7.103   5.411   0.252  0.00  0.00    -0.347 N 
HETATM   26  C   UNK N   1       5.735   5.879   0.381  0.00  0.00     0.145 C 
HETATM   27  C   UNK N   1       7.986   5.635   1.367  0.00  0.00     0.145 C 
HETATM   28  C   UNK N   1       5.726   7.360   0.792  0.00  0.00     0.143 C 
HETATM   29  N   UNK N   1       7.086   7.865   0.859  0.00  0.00    -0.378 N 
HETATM   30  C   UNK N   1       8.051   7.137   1.668  0.00  0.00     0.143 C 
HETATM   31  O   UNK N   1       6.761   4.840  -1.876  0.00  0.00    -0.271 OA
BRANCH  29  32
HETATM   32  C   UNK N   1       7.480   9.006   0.096  0.00  0.00     0.032 A 
HETATM   33  C   UNK N   1       8.823   9.411   0.058  0.00  0.00     0.046 A 
HETATM   34  C   UNK N   1       9.182  10.554  -0.660  0.00  0.00     0.089 A 
HETATM   35  N   UNK N   1       8.233  11.279  -1.310  0.00  0.00    -0.375 N 
HETATM   36  C   UNK N   1       6.924  10.909  -1.294  0.00  0.00     0.089 A 
ATOM     37  HN  UNK N   1       8.508  12.118  -1.820  1.00  0.00     0.164 HD
HETATM   38  C   UNK N   1       6.526   9.766  -0.597  0.00  0.00     0.046 A 
ENDBRANCH  29  32
ENDBRANCH  16  24
ENDBRANCH  14  16
ENDBRANCH  13  14
BRANCH  13  39
HETATM   39  O   UNK N   1       9.466   3.299   1.527  0.00  0.00    -0.348 OA
HETATM   40  H   UNK N   1      10.011   3.401   2.282  0.00  0.00     0.219 HD
ENDBRANCH  13  39
ENDBRANCH   1  13
BRANCH   1  41
HETATM   41  N   UNK N   1       7.406   1.096   0.310  0.00  0.00    -0.344 N 
ATOM     42  HN  UNK N   1       6.766   1.000   1.098  1.00  0.00     0.164 HD
BRANCH  41  43
HETATM   43  C   UNK N   1       6.876   1.188  -0.874  0.00  0.00     0.215 C 
BRANCH  43  44
HETATM   44  N   UNK N   1       5.469   1.328  -1.009  0.00  0.00    -0.348 N 
HETATM   45  C   UNK N   1       4.817   0.335  -1.805  0.00  0.00     0.128 C 
HETATM   46  C   UNK N   1       4.805  -0.922  -0.943  0.00  0.00     0.045 C 
HETATM   47  C   UNK N   1       4.232  -0.641   0.463  0.00  0.00     0.091 C 
HETATM   48  C   UNK N   1       4.546   0.710   1.135  0.00  0.00     0.045 C 
HETATM   49  C   UNK N   1       4.699   1.825   0.108  0.00  0.00     0.128 C 
BRANCH  47  50
HETATM   50  N   UNK N   1       2.860  -1.041   0.546  0.00  0.00    -0.338 N 
HETATM   51  C   UNK N   1       1.815  -0.143   0.068  0.00  0.00     0.167 A 
HETATM   52  C   UNK N   1       0.487  -0.814  -0.067  0.00  0.00    -0.013 A 
HETATM   53  C   UNK N   1      -0.609  -0.092  -0.548  0.00  0.00     0.011 A 
HETATM   54  C   UNK N   1       0.337  -2.169   0.264  0.00  0.00     0.043 A 
HETATM   55  C   UNK N   1      -1.847  -0.722  -0.708  0.00  0.00     0.001 A 
HETATM   56  C   UNK N   1      -1.989  -2.077  -0.392  0.00  0.00     0.002 A 
HETATM   57  C   UNK N   1      -0.898  -2.798   0.097  0.00  0.00     0.030 A 
HETATM   58  N   UNK N   1       1.432  -2.913   0.762  0.00  0.00    -0.322 N 
HETATM   59  C   UNK N   1       2.597  -2.399   0.899  0.00  0.00     0.220 A 
ATOM     60  HN  UNK N   1       1.289  -3.889   1.021  1.00  0.00     0.169 HD
BRANCH  59  61
HETATM   61  O   UNK N   1       3.607  -3.176   1.352  0.00  0.00    -0.332 OA
HETATM   62  H   UNK N   1       3.490  -4.051   1.666  0.00  0.00     0.220 HD
ENDBRANCH  59  61
ENDBRANCH  47  50
ENDBRANCH  43  44
BRANCH  43  63
HETATM   63  O   UNK N   1       7.637   1.106  -1.989  0.00  0.00    -0.333 OA
HETATM   64  H   UNK N   1       7.851   0.621  -2.761  0.00  0.00     0.220 HD
ENDBRANCH  43  63
ENDBRANCH  41  43
ENDBRANCH   1  41
TORSDOF 20
