MODEL 1
REMARK VINA RESULT:      -6.2      0.000      0.000
REMARK  9 active torsions:
REMARK  status: ('A' for Active; 'I' for Inactive)
REMARK    1  A    between atoms: O_1  and  C_9 
REMARK    2  A    between atoms: O_1  and  C_11 
REMARK    3  A    between atoms: O_2  and  C_22 
REMARK    4  A    between atoms: O_3  and  C_23 
REMARK    5  A    between atoms: N_5  and  C_7 
REMARK    6  A    between atoms: N_6  and  C_10 
REMARK       I    between atoms: N_6  and  C_17 
REMARK    7  A    between atoms: C_7  and  C_9 
REMARK    8  A    between atoms: C_8  and  C_10 
REMARK    9  A    between atoms: C_16  and  C_17 
ROOT
HETATM    1  O   UNK N   1      25.031  22.597  -6.778  0.00  0.00    -0.268 OA
HETATM    2  N   UNK N   1      25.386  24.650  -7.558  0.00  0.00    -0.353 N 
HETATM    3  C   UNK N   1      25.731  23.595  -6.760  0.00  0.00     0.252 C 
HETATM    4  H   UNK N   1      24.507  24.641  -8.002  0.00  0.00     0.163 HD
ENDROOT
BRANCH   2   5
HETATM    5  C   UNK N   1      26.262  25.774  -7.774  0.00  0.00     0.161 C 
BRANCH   5   6
HETATM    6  C   UNK N   1      26.196  26.831  -6.732  0.00  0.00    -0.040 A 
HETATM    7  C   UNK N   1      27.327  27.599  -6.440  0.00  0.00     0.011 A 
HETATM    8  C   UNK N   1      27.336  28.420  -5.311  0.00  0.00     0.037 A 
HETATM    9  C   UNK N   1      26.213  28.474  -4.461  0.00  0.00     0.068 A 
HETATM   10  C   UNK N   1      25.071  27.737  -4.786  0.00  0.00     0.037 A 
HETATM   11  C   UNK N   1      25.069  26.903  -5.908  0.00  0.00     0.011 A 
BRANCH   9  12
HETATM   12  O   UNK N   1      26.233  29.191  -3.312  0.00  0.00    -0.349 OA
BRANCH  12  13
HETATM   13  C   UNK N   1      26.504  30.541  -3.301  0.00  0.00     0.206 C 
BRANCH  13  14
HETATM   14  C   UNK N   1      27.831  30.810  -2.626  0.00  0.00     0.297 C 
BRANCH  14  15
HETATM   15  N   UNK N   1      28.234  29.629  -1.881  0.00  0.00     0.082 N 
HETATM   16  C   UNK N   1      29.600  29.318  -2.267  0.00  0.00     0.309 C 
HETATM   17  C   UNK N   1      28.263  29.994  -0.478  0.00  0.00     0.309 C 
ENDBRANCH  14  15
ENDBRANCH  13  14
ENDBRANCH  12  13
ENDBRANCH   9  12
ENDBRANCH   5   6
ENDBRANCH   2   5
BRANCH   3  18
HETATM   18  C   UNK N   1      26.956  23.604  -5.891  0.00  0.00     0.034 A 
HETATM   19  C   UNK N   1      28.150  23.030  -6.352  0.00  0.00     0.056 A 
HETATM   20  C   UNK N   1      29.311  23.024  -5.562  0.00  0.00     0.102 A 
HETATM   21  C   UNK N   1      29.262  23.581  -4.255  0.00  0.00     0.101 A 
HETATM   22  C   UNK N   1      28.061  24.141  -3.797  0.00  0.00     0.040 A 
HETATM   23  C   UNK N   1      26.933  24.156  -4.606  0.00  0.00     0.020 A 
BRANCH  20  24
HETATM   24  O   UNK N   1      30.435  22.478  -6.100  0.00  0.00    -0.353 OA
HETATM   25  C   UNK N   1      30.703  22.366  -7.445  0.00  0.00     0.210 C 
ENDBRANCH  20  24
BRANCH  21  26
HETATM   26  O   UNK N   1      30.356  23.571  -3.453  0.00  0.00    -0.353 OA
HETATM   27  C   UNK N   1      30.419  22.877  -2.263  0.00  0.00     0.210 C 
ENDBRANCH  21  26
ENDBRANCH   3  18
TORSDOF 9
ENDMDL
MODEL 2
REMARK VINA RESULT:      -6.1     12.160     16.416
REMARK  9 active torsions:
REMARK  status: ('A' for Active; 'I' for Inactive)
REMARK    1  A    between atoms: O_1  and  C_9 
REMARK    2  A    between atoms: O_1  and  C_11 
REMARK    3  A    between atoms: O_2  and  C_22 
REMARK    4  A    between atoms: O_3  and  C_23 
REMARK    5  A    between atoms: N_5  and  C_7 
REMARK    6  A    between atoms: N_6  and  C_10 
REMARK       I    between atoms: N_6  and  C_17 
REMARK    7  A    between atoms: C_7  and  C_9 
REMARK    8  A    between atoms: C_8  and  C_10 
REMARK    9  A    between atoms: C_16  and  C_17 
ROOT
HETATM    1  O   UNK N   1      27.731  17.087   9.515  0.00  0.00    -0.268 OA
HETATM    2  N   UNK N   1      29.868  17.699   9.465  0.00  0.00    -0.353 N 
HETATM    3  C   UNK N   1      28.623  17.652   8.904  0.00  0.00     0.252 C 
HETATM    4  H   UNK N   1      30.052  17.148  10.260  0.00  0.00     0.163 HD
ENDROOT
BRANCH   2   5
HETATM    5  C   UNK N   1      30.923  18.528   8.935  0.00  0.00     0.161 C 
BRANCH   5   6
HETATM    6  C   UNK N   1      32.038  17.789   8.289  0.00  0.00    -0.040 A 
HETATM    7  C   UNK N   1      33.323  18.336   8.270  0.00  0.00     0.011 A 
HETATM    8  C   UNK N   1      34.310  17.762   7.465  0.00  0.00     0.037 A 
HETATM    9  C   UNK N   1      34.016  16.638   6.669  0.00  0.00     0.068 A 
HETATM   10  C   UNK N   1      32.739  16.071   6.729  0.00  0.00     0.037 A 
HETATM   11  C   UNK N   1      31.748  16.655   7.523  0.00  0.00     0.011 A 
BRANCH   9  12
HETATM   12  O   UNK N   1      34.929  16.121   5.813  0.00  0.00    -0.349 OA
BRANCH  12  13
HETATM   13  C   UNK N   1      35.135  14.765   5.700  0.00  0.00     0.206 C 
BRANCH  13  14
HETATM   14  C   UNK N   1      36.402  14.358   6.420  0.00  0.00     0.297 C 
BRANCH  14  15
HETATM   15  N   UNK N   1      36.066  13.438   7.492  0.00  0.00     0.082 N 
HETATM   16  C   UNK N   1      35.931  14.220   8.710  0.00  0.00     0.309 C 
HETATM   17  C   UNK N   1      34.757  12.888   7.195  0.00  0.00     0.309 C 
ENDBRANCH  14  15
ENDBRANCH  13  14
ENDBRANCH  12  13
ENDBRANCH   9  12
ENDBRANCH   5   6
ENDBRANCH   2   5
BRANCH   3  18
HETATM   18  C   UNK N   1      28.302  18.299   7.588  0.00  0.00     0.034 A 
HETATM   19  C   UNK N   1      28.520  17.602   6.390  0.00  0.00     0.056 A 
HETATM   20  C   UNK N   1      28.230  18.182   5.144  0.00  0.00     0.102 A 
HETATM   21  C   UNK N   1      27.738  19.515   5.098  0.00  0.00     0.101 A 
HETATM   22  C   UNK N   1      27.536  20.209   6.299  0.00  0.00     0.040 A 
HETATM   23  C   UNK N   1      27.808  19.606   7.520  0.00  0.00     0.020 A 
BRANCH  20  24
HETATM   24  O   UNK N   1      28.438  17.424   4.034  0.00  0.00    -0.353 OA
HETATM   25  C   UNK N   1      27.524  16.559   3.475  0.00  0.00     0.210 C 
ENDBRANCH  20  24
BRANCH  21  26
HETATM   26  O   UNK N   1      27.470  20.117   3.913  0.00  0.00    -0.353 OA
HETATM   27  C   UNK N   1      26.204  20.203   3.374  0.00  0.00     0.210 C 
ENDBRANCH  21  26
ENDBRANCH   3  18
TORSDOF 9
ENDMDL
MODEL 3
REMARK VINA RESULT:      -6.0     16.356     20.713
REMARK  9 active torsions:
REMARK  status: ('A' for Active; 'I' for Inactive)
REMARK    1  A    between atoms: O_1  and  C_9 
REMARK    2  A    between atoms: O_1  and  C_11 
REMARK    3  A    between atoms: O_2  and  C_22 
REMARK    4  A    between atoms: O_3  and  C_23 
REMARK    5  A    between atoms: N_5  and  C_7 
REMARK    6  A    between atoms: N_6  and  C_10 
REMARK       I    between atoms: N_6  and  C_17 
REMARK    7  A    between atoms: C_7  and  C_9 
REMARK    8  A    between atoms: C_8  and  C_10 
REMARK    9  A    between atoms: C_16  and  C_17 
ROOT
HETATM    1  O   UNK N   1      35.003  19.224   8.313  0.00  0.00    -0.268 OA
HETATM    2  N   UNK N   1      34.951  17.315   9.454  0.00  0.00    -0.353 N 
HETATM    3  C   UNK N   1      34.434  18.165   8.516  0.00  0.00     0.252 C 
HETATM    4  H   UNK N   1      35.667  17.642  10.046  0.00  0.00     0.163 HD
ENDROOT
BRANCH   2   5
HETATM    5  C   UNK N   1      34.487  15.959   9.606  0.00  0.00     0.161 C 
BRANCH   5   6
HETATM    6  C   UNK N   1      35.250  15.140  10.585  0.00  0.00    -0.040 A 
HETATM    7  C   UNK N   1      35.474  13.783  10.339  0.00  0.00     0.011 A 
HETATM    8  C   UNK N   1      35.976  12.968  11.356  0.00  0.00     0.037 A 
HETATM    9  C   UNK N   1      36.254  13.505  12.628  0.00  0.00     0.068 A 
HETATM   10  C   UNK N   1      36.069  14.872  12.850  0.00  0.00     0.037 A 
HETATM   11  C   UNK N   1      35.551  15.684  11.837  0.00  0.00     0.011 A 
BRANCH   9  12
HETATM   12  O   UNK N   1      36.654  12.717  13.654  0.00  0.00    -0.349 OA
BRANCH  12  13
HETATM   13  C   UNK N   1      35.803  12.365  14.677  0.00  0.00     0.206 C 
BRANCH  13  14
HETATM   14  C   UNK N   1      36.035  13.242  15.887  0.00  0.00     0.297 C 
BRANCH  14  15
HETATM   15  N   UNK N   1      35.022  12.952  16.887  0.00  0.00     0.082 N 
HETATM   16  C   UNK N   1      35.284  11.616  17.395  0.00  0.00     0.309 C 
HETATM   17  C   UNK N   1      35.227  13.872  17.989  0.00  0.00     0.309 C 
ENDBRANCH  14  15
ENDBRANCH  13  14
ENDBRANCH  12  13
ENDBRANCH   9  12
ENDBRANCH   5   6
ENDBRANCH   2   5
BRANCH   3  18
HETATM   18  C   UNK N   1      33.217  17.829   7.703  0.00  0.00     0.034 A 
HETATM   19  C   UNK N   1      31.948  17.827   8.303  0.00  0.00     0.056 A 
HETATM   20  C   UNK N   1      30.793  17.516   7.568  0.00  0.00     0.102 A 
HETATM   21  C   UNK N   1      30.919  17.164   6.196  0.00  0.00     0.101 A 
HETATM   22  C   UNK N   1      32.191  17.155   5.608  0.00  0.00     0.040 A 
HETATM   23  C   UNK N   1      33.316  17.489   6.350  0.00  0.00     0.020 A 
BRANCH  20  24
HETATM   24  O   UNK N   1      29.600  17.572   8.218  0.00  0.00    -0.353 OA
HETATM   25  C   UNK N   1      29.354  18.271   9.378  0.00  0.00     0.210 C 
ENDBRANCH  20  24
BRANCH  21  26
HETATM   26  O   UNK N   1      29.828  16.834   5.459  0.00  0.00    -0.353 OA
HETATM   27  C   UNK N   1      29.879  16.013   4.353  0.00  0.00     0.210 C 
ENDBRANCH  21  26
ENDBRANCH   3  18
TORSDOF 9
ENDMDL
MODEL 4
REMARK VINA RESULT:      -5.9     16.332     20.677
REMARK  9 active torsions:
REMARK  status: ('A' for Active; 'I' for Inactive)
REMARK    1  A    between atoms: O_1  and  C_9 
REMARK    2  A    between atoms: O_1  and  C_11 
REMARK    3  A    between atoms: O_2  and  C_22 
REMARK    4  A    between atoms: O_3  and  C_23 
REMARK    5  A    between atoms: N_5  and  C_7 
REMARK    6  A    between atoms: N_6  and  C_10 
REMARK       I    between atoms: N_6  and  C_17 
REMARK    7  A    between atoms: C_7  and  C_9 
REMARK    8  A    between atoms: C_8  and  C_10 
REMARK    9  A    between atoms: C_16  and  C_17 
ROOT
HETATM    1  O   UNK N   1      35.214  19.137   8.403  0.00  0.00    -0.268 OA
HETATM    2  N   UNK N   1      35.005  17.312   9.657  0.00  0.00    -0.353 N 
HETATM    3  C   UNK N   1      34.605  18.103   8.616  0.00  0.00     0.252 C 
HETATM    4  H   UNK N   1      35.663  17.668  10.298  0.00  0.00     0.163 HD
ENDROOT
BRANCH   2   5
HETATM    5  C   UNK N   1      34.499  15.976   9.850  0.00  0.00     0.161 C 
BRANCH   5   6
HETATM    6  C   UNK N   1      35.321  15.116  10.740  0.00  0.00    -0.040 A 
HETATM    7  C   UNK N   1      35.667  13.822  10.340  0.00  0.00     0.011 A 
HETATM    8  C   UNK N   1      36.230  12.937  11.262  0.00  0.00     0.037 A 
HETATM    9  C   UNK N   1      36.446  13.340  12.595  0.00  0.00     0.068 A 
HETATM   10  C   UNK N   1      36.138  14.650  12.974  0.00  0.00     0.037 A 
HETATM   11  C   UNK N   1      35.561  15.529  12.054  0.00  0.00     0.011 A 
BRANCH   9  12
HETATM   12  O   UNK N   1      36.905  12.472  13.528  0.00  0.00    -0.349 OA
BRANCH  12  13
HETATM   13  C   UNK N   1      36.870  12.764  14.873  0.00  0.00     0.206 C 
BRANCH  13  14
HETATM   14  C   UNK N   1      36.539  11.526  15.677  0.00  0.00     0.297 C 
BRANCH  14  15
HETATM   15  N   UNK N   1      35.267  11.723  16.350  0.00  0.00     0.082 N 
HETATM   16  C   UNK N   1      35.376  11.120  17.668  0.00  0.00     0.309 C 
HETATM   17  C   UNK N   1      35.101  13.149  16.550  0.00  0.00     0.309 C 
ENDBRANCH  14  15
ENDBRANCH  13  14
ENDBRANCH  12  13
ENDBRANCH   9  12
ENDBRANCH   5   6
ENDBRANCH   2   5
BRANCH   3  18
HETATM   18  C   UNK N   1      33.471  17.730   7.706  0.00  0.00     0.034 A 
HETATM   19  C   UNK N   1      33.716  17.457   6.352  0.00  0.00     0.056 A 
HETATM   20  C   UNK N   1      32.676  17.106   5.477  0.00  0.00     0.102 A 
HETATM   21  C   UNK N   1      31.342  17.062   5.969  0.00  0.00     0.101 A 
HETATM   22  C   UNK N   1      31.104  17.350   7.320  0.00  0.00     0.040 A 
HETATM   23  C   UNK N   1      32.153  17.671   8.171  0.00  0.00     0.020 A 
BRANCH  20  24
HETATM   24  O   UNK N   1      33.006  16.823   4.188  0.00  0.00    -0.353 OA
HETATM   25  C   UNK N   1      33.574  15.648   3.749  0.00  0.00     0.210 C 
ENDBRANCH  20  24
BRANCH  21  26
HETATM   26  O   UNK N   1      30.307  16.752   5.148  0.00  0.00    -0.353 OA
HETATM   27  C   UNK N   1      29.013  17.176   5.364  0.00  0.00     0.210 C 
ENDBRANCH  21  26
ENDBRANCH   3  18
TORSDOF 9
ENDMDL
MODEL 5
REMARK VINA RESULT:      -5.9      0.989      2.051
REMARK  9 active torsions:
REMARK  status: ('A' for Active; 'I' for Inactive)
REMARK    1  A    between atoms: O_1  and  C_9 
REMARK    2  A    between atoms: O_1  and  C_11 
REMARK    3  A    between atoms: O_2  and  C_22 
REMARK    4  A    between atoms: O_3  and  C_23 
REMARK    5  A    between atoms: N_5  and  C_7 
REMARK    6  A    between atoms: N_6  and  C_10 
REMARK       I    between atoms: N_6  and  C_17 
REMARK    7  A    between atoms: C_7  and  C_9 
REMARK    8  A    between atoms: C_8  and  C_10 
REMARK    9  A    between atoms: C_16  and  C_17 
ROOT
HETATM    1  O   UNK N   1      25.053  22.593  -6.714  0.00  0.00    -0.268 OA
HETATM    2  N   UNK N   1      25.350  24.741  -7.208  0.00  0.00    -0.353 N 
HETATM    3  C   UNK N   1      25.815  23.545  -6.736  0.00  0.00     0.252 C 
HETATM    4  H   UNK N   1      24.384  24.846  -7.367  0.00  0.00     0.163 HD
ENDROOT
BRANCH   2   5
HETATM    5  C   UNK N   1      26.225  25.854  -7.482  0.00  0.00     0.161 C 
BRANCH   5   6
HETATM    6  C   UNK N   1      26.230  26.918  -6.445  0.00  0.00    -0.040 A 
HETATM    7  C   UNK N   1      27.361  27.721  -6.271  0.00  0.00     0.011 A 
HETATM    8  C   UNK N   1      27.456  28.552  -5.153  0.00  0.00     0.037 A 
HETATM    9  C   UNK N   1      26.422  28.582  -4.197  0.00  0.00     0.068 A 
HETATM   10  C   UNK N   1      25.275  27.809  -4.403  0.00  0.00     0.037 A 
HETATM   11  C   UNK N   1      25.188  26.966  -5.514  0.00  0.00     0.011 A 
BRANCH   9  12
HETATM   12  O   UNK N   1      26.532  29.310  -3.061  0.00  0.00    -0.349 OA
BRANCH  12  13
HETATM   13  C   UNK N   1      27.729  29.439  -2.392  0.00  0.00     0.206 C 
BRANCH  13  14
HETATM   14  C   UNK N   1      27.836  30.806  -1.754  0.00  0.00     0.297 C 
BRANCH  14  15
HETATM   15  N   UNK N   1      28.840  30.764  -0.705  0.00  0.00     0.082 N 
HETATM   16  C   UNK N   1      28.236  30.118   0.448  0.00  0.00     0.309 C 
HETATM   17  C   UNK N   1      29.908  29.898  -1.164  0.00  0.00     0.309 C 
ENDBRANCH  14  15
ENDBRANCH  13  14
ENDBRANCH  12  13
ENDBRANCH   9  12
ENDBRANCH   5   6
ENDBRANCH   2   5
BRANCH   3  18
HETATM   18  C   UNK N   1      27.232  23.349  -6.280  0.00  0.00     0.034 A 
HETATM   19  C   UNK N   1      27.606  23.699  -4.974  0.00  0.00     0.056 A 
HETATM   20  C   UNK N   1      28.923  23.528  -4.520  0.00  0.00     0.102 A 
HETATM   21  C   UNK N   1      29.904  23.021  -5.417  0.00  0.00     0.101 A 
HETATM   22  C   UNK N   1      29.525  22.685  -6.724  0.00  0.00     0.040 A 
HETATM   23  C   UNK N   1      28.210  22.842  -7.141  0.00  0.00     0.020 A 
BRANCH  20  24
HETATM   24  O   UNK N   1      29.192  23.861  -3.229  0.00  0.00    -0.353 OA
HETATM   25  C   UNK N   1      29.050  23.027  -2.144  0.00  0.00     0.210 C 
ENDBRANCH  20  24
BRANCH  21  26
HETATM   26  O   UNK N   1      31.193  22.864  -5.022  0.00  0.00    -0.353 OA
HETATM   27  C   UNK N   1      31.900  21.693  -5.187  0.00  0.00     0.210 C 
ENDBRANCH  21  26
ENDBRANCH   3  18
TORSDOF 9
ENDMDL
MODEL 6
REMARK VINA RESULT:      -5.9     11.336     14.389
REMARK  9 active torsions:
REMARK  status: ('A' for Active; 'I' for Inactive)
REMARK    1  A    between atoms: O_1  and  C_9 
REMARK    2  A    between atoms: O_1  and  C_11 
REMARK    3  A    between atoms: O_2  and  C_22 
REMARK    4  A    between atoms: O_3  and  C_23 
REMARK    5  A    between atoms: N_5  and  C_7 
REMARK    6  A    between atoms: N_6  and  C_10 
REMARK       I    between atoms: N_6  and  C_17 
REMARK    7  A    between atoms: C_7  and  C_9 
REMARK    8  A    between atoms: C_8  and  C_10 
REMARK    9  A    between atoms: C_16  and  C_17 
ROOT
HETATM    1  O   UNK N   1      27.797  17.309   9.707  0.00  0.00    -0.268 OA
HETATM    2  N   UNK N   1      27.553  19.047   8.341  0.00  0.00    -0.353 N 
HETATM    3  C   UNK N   1      28.280  17.993   8.821  0.00  0.00     0.252 C 
HETATM    4  H   UNK N   1      26.740  19.322   8.824  0.00  0.00     0.163 HD
ENDROOT
BRANCH   2   5
HETATM    5  C   UNK N   1      27.934  19.771   7.154  0.00  0.00     0.161 C 
BRANCH   5   6
HETATM    6  C   UNK N   1      27.018  19.602   5.995  0.00  0.00    -0.040 A 
HETATM    7  C   UNK N   1      26.417  20.719   5.409  0.00  0.00     0.011 A 
HETATM    8  C   UNK N   1      25.383  20.547   4.486  0.00  0.00     0.037 A 
HETATM    9  C   UNK N   1      24.941  19.254   4.146  0.00  0.00     0.068 A 
HETATM   10  C   UNK N   1      25.578  18.142   4.704  0.00  0.00     0.037 A 
HETATM   11  C   UNK N   1      26.602  18.316   5.640  0.00  0.00     0.011 A 
BRANCH   9  12
HETATM   12  O   UNK N   1      23.881  19.065   3.324  0.00  0.00    -0.349 OA
BRANCH  12  13
HETATM   13  C   UNK N   1      22.717  18.475   3.762  0.00  0.00     0.206 C 
BRANCH  13  14
HETATM   14  C   UNK N   1      21.557  19.439   3.646  0.00  0.00     0.297 C 
BRANCH  14  15
HETATM   15  N   UNK N   1      20.868  19.206   2.389  0.00  0.00     0.082 N 
HETATM   16  C   UNK N   1      19.446  19.126   2.680  0.00  0.00     0.309 C 
HETATM   17  C   UNK N   1      21.065  20.382   1.564  0.00  0.00     0.309 C 
ENDBRANCH  14  15
ENDBRANCH  13  14
ENDBRANCH  12  13
ENDBRANCH   9  12
ENDBRANCH   5   6
ENDBRANCH   2   5
BRANCH   3  18
HETATM   18  C   UNK N   1      29.628  17.624   8.273  0.00  0.00     0.034 A 
HETATM   19  C   UNK N   1      29.733  16.699   7.223  0.00  0.00     0.056 A 
HETATM   20  C   UNK N   1      30.980  16.335   6.692  0.00  0.00     0.102 A 
HETATM   21  C   UNK N   1      32.162  16.890   7.256  0.00  0.00     0.101 A 
HETATM   22  C   UNK N   1      32.050  17.802   8.313  0.00  0.00     0.040 A 
HETATM   23  C   UNK N   1      30.803  18.165   8.805  0.00  0.00     0.020 A 
BRANCH  20  24
HETATM   24  O   UNK N   1      30.989  15.459   5.651  0.00  0.00    -0.353 OA
HETATM   25  C   UNK N   1      29.877  15.011   4.975  0.00  0.00     0.210 C 
ENDBRANCH  20  24
BRANCH  21  26
HETATM   26  O   UNK N   1      33.386  16.542   6.785  0.00  0.00    -0.353 OA
HETATM   27  C   UNK N   1      34.559  16.794   7.464  0.00  0.00     0.210 C 
ENDBRANCH  21  26
ENDBRANCH   3  18
TORSDOF 9
ENDMDL
MODEL 7
REMARK VINA RESULT:      -5.9     13.339     17.342
REMARK  9 active torsions:
REMARK  status: ('A' for Active; 'I' for Inactive)
REMARK    1  A    between atoms: O_1  and  C_9 
REMARK    2  A    between atoms: O_1  and  C_11 
REMARK    3  A    between atoms: O_2  and  C_22 
REMARK    4  A    between atoms: O_3  and  C_23 
REMARK    5  A    between atoms: N_5  and  C_7 
REMARK    6  A    between atoms: N_6  and  C_10 
REMARK       I    between atoms: N_6  and  C_17 
REMARK    7  A    between atoms: C_7  and  C_9 
REMARK    8  A    between atoms: C_8  and  C_10 
REMARK    9  A    between atoms: C_16  and  C_17 
ROOT
HETATM    1  O   UNK N   1      29.541  14.522   5.550  0.00  0.00    -0.268 OA
HETATM    2  N   UNK N   1      31.502  15.522   5.232  0.00  0.00    -0.353 N 
HETATM    3  C   UNK N   1      30.167  15.568   5.524  0.00  0.00     0.252 C 
HETATM    4  H   UNK N   1      31.886  14.679   4.898  0.00  0.00     0.163 HD
ENDROOT
BRANCH   2   5
HETATM    5  C   UNK N   1      32.367  16.664   5.397  0.00  0.00     0.161 C 
BRANCH   5   6
HETATM    6  C   UNK N   1      32.987  16.793   6.741  0.00  0.00    -0.040 A 
HETATM    7  C   UNK N   1      33.283  18.057   7.258  0.00  0.00     0.011 A 
HETATM    8  C   UNK N   1      34.074  18.171   8.403  0.00  0.00     0.037 A 
HETATM    9  C   UNK N   1      34.578  17.020   9.038  0.00  0.00     0.068 A 
HETATM   10  C   UNK N   1      34.240  15.758   8.540  0.00  0.00     0.037 A 
HETATM   11  C   UNK N   1      33.462  15.646   7.384  0.00  0.00     0.011 A 
BRANCH   9  12
HETATM   12  O   UNK N   1      35.421  17.108  10.095  0.00  0.00    -0.349 OA
BRANCH  12  13
HETATM   13  C   UNK N   1      36.057  16.003  10.614  0.00  0.00     0.206 C 
BRANCH  13  14
HETATM   14  C   UNK N   1      35.518  15.678  11.989  0.00  0.00     0.297 C 
BRANCH  14  15
HETATM   15  N   UNK N   1      35.625  14.247  12.216  0.00  0.00     0.082 N 
HETATM   16  C   UNK N   1      36.462  13.701  11.161  0.00  0.00     0.309 C 
HETATM   17  C   UNK N   1      36.341  14.060  13.464  0.00  0.00     0.309 C 
ENDBRANCH  14  15
ENDBRANCH  13  14
ENDBRANCH  12  13
ENDBRANCH   9  12
ENDBRANCH   5   6
ENDBRANCH   2   5
BRANCH   3  18
HETATM   18  C   UNK N   1      29.453  16.848   5.851  0.00  0.00     0.034 A 
HETATM   19  C   UNK N   1      29.291  17.242   7.187  0.00  0.00     0.056 A 
HETATM   20  C   UNK N   1      28.627  18.433   7.522  0.00  0.00     0.102 A 
HETATM   21  C   UNK N   1      28.079  19.236   6.484  0.00  0.00     0.101 A 
HETATM   22  C   UNK N   1      28.234  18.828   5.152  0.00  0.00     0.040 A 
HETATM   23  C   UNK N   1      28.915  17.658   4.845  0.00  0.00     0.020 A 
BRANCH  20  24
HETATM   24  O   UNK N   1      28.546  18.759   8.840  0.00  0.00    -0.353 OA
HETATM   25  C   UNK N   1      29.491  18.464   9.796  0.00  0.00     0.210 C 
ENDBRANCH  20  24
BRANCH  21  26
HETATM   26  O   UNK N   1      27.409  20.381   6.770  0.00  0.00    -0.353 OA
HETATM   27  C   UNK N   1      26.561  21.006   5.882  0.00  0.00     0.210 C 
ENDBRANCH  21  26
ENDBRANCH   3  18
TORSDOF 9
ENDMDL
MODEL 8
REMARK VINA RESULT:      -5.8     15.690     19.859
REMARK  9 active torsions:
REMARK  status: ('A' for Active; 'I' for Inactive)
REMARK    1  A    between atoms: O_1  and  C_9 
REMARK    2  A    between atoms: O_1  and  C_11 
REMARK    3  A    between atoms: O_2  and  C_22 
REMARK    4  A    between atoms: O_3  and  C_23 
REMARK    5  A    between atoms: N_5  and  C_7 
REMARK    6  A    between atoms: N_6  and  C_10 
REMARK       I    between atoms: N_6  and  C_17 
REMARK    7  A    between atoms: C_7  and  C_9 
REMARK    8  A    between atoms: C_8  and  C_10 
REMARK    9  A    between atoms: C_16  and  C_17 
ROOT
HETATM    1  O   UNK N   1      34.187  17.886   5.787  0.00  0.00    -0.268 OA
HETATM    2  N   UNK N   1      34.581  16.213   7.197  0.00  0.00    -0.353 N 
HETATM    3  C   UNK N   1      33.748  17.150   6.654  0.00  0.00     0.252 C 
HETATM    4  H   UNK N   1      35.543  16.257   6.993  0.00  0.00     0.163 HD
ENDROOT
BRANCH   2   5
HETATM    5  C   UNK N   1      34.101  15.159   8.057  0.00  0.00     0.161 C 
BRANCH   5   6
HETATM    6  C   UNK N   1      34.817  15.033   9.354  0.00  0.00    -0.040 A 
HETATM    7  C   UNK N   1      35.027  13.771   9.917  0.00  0.00     0.011 A 
HETATM    8  C   UNK N   1      35.481  13.666  11.234  0.00  0.00     0.037 A 
HETATM    9  C   UNK N   1      35.724  14.824  11.998  0.00  0.00     0.068 A 
HETATM   10  C   UNK N   1      35.554  16.082  11.411  0.00  0.00     0.037 A 
HETATM   11  C   UNK N   1      35.084  16.185  10.098  0.00  0.00     0.011 A 
BRANCH   9  12
HETATM   12  O   UNK N   1      36.077  14.747  13.303  0.00  0.00    -0.349 OA
BRANCH  12  13
HETATM   13  C   UNK N   1      36.350  13.544  13.913  0.00  0.00     0.206 C 
BRANCH  13  14
HETATM   14  C   UNK N   1      36.342  13.698  15.419  0.00  0.00     0.297 C 
BRANCH  14  15
HETATM   15  N   UNK N   1      35.003  13.437  15.917  0.00  0.00     0.082 N 
HETATM   16  C   UNK N   1      34.562  12.179  15.339  0.00  0.00     0.309 C 
HETATM   17  C   UNK N   1      35.108  13.231  17.349  0.00  0.00     0.309 C 
ENDBRANCH  14  15
ENDBRANCH  13  14
ENDBRANCH  12  13
ENDBRANCH   9  12
ENDBRANCH   5   6
ENDBRANCH   2   5
BRANCH   3  18
HETATM   18  C   UNK N   1      32.308  17.284   7.057  0.00  0.00     0.034 A 
HETATM   19  C   UNK N   1      31.290  16.914   6.165  0.00  0.00     0.056 A 
HETATM   20  C   UNK N   1      29.935  17.029   6.514  0.00  0.00     0.102 A 
HETATM   21  C   UNK N   1      29.590  17.564   7.786  0.00  0.00     0.101 A 
HETATM   22  C   UNK N   1      30.612  17.944   8.666  0.00  0.00     0.040 A 
HETATM   23  C   UNK N   1      31.946  17.798   8.306  0.00  0.00     0.020 A 
BRANCH  20  24
HETATM   24  O   UNK N   1      29.013  16.615   5.603  0.00  0.00    -0.353 OA
HETATM   25  C   UNK N   1      28.458  15.357   5.544  0.00  0.00     0.210 C 
ENDBRANCH  20  24
BRANCH  21  26
HETATM   26  O   UNK N   1      28.291  17.713   8.149  0.00  0.00    -0.353 OA
HETATM   27  C   UNK N   1      27.838  17.537   9.439  0.00  0.00     0.210 C 
ENDBRANCH  21  26
ENDBRANCH   3  18
TORSDOF 9
ENDMDL
MODEL 9
REMARK VINA RESULT:      -5.7     14.487     18.265
REMARK  9 active torsions:
REMARK  status: ('A' for Active; 'I' for Inactive)
REMARK    1  A    between atoms: O_1  and  C_9 
REMARK    2  A    between atoms: O_1  and  C_11 
REMARK    3  A    between atoms: O_2  and  C_22 
REMARK    4  A    between atoms: O_3  and  C_23 
REMARK    5  A    between atoms: N_5  and  C_7 
REMARK    6  A    between atoms: N_6  and  C_10 
REMARK       I    between atoms: N_6  and  C_17 
REMARK    7  A    between atoms: C_7  and  C_9 
REMARK    8  A    between atoms: C_8  and  C_10 
REMARK    9  A    between atoms: C_16  and  C_17 
ROOT
HETATM    1  O   UNK N   1      35.642  17.704  10.199  0.00  0.00    -0.268 OA
HETATM    2  N   UNK N   1      33.788  17.155   9.101  0.00  0.00    -0.353 N 
HETATM    3  C   UNK N   1      34.886  16.817   9.841  0.00  0.00     0.252 C 
HETATM    4  H   UNK N   1      33.718  18.071   8.746  0.00  0.00     0.163 HD
ENDROOT
BRANCH   2   5
HETATM    5  C   UNK N   1      32.726  16.219   8.824  0.00  0.00     0.161 C 
BRANCH   5   6
HETATM    6  C   UNK N   1      31.615  16.757   7.996  0.00  0.00    -0.040 A 
HETATM    7  C   UNK N   1      30.518  17.369   8.609  0.00  0.00     0.011 A 
HETATM    8  C   UNK N   1      29.376  17.658   7.859  0.00  0.00     0.037 A 
HETATM    9  C   UNK N   1      29.322  17.331   6.490  0.00  0.00     0.068 A 
HETATM   10  C   UNK N   1      30.441  16.761   5.876  0.00  0.00     0.037 A 
HETATM   11  C   UNK N   1      31.577  16.458   6.631  0.00  0.00     0.011 A 
BRANCH   9  12
HETATM   12  O   UNK N   1      28.193  17.518   5.765  0.00  0.00    -0.349 OA
BRANCH  12  13
HETATM   13  C   UNK N   1      27.402  18.633   5.922  0.00  0.00     0.206 C 
BRANCH  13  14
HETATM   14  C   UNK N   1      27.988  19.810   5.173  0.00  0.00     0.297 C 
BRANCH  14  15
HETATM   15  N   UNK N   1      26.963  20.826   5.007  0.00  0.00     0.082 N 
HETATM   16  C   UNK N   1      25.683  20.142   4.924  0.00  0.00     0.309 C 
HETATM   17  C   UNK N   1      26.941  21.619   6.220  0.00  0.00     0.309 C 
ENDBRANCH  14  15
ENDBRANCH  13  14
ENDBRANCH  12  13
ENDBRANCH   9  12
ENDBRANCH   5   6
ENDBRANCH   2   5
BRANCH   3  18
HETATM   18  C   UNK N   1      35.178  15.405  10.258  0.00  0.00     0.034 A 
HETATM   19  C   UNK N   1      34.852  14.972  11.553  0.00  0.00     0.056 A 
HETATM   20  C   UNK N   1      35.113  13.658  11.971  0.00  0.00     0.102 A 
HETATM   21  C   UNK N   1      35.753  12.759  11.074  0.00  0.00     0.101 A 
HETATM   22  C   UNK N   1      36.088  13.203   9.787  0.00  0.00     0.040 A 
HETATM   23  C   UNK N   1      35.797  14.501   9.389  0.00  0.00     0.020 A 
BRANCH  20  24
HETATM   24  O   UNK N   1      34.733  13.311  13.230  0.00  0.00    -0.353 OA
HETATM   25  C   UNK N   1      35.505  13.441  14.362  0.00  0.00     0.210 C 
ENDBRANCH  20  24
BRANCH  21  26
HETATM   26  O   UNK N   1      36.044  11.489  11.451  0.00  0.00    -0.353 OA
HETATM   27  C   UNK N   1      35.384  10.382  10.962  0.00  0.00     0.210 C 
ENDBRANCH  21  26
ENDBRANCH   3  18
TORSDOF 9
ENDMDL
