MODEL 1
REMARK VINA RESULT:      -7.6      0.000      0.000
REMARK  8 active torsions:
REMARK  status: ('A' for Active; 'I' for Inactive)
REMARK    1  A    between atoms: C_12  and  O_2 
REMARK    2  A    between atoms: O_2  and  C_16 
REMARK    3  A    between atoms: O_4  and  C_26 
REMARK       I    between atoms: N_7  and  C_16 
REMARK    4  A    between atoms: N_7  and  C_17 
REMARK    5  A    between atoms: N_8  and  C_20 
REMARK       I    between atoms: N_8  and  C_30 
REMARK    6  A    between atoms: N_9  and  C_24 
REMARK       I    between atoms: N_9  and  C_30 
REMARK    7  A    between atoms: C_17  and  C_18 
REMARK    8  A    between atoms: C_25  and  C_31 
ROOT
HETATM    1  O   UNK N   1      29.697  18.467   9.962  0.00  0.00    -0.247 OA
HETATM    2  N   UNK N   1      28.208  19.037   8.415  0.00  0.00    -0.309 N 
HETATM    3  N   UNK N   1      30.159  17.830   7.856  0.00  0.00    -0.309 N 
HETATM    4  C   UNK N   1      29.369  18.438   8.790  0.00  0.00     0.325 C 
HETATM    5  H   UNK N   1      27.577  19.299   9.124  0.00  0.00     0.170 HD
HETATM    6  H   UNK N   1      29.831  17.811   6.927  0.00  0.00     0.170 HD
ENDROOT
BRANCH   2   7
HETATM    7  C   UNK N   1      27.844  19.311   7.071  0.00  0.00     0.036 A 
HETATM    8  C   UNK N   1      27.940  18.318   6.086  0.00  0.00     0.038 A 
HETATM    9  C   UNK N   1      27.657  18.610   4.748  0.00  0.00    -0.038 A 
HETATM   10  C   UNK N   1      27.287  19.911   4.389  0.00  0.00     0.009 A 
HETATM   11  C   UNK N   1      27.202  20.909   5.366  0.00  0.00     0.003 A 
HETATM   12  C   UNK N   1      27.499  20.614   6.701  0.00  0.00     0.029 A 
BRANCH   9  13
HETATM   13  C   UNK N   1      27.870  17.577   3.691  0.00  0.00     0.163 C 
BRANCH  13  14
HETATM   14  N   UNK N   1      27.676  16.246   4.216  0.00  0.00    -0.333 N 
HETATM   15  C   UNK N   1      28.673  15.338   4.204  0.00  0.00     0.361 C 
HETATM   16  O   UNK N   1      28.469  14.217   4.648  0.00  0.00    -0.238 OA
HETATM   17  H   UNK N   1      26.800  15.996   4.589  0.00  0.00     0.165 HD
BRANCH  15  18
HETATM   18  O   UNK N   1      29.892  15.679   3.709  0.00  0.00    -0.296 OA
BRANCH  18  19
HETATM   19  C   UNK N   1      31.041  15.785   4.466  0.00  0.00     0.159 C 
HETATM   20  C   UNK N   1      31.592  17.184   4.419  0.00  0.00     0.061 C 
HETATM   21  C   UNK N   1      32.611  17.138   3.296  0.00  0.00     0.170 C 
HETATM   22  O   UNK N   1      32.595  15.852   2.731  0.00  0.00    -0.389 OA
HETATM   23  C   UNK N   1      32.131  15.024   3.761  0.00  0.00     0.200 C 
ENDBRANCH  18  19
ENDBRANCH  15  18
ENDBRANCH  13  14
ENDBRANCH   9  13
ENDBRANCH   2   7
BRANCH   3  24
HETATM   24  C   UNK N   1      31.416  17.221   8.120  0.00  0.00     0.039 A 
HETATM   25  C   UNK N   1      31.537  15.851   8.401  0.00  0.00     0.067 A 
HETATM   26  C   UNK N   1      32.741  15.319   8.890  0.00  0.00     0.083 A 
HETATM   27  C   UNK N   1      33.828  16.192   9.123  0.00  0.00     0.033 A 
HETATM   28  C   UNK N   1      33.719  17.540   8.762  0.00  0.00     0.019 A 
HETATM   29  C   UNK N   1      32.527  18.049   8.257  0.00  0.00     0.030 A 
BRANCH  26  30
HETATM   30  O   UNK N   1      32.846  13.999   9.188  0.00  0.00    -0.355 OA
HETATM   31  C   UNK N   1      33.198  13.039   8.264  0.00  0.00     0.210 C 
ENDBRANCH  26  30
BRANCH  27  32
HETATM   32  C   UNK N   1      35.053  15.766   9.826  0.00  0.00     0.105 A 
HETATM   33  O   UNK N   1      35.949  14.968   9.300  0.00  0.00    -0.304 OA
HETATM   34  C   UNK N   1      36.961  14.891  10.132  0.00  0.00     0.233 A 
HETATM   35  N   UNK N   1      36.742  15.652  11.225  0.00  0.00    -0.354 N 
HETATM   36  C   UNK N   1      35.533  16.216  11.035  0.00  0.00     0.127 A 
ATOM     37  HN  UNK N   1      37.360  15.773  12.026  1.00  0.00     0.166 HD
ENDBRANCH  27  32
ENDBRANCH   3  24
TORSDOF 8
ENDMDL
MODEL 2
REMARK VINA RESULT:      -7.4      1.201      2.340
REMARK  8 active torsions:
REMARK  status: ('A' for Active; 'I' for Inactive)
REMARK    1  A    between atoms: C_12  and  O_2 
REMARK    2  A    between atoms: O_2  and  C_16 
REMARK    3  A    between atoms: O_4  and  C_26 
REMARK       I    between atoms: N_7  and  C_16 
REMARK    4  A    between atoms: N_7  and  C_17 
REMARK    5  A    between atoms: N_8  and  C_20 
REMARK       I    between atoms: N_8  and  C_30 
REMARK    6  A    between atoms: N_9  and  C_24 
REMARK       I    between atoms: N_9  and  C_30 
REMARK    7  A    between atoms: C_17  and  C_18 
REMARK    8  A    between atoms: C_25  and  C_31 
ROOT
HETATM    1  O   UNK N   1      29.500  18.354  10.000  0.00  0.00    -0.247 OA
HETATM    2  N   UNK N   1      28.039  19.000   8.457  0.00  0.00    -0.309 N 
HETATM    3  N   UNK N   1      30.027  17.870   7.869  0.00  0.00    -0.309 N 
HETATM    4  C   UNK N   1      29.202  18.399   8.821  0.00  0.00     0.325 C 
HETATM    5  H   UNK N   1      27.385  19.201   9.165  0.00  0.00     0.170 HD
HETATM    6  H   UNK N   1      29.723  17.909   6.933  0.00  0.00     0.170 HD
ENDROOT
BRANCH   2   7
HETATM    7  C   UNK N   1      27.703  19.357   7.126  0.00  0.00     0.036 A 
HETATM    8  C   UNK N   1      27.761  18.412   6.092  0.00  0.00     0.038 A 
HETATM    9  C   UNK N   1      27.507  18.784   4.769  0.00  0.00    -0.038 A 
HETATM   10  C   UNK N   1      27.204  20.117   4.473  0.00  0.00     0.009 A 
HETATM   11  C   UNK N   1      27.155  21.068   5.498  0.00  0.00     0.003 A 
HETATM   12  C   UNK N   1      27.424  20.693   6.819  0.00  0.00     0.029 A 
BRANCH   9  13
HETATM   13  C   UNK N   1      27.682  17.795   3.663  0.00  0.00     0.163 C 
BRANCH  13  14
HETATM   14  N   UNK N   1      29.076  17.477   3.463  0.00  0.00    -0.333 N 
HETATM   15  C   UNK N   1      29.453  16.297   2.928  0.00  0.00     0.361 C 
HETATM   16  O   UNK N   1      30.644  16.058   2.783  0.00  0.00    -0.238 OA
HETATM   17  H   UNK N   1      29.763  18.132   3.721  0.00  0.00     0.165 HD
BRANCH  15  18
HETATM   18  O   UNK N   1      28.511  15.395   2.549  0.00  0.00    -0.296 OA
BRANCH  18  19
HETATM   19  C   UNK N   1      28.442  14.095   3.009  0.00  0.00     0.159 C 
HETATM   20  C   UNK N   1      27.179  13.424   2.544  0.00  0.00     0.061 C 
HETATM   21  C   UNK N   1      26.208  13.637   3.691  0.00  0.00     0.170 C 
HETATM   22  O   UNK N   1      26.848  14.401   4.681  0.00  0.00    -0.389 OA
HETATM   23  C   UNK N   1      28.212  14.142   4.496  0.00  0.00     0.200 C 
ENDBRANCH  18  19
ENDBRANCH  15  18
ENDBRANCH  13  14
ENDBRANCH   9  13
ENDBRANCH   2   7
BRANCH   3  24
HETATM   24  C   UNK N   1      31.289  17.269   8.124  0.00  0.00     0.039 A 
HETATM   25  C   UNK N   1      31.421  15.898   8.396  0.00  0.00     0.067 A 
HETATM   26  C   UNK N   1      32.631  15.372   8.877  0.00  0.00     0.083 A 
HETATM   27  C   UNK N   1      33.712  16.251   9.111  0.00  0.00     0.033 A 
HETATM   28  C   UNK N   1      33.593  17.601   8.759  0.00  0.00     0.019 A 
HETATM   29  C   UNK N   1      32.395  18.104   8.262  0.00  0.00     0.030 A 
BRANCH  26  30
HETATM   30  O   UNK N   1      32.746  14.051   9.166  0.00  0.00    -0.355 OA
HETATM   31  C   UNK N   1      33.097  13.098   8.234  0.00  0.00     0.210 C 
ENDBRANCH  26  30
BRANCH  27  32
HETATM   32  C   UNK N   1      34.943  15.829   9.807  0.00  0.00     0.105 A 
HETATM   33  O   UNK N   1      35.827  15.016   9.284  0.00  0.00    -0.304 OA
HETATM   34  C   UNK N   1      36.849  14.946  10.104  0.00  0.00     0.233 A 
HETATM   35  N   UNK N   1      36.649  15.729  11.186  0.00  0.00    -0.354 N 
HETATM   36  C   UNK N   1      35.443  16.298  11.000  0.00  0.00     0.127 A 
ATOM     37  HN  UNK N   1      37.279  15.860  11.976  1.00  0.00     0.166 HD
ENDBRANCH  27  32
ENDBRANCH   3  24
TORSDOF 8
ENDMDL
MODEL 3
REMARK VINA RESULT:      -7.4      4.000     10.381
REMARK  8 active torsions:
REMARK  status: ('A' for Active; 'I' for Inactive)
REMARK    1  A    between atoms: C_12  and  O_2 
REMARK    2  A    between atoms: O_2  and  C_16 
REMARK    3  A    between atoms: O_4  and  C_26 
REMARK       I    between atoms: N_7  and  C_16 
REMARK    4  A    between atoms: N_7  and  C_17 
REMARK    5  A    between atoms: N_8  and  C_20 
REMARK       I    between atoms: N_8  and  C_30 
REMARK    6  A    between atoms: N_9  and  C_24 
REMARK       I    between atoms: N_9  and  C_30 
REMARK    7  A    between atoms: C_17  and  C_18 
REMARK    8  A    between atoms: C_25  and  C_31 
ROOT
HETATM    1  O   UNK N   1      33.677  18.426   8.707  0.00  0.00    -0.247 OA
HETATM    2  N   UNK N   1      35.110  16.892   9.432  0.00  0.00    -0.309 N 
HETATM    3  N   UNK N   1      33.044  16.283   8.464  0.00  0.00    -0.309 N 
HETATM    4  C   UNK N   1      33.931  17.246   8.855  0.00  0.00     0.325 C 
HETATM    5  H   UNK N   1      35.800  17.588   9.530  0.00  0.00     0.170 HD
HETATM    6  H   UNK N   1      33.314  15.342   8.581  0.00  0.00     0.170 HD
ENDROOT
BRANCH   2   7
HETATM    7  C   UNK N   1      35.413  15.589   9.904  0.00  0.00     0.036 A 
HETATM    8  C   UNK N   1      35.323  15.280  11.268  0.00  0.00     0.038 A 
HETATM    9  C   UNK N   1      35.698  14.019  11.742  0.00  0.00    -0.038 A 
HETATM   10  C   UNK N   1      36.181  13.061  10.845  0.00  0.00     0.009 A 
HETATM   11  C   UNK N   1      36.285  13.366   9.483  0.00  0.00     0.003 A 
HETATM   12  C   UNK N   1      35.921  14.634   9.017  0.00  0.00     0.029 A 
BRANCH   9  13
HETATM   13  C   UNK N   1      35.705  13.738  13.209  0.00  0.00     0.163 C 
BRANCH  13  14
HETATM   14  N   UNK N   1      36.562  14.661  13.914  0.00  0.00    -0.333 N 
HETATM   15  C   UNK N   1      36.913  14.447  15.199  0.00  0.00     0.361 C 
HETATM   16  O   UNK N   1      37.633  15.256  15.766  0.00  0.00    -0.238 OA
HETATM   17  H   UNK N   1      36.896  15.461  13.449  0.00  0.00     0.165 HD
BRANCH  15  18
HETATM   18  O   UNK N   1      36.474  13.334  15.842  0.00  0.00    -0.296 OA
BRANCH  18  19
HETATM   19  C   UNK N   1      35.195  13.169  16.335  0.00  0.00     0.159 C 
HETATM   20  C   UNK N   1      35.079  13.716  17.732  0.00  0.00     0.061 C 
HETATM   21  C   UNK N   1      35.329  12.510  18.618  0.00  0.00     0.170 C 
HETATM   22  O   UNK N   1      35.611  11.405  17.799  0.00  0.00    -0.389 OA
HETATM   23  C   UNK N   1      34.981  11.700  16.584  0.00  0.00     0.200 C 
ENDBRANCH  18  19
ENDBRANCH  15  18
ENDBRANCH  13  14
ENDBRANCH   9  13
ENDBRANCH   2   7
BRANCH   3  24
HETATM   24  C   UNK N   1      31.763  16.532   7.902  0.00  0.00     0.039 A 
HETATM   25  C   UNK N   1      31.558  16.605   6.515  0.00  0.00     0.067 A 
HETATM   26  C   UNK N   1      30.348  17.085   5.989  0.00  0.00     0.083 A 
HETATM   27  C   UNK N   1      29.342  17.522   6.881  0.00  0.00     0.033 A 
HETATM   28  C   UNK N   1      29.528  17.367   8.260  0.00  0.00     0.019 A 
HETATM   29  C   UNK N   1      30.724  16.869   8.766  0.00  0.00     0.030 A 
BRANCH  26  30
HETATM   30  O   UNK N   1      30.164  17.181   4.648  0.00  0.00    -0.355 OA
HETATM   31  C   UNK N   1      31.078  16.728   3.722  0.00  0.00     0.210 C 
ENDBRANCH  26  30
BRANCH  27  32
HETATM   32  C   UNK N   1      28.130  18.230   6.427  0.00  0.00     0.105 A 
HETATM   33  O   UNK N   1      28.031  19.535   6.375  0.00  0.00    -0.304 OA
HETATM   34  C   UNK N   1      26.882  19.833   5.815  0.00  0.00     0.233 A 
HETATM   35  N   UNK N   1      26.207  18.713   5.483  0.00  0.00    -0.354 N 
HETATM   36  C   UNK N   1      26.997  17.690   5.862  0.00  0.00     0.127 A 
ATOM     37  HN  UNK N   1      25.292  18.653   5.038  1.00  0.00     0.166 HD
ENDBRANCH  27  32
ENDBRANCH   3  24
TORSDOF 8
ENDMDL
MODEL 4
REMARK VINA RESULT:      -7.4      2.723      4.592
REMARK  8 active torsions:
REMARK  status: ('A' for Active; 'I' for Inactive)
REMARK    1  A    between atoms: C_12  and  O_2 
REMARK    2  A    between atoms: O_2  and  C_16 
REMARK    3  A    between atoms: O_4  and  C_26 
REMARK       I    between atoms: N_7  and  C_16 
REMARK    4  A    between atoms: N_7  and  C_17 
REMARK    5  A    between atoms: N_8  and  C_20 
REMARK       I    between atoms: N_8  and  C_30 
REMARK    6  A    between atoms: N_9  and  C_24 
REMARK       I    between atoms: N_9  and  C_30 
REMARK    7  A    between atoms: C_17  and  C_18 
REMARK    8  A    between atoms: C_25  and  C_31 
ROOT
HETATM    1  O   UNK N   1      34.589  16.657   7.604  0.00  0.00    -0.247 OA
HETATM    2  N   UNK N   1      32.593  17.629   7.540  0.00  0.00    -0.309 N 
HETATM    3  N   UNK N   1      33.280  16.356   9.407  0.00  0.00    -0.309 N 
HETATM    4  C   UNK N   1      33.533  16.874   8.168  0.00  0.00     0.325 C 
HETATM    5  H   UNK N   1      32.870  18.137   6.743  0.00  0.00     0.170 HD
HETATM    6  H   UNK N   1      32.420  16.588   9.828  0.00  0.00     0.170 HD
ENDROOT
BRANCH   2   7
HETATM    7  C   UNK N   1      31.241  17.736   7.955  0.00  0.00     0.036 A 
HETATM    8  C   UNK N   1      30.211  17.157   7.200  0.00  0.00     0.038 A 
HETATM    9  C   UNK N   1      28.873  17.330   7.566  0.00  0.00    -0.038 A 
HETATM   10  C   UNK N   1      28.560  18.100   8.691  0.00  0.00     0.009 A 
HETATM   11  C   UNK N   1      29.582  18.690   9.443  0.00  0.00     0.003 A 
HETATM   12  C   UNK N   1      30.919  18.525   9.063  0.00  0.00     0.029 A 
BRANCH   9  13
HETATM   13  C   UNK N   1      27.780  16.805   6.694  0.00  0.00     0.163 C 
BRANCH  13  14
HETATM   14  N   UNK N   1      28.271  16.495   5.372  0.00  0.00    -0.333 N 
HETATM   15  C   UNK N   1      27.791  17.129   4.282  0.00  0.00     0.361 C 
HETATM   16  O   UNK N   1      28.223  16.833   3.177  0.00  0.00    -0.238 OA
HETATM   17  H   UNK N   1      28.968  15.810   5.264  0.00  0.00     0.165 HD
BRANCH  15  18
HETATM   18  O   UNK N   1      26.843  18.092   4.423  0.00  0.00    -0.296 OA
BRANCH  18  19
HETATM   19  C   UNK N   1      27.013  19.415   4.070  0.00  0.00     0.159 C 
HETATM   20  C   UNK N   1      28.132  20.045   4.854  0.00  0.00     0.061 C 
HETATM   21  C   UNK N   1      27.431  20.690   6.035  0.00  0.00     0.170 C 
HETATM   22  O   UNK N   1      26.058  20.405   5.950  0.00  0.00    -0.389 OA
HETATM   23  C   UNK N   1      25.830  20.189   4.586  0.00  0.00     0.200 C 
ENDBRANCH  18  19
ENDBRANCH  15  18
ENDBRANCH  13  14
ENDBRANCH   9  13
ENDBRANCH   2   7
BRANCH   3  24
HETATM   24  C   UNK N   1      34.160  15.511  10.134  0.00  0.00     0.039 A 
HETATM   25  C   UNK N   1      34.077  14.111  10.066  0.00  0.00     0.067 A 
HETATM   26  C   UNK N   1      34.788  13.302  10.966  0.00  0.00     0.083 A 
HETATM   27  C   UNK N   1      35.572  13.920  11.966  0.00  0.00     0.033 A 
HETATM   28  C   UNK N   1      35.710  15.312  11.973  0.00  0.00     0.019 A 
HETATM   29  C   UNK N   1      35.017  16.101  11.059  0.00  0.00     0.030 A 
BRANCH  26  30
HETATM   30  O   UNK N   1      34.683  11.950  10.914  0.00  0.00    -0.355 OA
HETATM   31  C   UNK N   1      35.127  11.194   9.851  0.00  0.00     0.210 C 
ENDBRANCH  26  30
BRANCH  27  32
HETATM   32  C   UNK N   1      36.183  13.164  13.077  0.00  0.00     0.105 A 
HETATM   33  O   UNK N   1      37.179  12.328  12.922  0.00  0.00    -0.304 OA
HETATM   34  C   UNK N   1      37.560  11.925  14.111  0.00  0.00     0.233 A 
HETATM   35  N   UNK N   1      36.812  12.504  15.075  0.00  0.00    -0.354 N 
HETATM   36  C   UNK N   1      35.939  13.298  14.425  0.00  0.00     0.127 A 
ATOM     37  HN  UNK N   1      36.891  12.368  16.082  1.00  0.00     0.166 HD
ENDBRANCH  27  32
ENDBRANCH   3  24
TORSDOF 8
ENDMDL
MODEL 5
REMARK VINA RESULT:      -7.3      3.023      5.641
REMARK  8 active torsions:
REMARK  status: ('A' for Active; 'I' for Inactive)
REMARK    1  A    between atoms: C_12  and  O_2 
REMARK    2  A    between atoms: O_2  and  C_16 
REMARK    3  A    between atoms: O_4  and  C_26 
REMARK       I    between atoms: N_7  and  C_16 
REMARK    4  A    between atoms: N_7  and  C_17 
REMARK    5  A    between atoms: N_8  and  C_20 
REMARK       I    between atoms: N_8  and  C_30 
REMARK    6  A    between atoms: N_9  and  C_24 
REMARK       I    between atoms: N_9  and  C_30 
REMARK    7  A    between atoms: C_17  and  C_18 
REMARK    8  A    between atoms: C_25  and  C_31 
ROOT
HETATM    1  O   UNK N   1      35.629  17.617  10.239  0.00  0.00    -0.247 OA
HETATM    2  N   UNK N   1      34.149  18.103   8.656  0.00  0.00    -0.309 N 
HETATM    3  N   UNK N   1      34.527  15.875   9.342  0.00  0.00    -0.309 N 
HETATM    4  C   UNK N   1      34.798  17.210   9.450  0.00  0.00     0.325 C 
HETATM    5  H   UNK N   1      34.226  19.058   8.882  0.00  0.00     0.170 HD
HETATM    6  H   UNK N   1      33.825  15.604   8.707  0.00  0.00     0.170 HD
ENDROOT
BRANCH   2   7
HETATM    7  C   UNK N   1      33.369  17.752   7.525  0.00  0.00     0.036 A 
HETATM    8  C   UNK N   1      31.995  17.501   7.650  0.00  0.00     0.038 A 
HETATM    9  C   UNK N   1      31.243  17.078   6.550  0.00  0.00    -0.038 A 
HETATM   10  C   UNK N   1      31.872  16.890   5.315  0.00  0.00     0.009 A 
HETATM   11  C   UNK N   1      33.244  17.127   5.185  0.00  0.00     0.003 A 
HETATM   12  C   UNK N   1      33.995  17.538   6.293  0.00  0.00     0.029 A 
BRANCH   9  13
HETATM   13  C   UNK N   1      29.806  16.706   6.720  0.00  0.00     0.163 C 
BRANCH  13  14
HETATM   14  N   UNK N   1      29.278  17.215   7.963  0.00  0.00    -0.333 N 
HETATM   15  C   UNK N   1      28.272  18.114   7.979  0.00  0.00     0.361 C 
HETATM   16  O   UNK N   1      27.857  18.530   9.051  0.00  0.00    -0.238 OA
HETATM   17  H   UNK N   1      29.658  16.900   8.814  0.00  0.00     0.165 HD
BRANCH  15  18
HETATM   18  O   UNK N   1      27.726  18.538   6.810  0.00  0.00    -0.296 OA
BRANCH  18  19
HETATM   19  C   UNK N   1      27.910  19.795   6.271  0.00  0.00     0.159 C 
HETATM   20  C   UNK N   1      26.638  20.597   6.322  0.00  0.00     0.061 C 
HETATM   21  C   UNK N   1      26.002  20.360   4.965  0.00  0.00     0.170 C 
HETATM   22  O   UNK N   1      26.812  19.469   4.242  0.00  0.00    -0.389 OA
HETATM   23  C   UNK N   1      28.092  19.640   4.785  0.00  0.00     0.200 C 
ENDBRANCH  18  19
ENDBRANCH  15  18
ENDBRANCH  13  14
ENDBRANCH   9  13
ENDBRANCH   2   7
BRANCH   3  24
HETATM   24  C   UNK N   1      35.178  14.848  10.077  0.00  0.00     0.039 A 
HETATM   25  C   UNK N   1      36.272  14.138   9.557  0.00  0.00     0.067 A 
HETATM   26  C   UNK N   1      36.745  12.977  10.190  0.00  0.00     0.083 A 
HETATM   27  C   UNK N   1      36.083  12.515  11.351  0.00  0.00     0.033 A 
HETATM   28  C   UNK N   1      35.047  13.277  11.903  0.00  0.00     0.019 A 
HETATM   29  C   UNK N   1      34.604  14.437  11.277  0.00  0.00     0.030 A 
BRANCH  26  30
HETATM   30  O   UNK N   1      37.785  12.277   9.670  0.00  0.00    -0.355 OA
HETATM   31  C   UNK N   1      39.084  12.737   9.669  0.00  0.00     0.210 C 
ENDBRANCH  26  30
BRANCH  27  32
HETATM   32  C   UNK N   1      36.372  11.203  11.961  0.00  0.00     0.105 A 
HETATM   33  O   UNK N   1      35.696  10.115  11.691  0.00  0.00    -0.304 OA
HETATM   34  C   UNK N   1      36.282   9.111  12.300  0.00  0.00     0.233 A 
HETATM   35  N   UNK N   1      37.369   9.533  12.980  0.00  0.00    -0.354 N 
HETATM   36  C   UNK N   1      37.437  10.861  12.764  0.00  0.00     0.127 A 
ATOM     37  HN  UNK N   1      38.005   8.966  13.540  1.00  0.00     0.166 HD
ENDBRANCH  27  32
ENDBRANCH   3  24
TORSDOF 8
ENDMDL
MODEL 6
REMARK VINA RESULT:      -7.2      5.722      9.029
REMARK  8 active torsions:
REMARK  status: ('A' for Active; 'I' for Inactive)
REMARK    1  A    between atoms: C_12  and  O_2 
REMARK    2  A    between atoms: O_2  and  C_16 
REMARK    3  A    between atoms: O_4  and  C_26 
REMARK       I    between atoms: N_7  and  C_16 
REMARK    4  A    between atoms: N_7  and  C_17 
REMARK    5  A    between atoms: N_8  and  C_20 
REMARK       I    between atoms: N_8  and  C_30 
REMARK    6  A    between atoms: N_9  and  C_24 
REMARK       I    between atoms: N_9  and  C_30 
REMARK    7  A    between atoms: C_17  and  C_18 
REMARK    8  A    between atoms: C_25  and  C_31 
ROOT
HETATM    1  O   UNK N   1      22.808  15.590   3.797  0.00  0.00    -0.247 OA
HETATM    2  N   UNK N   1      24.407  17.120   3.606  0.00  0.00    -0.309 N 
HETATM    3  N   UNK N   1      23.841  16.189   5.702  0.00  0.00    -0.309 N 
HETATM    4  C   UNK N   1      23.654  16.266   4.351  0.00  0.00     0.325 C 
HETATM    5  H   UNK N   1      24.381  17.019   2.627  0.00  0.00     0.170 HD
HETATM    6  H   UNK N   1      24.559  16.739   6.093  0.00  0.00     0.170 HD
ENDROOT
BRANCH   2   7
HETATM    7  C   UNK N   1      25.226  18.145   4.145  0.00  0.00     0.036 A 
HETATM    8  C   UNK N   1      26.368  17.831   4.896  0.00  0.00     0.038 A 
HETATM    9  C   UNK N   1      27.129  18.840   5.493  0.00  0.00    -0.038 A 
HETATM   10  C   UNK N   1      26.740  20.176   5.349  0.00  0.00     0.009 A 
HETATM   11  C   UNK N   1      25.595  20.495   4.610  0.00  0.00     0.003 A 
HETATM   12  C   UNK N   1      24.829  19.480   4.027  0.00  0.00     0.029 A 
BRANCH   9  13
HETATM   13  C   UNK N   1      28.277  18.490   6.383  0.00  0.00     0.163 C 
BRANCH  13  14
HETATM   14  N   UNK N   1      27.816  17.986   7.655  0.00  0.00    -0.333 N 
HETATM   15  C   UNK N   1      28.670  17.795   8.682  0.00  0.00     0.361 C 
HETATM   16  O   UNK N   1      28.245  17.358   9.742  0.00  0.00    -0.238 OA
HETATM   17  H   UNK N   1      26.862  17.779   7.776  0.00  0.00     0.165 HD
BRANCH  15  18
HETATM   18  O   UNK N   1      29.986  18.099   8.532  0.00  0.00    -0.296 OA
BRANCH  18  19
HETATM   19  C   UNK N   1      31.018  17.193   8.668  0.00  0.00     0.159 C 
HETATM   20  C   UNK N   1      32.350  17.855   8.442  0.00  0.00     0.061 C 
HETATM   21  C   UNK N   1      32.636  17.608   6.972  0.00  0.00     0.170 C 
HETATM   22  O   UNK N   1      31.544  16.922   6.415  0.00  0.00    -0.389 OA
HETATM   23  C   UNK N   1      30.964  16.249   7.497  0.00  0.00     0.200 C 
ENDBRANCH  18  19
ENDBRANCH  15  18
ENDBRANCH  13  14
ENDBRANCH   9  13
ENDBRANCH   2   7
BRANCH   3  24
HETATM   24  C   UNK N   1      23.080  15.378   6.587  0.00  0.00     0.039 A 
HETATM   25  C   UNK N   1      21.909  15.844   7.205  0.00  0.00     0.067 A 
HETATM   26  C   UNK N   1      21.310  15.122   8.250  0.00  0.00     0.083 A 
HETATM   27  C   UNK N   1      21.921  13.927   8.692  0.00  0.00     0.033 A 
HETATM   28  C   UNK N   1      23.042  13.433   8.014  0.00  0.00     0.019 A 
HETATM   29  C   UNK N   1      23.611  14.148   6.965  0.00  0.00     0.030 A 
BRANCH  26  30
HETATM   30  O   UNK N   1      20.194  15.589   8.864  0.00  0.00    -0.355 OA
HETATM   31  C   UNK N   1      19.384  16.566   8.326  0.00  0.00     0.210 C 
ENDBRANCH  26  30
BRANCH  27  32
HETATM   32  C   UNK N   1      21.487  13.216   9.910  0.00  0.00     0.105 A 
HETATM   33  O   UNK N   1      20.231  13.064  10.251  0.00  0.00    -0.304 OA
HETATM   34  C   UNK N   1      20.188  12.287  11.307  0.00  0.00     0.233 A 
HETATM   35  N   UNK N   1      21.431  11.909  11.674  0.00  0.00    -0.354 N 
HETATM   36  C   UNK N   1      22.262  12.490  10.786  0.00  0.00     0.127 A 
ATOM     37  HN  UNK N   1      21.688  11.310  12.458  1.00  0.00     0.166 HD
ENDBRANCH  27  32
ENDBRANCH   3  24
TORSDOF 8
ENDMDL
MODEL 7
REMARK VINA RESULT:      -7.2      3.869      6.688
REMARK  8 active torsions:
REMARK  status: ('A' for Active; 'I' for Inactive)
REMARK    1  A    between atoms: C_12  and  O_2 
REMARK    2  A    between atoms: O_2  and  C_16 
REMARK    3  A    between atoms: O_4  and  C_26 
REMARK       I    between atoms: N_7  and  C_16 
REMARK    4  A    between atoms: N_7  and  C_17 
REMARK    5  A    between atoms: N_8  and  C_20 
REMARK       I    between atoms: N_8  and  C_30 
REMARK    6  A    between atoms: N_9  and  C_24 
REMARK       I    between atoms: N_9  and  C_30 
REMARK    7  A    between atoms: C_17  and  C_18 
REMARK    8  A    between atoms: C_25  and  C_31 
ROOT
HETATM    1  O   UNK N   1      36.780  13.390   9.577  0.00  0.00    -0.247 OA
HETATM    2  N   UNK N   1      35.730  15.005   8.470  0.00  0.00    -0.309 N 
HETATM    3  N   UNK N   1      35.375  14.668  10.781  0.00  0.00    -0.309 N 
HETATM    4  C   UNK N   1      35.996  14.320   9.614  0.00  0.00     0.325 C 
HETATM    5  H   UNK N   1      36.323  14.856   7.698  0.00  0.00     0.170 HD
HETATM    6  H   UNK N   1      34.773  15.447  10.759  0.00  0.00     0.170 HD
ENDROOT
BRANCH   2   7
HETATM    7  C   UNK N   1      34.656  15.918   8.313  0.00  0.00     0.036 A 
HETATM    8  C   UNK N   1      33.400  15.481   7.870  0.00  0.00     0.038 A 
HETATM    9  C   UNK N   1      32.366  16.393   7.639  0.00  0.00    -0.038 A 
HETATM   10  C   UNK N   1      32.593  17.758   7.842  0.00  0.00     0.009 A 
HETATM   11  C   UNK N   1      33.847  18.203   8.273  0.00  0.00     0.003 A 
HETATM   12  C   UNK N   1      34.882  17.287   8.489  0.00  0.00     0.029 A 
BRANCH   9  13
HETATM   13  C   UNK N   1      31.069  15.929   7.060  0.00  0.00     0.163 C 
BRANCH  13  14
HETATM   14  N   UNK N   1      30.599  16.837   6.041  0.00  0.00    -0.333 N 
HETATM   15  C   UNK N   1      29.349  17.344   6.079  0.00  0.00     0.361 C 
HETATM   16  O   UNK N   1      28.982  18.102   5.193  0.00  0.00    -0.238 OA
HETATM   17  H   UNK N   1      31.200  17.090   5.305  0.00  0.00     0.165 HD
BRANCH  15  18
HETATM   18  O   UNK N   1      28.518  17.016   7.103  0.00  0.00    -0.296 OA
BRANCH  18  19
HETATM   19  C   UNK N   1      27.995  17.919   8.005  0.00  0.00     0.159 C 
HETATM   20  C   UNK N   1      29.021  18.946   8.400  0.00  0.00     0.061 C 
HETATM   21  C   UNK N   1      29.631  18.382   9.670  0.00  0.00     0.170 C 
HETATM   22  O   UNK N   1      29.042  17.134   9.933  0.00  0.00    -0.389 OA
HETATM   23  C   UNK N   1      27.788  17.202   9.312  0.00  0.00     0.200 C 
ENDBRANCH  18  19
ENDBRANCH  15  18
ENDBRANCH  13  14
ENDBRANCH   9  13
ENDBRANCH   2   7
BRANCH   3  24
HETATM   24  C   UNK N   1      35.532  13.995  12.022  0.00  0.00     0.039 A 
HETATM   25  C   UNK N   1      34.844  12.808  12.319  0.00  0.00     0.067 A 
HETATM   26  C   UNK N   1      34.826  12.292  13.625  0.00  0.00     0.083 A 
HETATM   27  C   UNK N   1      35.491  13.004  14.649  0.00  0.00     0.033 A 
HETATM   28  C   UNK N   1      36.240  14.141  14.324  0.00  0.00     0.019 A 
HETATM   29  C   UNK N   1      36.267  14.628  13.021  0.00  0.00     0.030 A 
BRANCH  26  30
HETATM   30  O   UNK N   1      34.137  11.159  13.914  0.00  0.00    -0.355 OA
HETATM   31  C   UNK N   1      34.068  10.076  13.065  0.00  0.00     0.210 C 
ENDBRANCH  26  30
BRANCH  27  32
HETATM   32  C   UNK N   1      35.354  12.656  16.076  0.00  0.00     0.105 A 
HETATM   33  O   UNK N   1      35.704  11.497  16.576  0.00  0.00    -0.304 OA
HETATM   34  C   UNK N   1      35.569  11.560  17.880  0.00  0.00     0.233 A 
HETATM   35  N   UNK N   1      35.129  12.779  18.257  0.00  0.00    -0.354 N 
HETATM   36  C   UNK N   1      34.996  13.484  17.116  0.00  0.00     0.127 A 
ATOM     37  HN  UNK N   1      34.937  13.099  19.206  1.00  0.00     0.166 HD
ENDBRANCH  27  32
ENDBRANCH   3  24
TORSDOF 8
ENDMDL
MODEL 8
REMARK VINA RESULT:      -7.1      5.853      8.503
REMARK  8 active torsions:
REMARK  status: ('A' for Active; 'I' for Inactive)
REMARK    1  A    between atoms: C_12  and  O_2 
REMARK    2  A    between atoms: O_2  and  C_16 
REMARK    3  A    between atoms: O_4  and  C_26 
REMARK       I    between atoms: N_7  and  C_16 
REMARK    4  A    between atoms: N_7  and  C_17 
REMARK    5  A    between atoms: N_8  and  C_20 
REMARK       I    between atoms: N_8  and  C_30 
REMARK    6  A    between atoms: N_9  and  C_24 
REMARK       I    between atoms: N_9  and  C_30 
REMARK    7  A    between atoms: C_17  and  C_18 
REMARK    8  A    between atoms: C_25  and  C_31 
ROOT
HETATM    1  O   UNK N   1      25.999  20.841   2.499  0.00  0.00    -0.247 OA
HETATM    2  N   UNK N   1      23.781  20.822   2.380  0.00  0.00    -0.309 N 
HETATM    3  N   UNK N   1      24.919  19.915   4.240  0.00  0.00    -0.309 N 
HETATM    4  C   UNK N   1      24.945  20.541   3.025  0.00  0.00     0.325 C 
HETATM    5  H   UNK N   1      23.821  21.432   1.608  0.00  0.00     0.170 HD
HETATM    6  H   UNK N   1      24.037  19.721   4.633  0.00  0.00     0.170 HD
ENDROOT
BRANCH   2   7
HETATM    7  C   UNK N   1      22.515  20.297   2.743  0.00  0.00     0.036 A 
HETATM    8  C   UNK N   1      22.413  19.081   3.433  0.00  0.00     0.038 A 
HETATM    9  C   UNK N   1      21.163  18.525   3.721  0.00  0.00    -0.038 A 
HETATM   10  C   UNK N   1      20.003  19.184   3.303  0.00  0.00     0.009 A 
HETATM   11  C   UNK N   1      20.096  20.391   2.603  0.00  0.00     0.003 A 
HETATM   12  C   UNK N   1      21.351  20.936   2.306  0.00  0.00     0.029 A 
BRANCH   9  13
HETATM   13  C   UNK N   1      21.068  17.176   4.356  0.00  0.00     0.163 C 
BRANCH  13  14
HETATM   14  N   UNK N   1      19.692  16.791   4.561  0.00  0.00    -0.333 N 
HETATM   15  C   UNK N   1      19.344  15.936   5.545  0.00  0.00     0.361 C 
HETATM   16  O   UNK N   1      18.170  15.626   5.683  0.00  0.00    -0.238 OA
HETATM   17  H   UNK N   1      18.994  17.160   3.974  0.00  0.00     0.165 HD
BRANCH  15  18
HETATM   18  O   UNK N   1      20.297  15.438   6.375  0.00  0.00    -0.296 OA
BRANCH  18  19
HETATM   19  C   UNK N   1      20.756  16.075   7.511  0.00  0.00     0.159 C 
HETATM   20  C   UNK N   1      21.440  15.105   8.435  0.00  0.00     0.061 C 
HETATM   21  C   UNK N   1      20.344  14.680   9.395  0.00  0.00     0.170 C 
HETATM   22  O   UNK N   1      19.148  15.310   9.013  0.00  0.00    -0.389 OA
HETATM   23  C   UNK N   1      19.561  16.465   8.338  0.00  0.00     0.200 C 
ENDBRANCH  18  19
ENDBRANCH  15  18
ENDBRANCH  13  14
ENDBRANCH   9  13
ENDBRANCH   2   7
BRANCH   3  24
HETATM   24  C   UNK N   1      26.067  19.523   4.980  0.00  0.00     0.039 A 
HETATM   25  C   UNK N   1      26.566  18.212   4.943  0.00  0.00     0.067 A 
HETATM   26  C   UNK N   1      27.545  17.786   5.857  0.00  0.00     0.083 A 
HETATM   27  C   UNK N   1      28.003  18.695   6.838  0.00  0.00     0.033 A 
HETATM   28  C   UNK N   1      27.556  20.021   6.812  0.00  0.00     0.019 A 
HETATM   29  C   UNK N   1      26.603  20.434   5.886  0.00  0.00     0.030 A 
BRANCH  26  30
HETATM   30  O   UNK N   1      28.004  16.510   5.836  0.00  0.00    -0.355 OA
HETATM   31  C   UNK N   1      28.509  15.903   4.706  0.00  0.00     0.210 C 
ENDBRANCH  26  30
BRANCH  27  32
HETATM   32  C   UNK N   1      28.866  18.282   7.961  0.00  0.00     0.105 A 
HETATM   33  O   UNK N   1      30.130  17.965   7.824  0.00  0.00    -0.304 OA
HETATM   34  C   UNK N   1      30.631  17.769   9.021  0.00  0.00     0.233 A 
HETATM   35  N   UNK N   1      29.692  17.964   9.971  0.00  0.00    -0.354 N 
HETATM   36  C   UNK N   1      28.569  18.297   9.305  0.00  0.00     0.127 A 
ATOM     37  HN  UNK N   1      29.808  17.878  10.980  1.00  0.00     0.166 HD
ENDBRANCH  27  32
ENDBRANCH   3  24
TORSDOF 8
ENDMDL
MODEL 9
REMARK VINA RESULT:      -7.1      4.876      6.817
REMARK  8 active torsions:
REMARK  status: ('A' for Active; 'I' for Inactive)
REMARK    1  A    between atoms: C_12  and  O_2 
REMARK    2  A    between atoms: O_2  and  C_16 
REMARK    3  A    between atoms: O_4  and  C_26 
REMARK       I    between atoms: N_7  and  C_16 
REMARK    4  A    between atoms: N_7  and  C_17 
REMARK    5  A    between atoms: N_8  and  C_20 
REMARK       I    between atoms: N_8  and  C_30 
REMARK    6  A    between atoms: N_9  and  C_24 
REMARK       I    between atoms: N_9  and  C_30 
REMARK    7  A    between atoms: C_17  and  C_18 
REMARK    8  A    between atoms: C_25  and  C_31 
ROOT
HETATM    1  O   UNK N   1      28.080  20.111   4.516  0.00  0.00    -0.247 OA
HETATM    2  N   UNK N   1      26.186  19.152   3.865  0.00  0.00    -0.309 N 
HETATM    3  N   UNK N   1      27.696  18.039   5.299  0.00  0.00    -0.309 N 
HETATM    4  C   UNK N   1      27.350  19.139   4.566  0.00  0.00     0.325 C 
HETATM    5  H   UNK N   1      25.877  20.014   3.503  0.00  0.00     0.170 HD
HETATM    6  H   UNK N   1      27.055  17.292   5.326  0.00  0.00     0.170 HD
ENDROOT
BRANCH   2   7
HETATM    7  C   UNK N   1      25.385  18.007   3.618  0.00  0.00     0.036 A 
HETATM    8  C   UNK N   1      24.042  17.970   4.021  0.00  0.00     0.038 A 
HETATM    9  C   UNK N   1      23.277  16.812   3.849  0.00  0.00    -0.038 A 
HETATM   10  C   UNK N   1      23.862  15.676   3.281  0.00  0.00     0.009 A 
HETATM   11  C   UNK N   1      25.204  15.702   2.888  0.00  0.00     0.003 A 
HETATM   12  C   UNK N   1      25.970  16.859   3.075  0.00  0.00     0.029 A 
BRANCH   9  13
HETATM   13  C   UNK N   1      21.883  16.746   4.382  0.00  0.00     0.163 C 
BRANCH  13  14
HETATM   14  N   UNK N   1      21.574  17.908   5.182  0.00  0.00    -0.333 N 
HETATM   15  C   UNK N   1      21.289  17.797   6.496  0.00  0.00     0.361 C 
HETATM   16  O   UNK N   1      21.023  18.802   7.138  0.00  0.00    -0.238 OA
HETATM   17  H   UNK N   1      21.572  18.798   4.761  0.00  0.00     0.165 HD
BRANCH  15  18
HETATM   18  O   UNK N   1      21.311  16.576   7.090  0.00  0.00    -0.296 OA
BRANCH  18  19
HETATM   19  C   UNK N   1      20.187  15.844   7.416  0.00  0.00     0.159 C 
HETATM   20  C   UNK N   1      19.964  15.829   8.904  0.00  0.00     0.061 C 
HETATM   21  C   UNK N   1      20.645  14.552   9.361  0.00  0.00     0.170 C 
HETATM   22  O   UNK N   1      21.239  13.939   8.246  0.00  0.00    -0.389 OA
HETATM   23  C   UNK N   1      20.487  14.393   7.155  0.00  0.00     0.200 C 
ENDBRANCH  18  19
ENDBRANCH  15  18
ENDBRANCH  13  14
ENDBRANCH   9  13
ENDBRANCH   2   7
BRANCH   3  24
HETATM   24  C   UNK N   1      28.908  17.889   6.025  0.00  0.00     0.039 A 
HETATM   25  C   UNK N   1      30.078  17.393   5.429  0.00  0.00     0.067 A 
HETATM   26  C   UNK N   1      31.187  17.029   6.211  0.00  0.00     0.083 A 
HETATM   27  C   UNK N   1      31.098  17.144   7.617  0.00  0.00     0.033 A 
HETATM   28  C   UNK N   1      29.957  17.716   8.191  0.00  0.00     0.019 A 
HETATM   29  C   UNK N   1      28.875  18.093   7.402  0.00  0.00     0.030 A 
BRANCH  26  30
HETATM   30  O   UNK N   1      32.306  16.523   5.634  0.00  0.00    -0.355 OA
HETATM   31  C   UNK N   1      33.281  17.305   5.054  0.00  0.00     0.210 C 
ENDBRANCH  26  30
BRANCH  27  32
HETATM   32  C   UNK N   1      32.123  16.596   8.525  0.00  0.00     0.105 A 
HETATM   33  O   UNK N   1      32.087  15.378   9.005  0.00  0.00    -0.304 OA
HETATM   34  C   UNK N   1      33.199  15.171   9.671  0.00  0.00     0.233 A 
HETATM   35  N   UNK N   1      33.991  16.263   9.630  0.00  0.00    -0.354 N 
HETATM   36  C   UNK N   1      33.317  17.170   8.898  0.00  0.00     0.127 A 
ATOM     37  HN  UNK N   1      34.907  16.377  10.063  1.00  0.00     0.166 HD
ENDBRANCH  27  32
ENDBRANCH   3  24
TORSDOF 8
ENDMDL
