MODEL 1
REMARK VINA RESULT:      -6.0      0.000      0.000
REMARK  8 active torsions:
REMARK  status: ('A' for Active; 'I' for Inactive)
REMARK    1  A    between atoms: O_1  and  C_6 
REMARK    2  A    between atoms: O_1  and  C_11 
REMARK    3  A    between atoms: N_2  and  C_3 
REMARK    4  A    between atoms: N_2  and  C_4 
REMARK    5  A    between atoms: N_2  and  C_5 
REMARK    6  A    between atoms: C_3  and  C_6 
REMARK    7  A    between atoms: C_9  and  C_10 
REMARK    8  A    between atoms: C_10  and  C_12 
ROOT
HETATM    1  C   UNK N   1      35.575  11.356  18.697  0.00  0.00    -0.054 A 
HETATM    2  C   UNK N   1      35.503  12.835  16.312  0.00  0.00     0.068 A 
HETATM    3  C   UNK N   1      35.964  10.771  17.487  0.00  0.00     0.010 A 
HETATM    4  C   UNK N   1      35.147  12.689  18.716  0.00  0.00     0.010 A 
HETATM    5  C   UNK N   1      35.952  11.513  16.308  0.00  0.00     0.037 A 
HETATM    6  C   UNK N   1      35.099  13.426  17.525  0.00  0.00     0.037 A 
ENDROOT
BRANCH   2   7
HETATM    7  O   UNK N   1      35.438  13.496  15.135  0.00  0.00    -0.349 OA
BRANCH   7   8
HETATM    8  C   UNK N   1      36.550  13.784  14.375  0.00  0.00     0.206 C 
BRANCH   8   9
HETATM    9  C   UNK N   1      36.545  13.090  13.012  0.00  0.00     0.299 C 
BRANCH   9  10
HETATM   10  N   UNK N   1      35.195  12.668  12.613  0.00  0.00     0.089 N 
BRANCH  10  11
HETATM   11  C   UNK N   1      35.163  11.208  12.556  0.00  0.00     0.268 C 
HETATM   12  C   UNK N   1      34.013  10.663  13.381  0.00  0.00     0.037 C 
ENDBRANCH  10  11
BRANCH  10  13
HETATM   13  C   UNK N   1      34.874  13.218  11.293  0.00  0.00     0.268 C 
HETATM   14  C   UNK N   1      34.635  14.714  11.372  0.00  0.00     0.037 C 
ENDBRANCH  10  13
ENDBRANCH   9  10
ENDBRANCH   8   9
ENDBRANCH   7   8
ENDBRANCH   2   7
BRANCH   1  15
HETATM   15  C   UNK N   1      35.544  10.535  19.952  0.00  0.00     0.077 C 
BRANCH  15  16
HETATM   16  C   UNK N   1      34.195   9.987  20.341  0.00  0.00    -0.054 A 
HETATM   17  C   UNK N   1      33.552  10.356  21.535  0.00  0.00     0.007 A 
HETATM   18  C   UNK N   1      32.326   9.784  21.883  0.00  0.00     0.001 A 
HETATM   19  C   UNK N   1      31.735   8.837  21.044  0.00  0.00     0.000 A 
HETATM   20  C   UNK N   1      32.367   8.468  19.852  0.00  0.00     0.001 A 
HETATM   21  C   UNK N   1      33.593   9.041  19.503  0.00  0.00     0.007 A 
ENDBRANCH  15  16
ENDBRANCH   1  15
TORSDOF 8
ENDMDL
MODEL 2
REMARK VINA RESULT:      -5.8      0.806      1.966
REMARK  8 active torsions:
REMARK  status: ('A' for Active; 'I' for Inactive)
REMARK    1  A    between atoms: O_1  and  C_6 
REMARK    2  A    between atoms: O_1  and  C_11 
REMARK    3  A    between atoms: N_2  and  C_3 
REMARK    4  A    between atoms: N_2  and  C_4 
REMARK    5  A    between atoms: N_2  and  C_5 
REMARK    6  A    between atoms: C_3  and  C_6 
REMARK    7  A    between atoms: C_9  and  C_10 
REMARK    8  A    between atoms: C_10  and  C_12 
ROOT
HETATM    1  C   UNK N   1      35.508  11.341  18.536  0.00  0.00    -0.054 A 
HETATM    2  C   UNK N   1      35.265  12.812  16.157  0.00  0.00     0.068 A 
HETATM    3  C   UNK N   1      35.794  10.747  17.301  0.00  0.00     0.010 A 
HETATM    4  C   UNK N   1      35.098  12.679  18.582  0.00  0.00     0.010 A 
HETATM    5  C   UNK N   1      35.697  11.485  16.124  0.00  0.00     0.037 A 
HETATM    6  C   UNK N   1      34.965  13.412  17.395  0.00  0.00     0.037 A 
ENDROOT
BRANCH   2   7
HETATM    7  O   UNK N   1      35.114  13.469  14.985  0.00  0.00    -0.349 OA
BRANCH   7   8
HETATM    8  C   UNK N   1      36.177  13.829  14.187  0.00  0.00     0.206 C 
BRANCH   8   9
HETATM    9  C   UNK N   1      36.042  13.337  12.745  0.00  0.00     0.299 C 
BRANCH   9  10
HETATM   10  N   UNK N   1      36.301  11.896  12.628  0.00  0.00     0.089 N 
BRANCH  10  11
HETATM   11  C   UNK N   1      37.556  11.707  11.903  0.00  0.00     0.268 C 
HETATM   12  C   UNK N   1      37.836  12.891  10.998  0.00  0.00     0.037 C 
ENDBRANCH  10  11
BRANCH  10  13
HETATM   13  C   UNK N   1      35.208  11.254  11.891  0.00  0.00     0.268 C 
HETATM   14  C   UNK N   1      34.191  10.653  12.844  0.00  0.00     0.037 C 
ENDBRANCH  10  13
ENDBRANCH   9  10
ENDBRANCH   8   9
ENDBRANCH   7   8
ENDBRANCH   2   7
BRANCH   1  15
HETATM   15  C   UNK N   1      35.567  10.525  19.793  0.00  0.00     0.077 C 
BRANCH  15  16
HETATM   16  C   UNK N   1      34.263   9.915  20.237  0.00  0.00    -0.054 A 
HETATM   17  C   UNK N   1      33.566   8.982  19.450  0.00  0.00     0.007 A 
HETATM   18  C   UNK N   1      32.333   8.480  19.874  0.00  0.00     0.001 A 
HETATM   19  C   UNK N   1      31.785   8.909  21.085  0.00  0.00     0.000 A 
HETATM   20  C   UNK N   1      32.475   9.833  21.876  0.00  0.00     0.001 A 
HETATM   21  C   UNK N   1      33.709  10.335  21.452  0.00  0.00     0.007 A 
ENDBRANCH  15  16
ENDBRANCH   1  15
TORSDOF 8
ENDMDL
MODEL 3
REMARK VINA RESULT:      -5.8     14.548     17.108
REMARK  8 active torsions:
REMARK  status: ('A' for Active; 'I' for Inactive)
REMARK    1  A    between atoms: O_1  and  C_6 
REMARK    2  A    between atoms: O_1  and  C_11 
REMARK    3  A    between atoms: N_2  and  C_3 
REMARK    4  A    between atoms: N_2  and  C_4 
REMARK    5  A    between atoms: N_2  and  C_5 
REMARK    6  A    between atoms: C_3  and  C_6 
REMARK    7  A    between atoms: C_9  and  C_10 
REMARK    8  A    between atoms: C_10  and  C_12 
ROOT
HETATM    1  C   UNK N   1      20.780  14.452   8.667  0.00  0.00    -0.054 A 
HETATM    2  C   UNK N   1      20.684  16.428   6.675  0.00  0.00     0.068 A 
HETATM    3  C   UNK N   1      21.084  14.136   7.338  0.00  0.00     0.010 A 
HETATM    4  C   UNK N   1      20.426  15.764   9.003  0.00  0.00     0.010 A 
HETATM    5  C   UNK N   1      21.060  15.122   6.355  0.00  0.00     0.037 A 
HETATM    6  C   UNK N   1      20.366  16.750   8.009  0.00  0.00     0.037 A 
ENDROOT
BRANCH   2   7
HETATM    7  O   UNK N   1      20.603  17.338   5.678  0.00  0.00    -0.349 OA
BRANCH   7   8
HETATM    8  C   UNK N   1      21.557  18.310   5.474  0.00  0.00     0.206 C 
BRANCH   8   9
HETATM    9  C   UNK N   1      21.837  18.578   3.994  0.00  0.00     0.299 C 
BRANCH   9  10
HETATM   10  N   UNK N   1      21.073  19.727   3.488  0.00  0.00     0.089 N 
BRANCH  10  11
HETATM   11  C   UNK N   1      19.865  19.229   2.832  0.00  0.00     0.268 C 
HETATM   12  C   UNK N   1      20.202  18.106   1.869  0.00  0.00     0.037 C 
ENDBRANCH  10  11
BRANCH  10  13
HETATM   13  C   UNK N   1      21.883  20.474   2.521  0.00  0.00     0.268 C 
HETATM   14  C   UNK N   1      23.346  20.477   2.927  0.00  0.00     0.037 C 
ENDBRANCH  10  13
ENDBRANCH   9  10
ENDBRANCH   8   9
ENDBRANCH   7   8
ENDBRANCH   2   7
BRANCH   1  15
HETATM   15  C   UNK N   1      20.760  13.373   9.709  0.00  0.00     0.077 C 
BRANCH  15  16
HETATM   16  C   UNK N   1      22.106  12.960  10.247  0.00  0.00    -0.054 A 
HETATM   17  C   UNK N   1      23.304  13.254   9.572  0.00  0.00     0.007 A 
HETATM   18  C   UNK N   1      24.527  12.807  10.078  0.00  0.00     0.001 A 
HETATM   19  C   UNK N   1      24.563  12.060  11.257  0.00  0.00     0.000 A 
HETATM   20  C   UNK N   1      23.376  11.767  11.935  0.00  0.00     0.001 A 
HETATM   21  C   UNK N   1      22.152  12.216  11.430  0.00  0.00     0.007 A 
ENDBRANCH  15  16
ENDBRANCH   1  15
TORSDOF 8
ENDMDL
MODEL 4
REMARK VINA RESULT:      -5.8      4.228     10.339
REMARK  8 active torsions:
REMARK  status: ('A' for Active; 'I' for Inactive)
REMARK    1  A    between atoms: O_1  and  C_6 
REMARK    2  A    between atoms: O_1  and  C_11 
REMARK    3  A    between atoms: N_2  and  C_3 
REMARK    4  A    between atoms: N_2  and  C_4 
REMARK    5  A    between atoms: N_2  and  C_5 
REMARK    6  A    between atoms: C_3  and  C_6 
REMARK    7  A    between atoms: C_9  and  C_10 
REMARK    8  A    between atoms: C_10  and  C_12 
ROOT
HETATM    1  C   UNK N   1      33.127  16.502   8.537  0.00  0.00    -0.054 A 
HETATM    2  C   UNK N   1      34.679  15.459  10.631  0.00  0.00     0.068 A 
HETATM    3  C   UNK N   1      34.219  17.220   9.037  0.00  0.00     0.010 A 
HETATM    4  C   UNK N   1      32.807  15.255   9.087  0.00  0.00     0.010 A 
HETATM    5  C   UNK N   1      35.004  16.690  10.059  0.00  0.00     0.037 A 
HETATM    6  C   UNK N   1      33.573  14.737  10.140  0.00  0.00     0.037 A 
ENDROOT
BRANCH   2   7
HETATM    7  O   UNK N   1      35.422  15.015  11.670  0.00  0.00    -0.349 OA
BRANCH   7   8
HETATM    8  C   UNK N   1      35.119  13.868  12.369  0.00  0.00     0.206 C 
BRANCH   8   9
HETATM    9  C   UNK N   1      35.740  13.832  13.767  0.00  0.00     0.299 C 
BRANCH   9  10
HETATM   10  N   UNK N   1      35.088  12.841  14.634  0.00  0.00     0.089 N 
BRANCH  10  11
HETATM   11  C   UNK N   1      35.887  12.692  15.850  0.00  0.00     0.268 C 
HETATM   12  C   UNK N   1      35.194  13.344  17.030  0.00  0.00     0.037 C 
ENDBRANCH  10  11
BRANCH  10  13
HETATM   13  C   UNK N   1      35.005  11.553  13.940  0.00  0.00     0.268 C 
HETATM   14  C   UNK N   1      33.738  10.812  14.322  0.00  0.00     0.037 C 
ENDBRANCH  10  13
ENDBRANCH   9  10
ENDBRANCH   8   9
ENDBRANCH   7   8
ENDBRANCH   2   7
BRANCH   1  15
HETATM   15  C   UNK N   1      32.259  17.103   7.471  0.00  0.00     0.077 C 
BRANCH  15  16
HETATM   16  C   UNK N   1      30.878  17.517   7.910  0.00  0.00    -0.054 A 
HETATM   17  C   UNK N   1      30.660  18.301   9.057  0.00  0.00     0.007 A 
HETATM   18  C   UNK N   1      29.361  18.619   9.459  0.00  0.00     0.001 A 
HETATM   19  C   UNK N   1      28.269  18.153   8.723  0.00  0.00     0.000 A 
HETATM   20  C   UNK N   1      28.478  17.376   7.579  0.00  0.00     0.001 A 
HETATM   21  C   UNK N   1      29.779  17.059   7.175  0.00  0.00     0.007 A 
ENDBRANCH  15  16
ENDBRANCH   1  15
TORSDOF 8
ENDMDL
MODEL 5
REMARK VINA RESULT:      -5.8      2.393      4.129
REMARK  8 active torsions:
REMARK  status: ('A' for Active; 'I' for Inactive)
REMARK    1  A    between atoms: O_1  and  C_6 
REMARK    2  A    between atoms: O_1  and  C_11 
REMARK    3  A    between atoms: N_2  and  C_3 
REMARK    4  A    between atoms: N_2  and  C_4 
REMARK    5  A    between atoms: N_2  and  C_5 
REMARK    6  A    between atoms: C_3  and  C_6 
REMARK    7  A    between atoms: C_9  and  C_10 
REMARK    8  A    between atoms: C_10  and  C_12 
ROOT
HETATM    1  C   UNK N   1      35.112   9.987  15.313  0.00  0.00    -0.054 A 
HETATM    2  C   UNK N   1      35.076  10.356  12.530  0.00  0.00     0.068 A 
HETATM    3  C   UNK N   1      33.942  10.403  14.667  0.00  0.00     0.010 A 
HETATM    4  C   UNK N   1      36.271   9.754  14.564  0.00  0.00     0.010 A 
HETATM    5  C   UNK N   1      33.918  10.562  13.283  0.00  0.00     0.037 A 
HETATM    6  C   UNK N   1      36.259   9.948  13.177  0.00  0.00     0.037 A 
ENDROOT
BRANCH   2   7
HETATM    7  O   UNK N   1      35.029  10.592  11.200  0.00  0.00    -0.349 OA
BRANCH   7   8
HETATM    8  C   UNK N   1      35.700  11.635  10.602  0.00  0.00     0.206 C 
BRANCH   8   9
HETATM    9  C   UNK N   1      34.927  12.955  10.648  0.00  0.00     0.299 C 
BRANCH   9  10
HETATM   10  N   UNK N   1      35.779  14.078  11.061  0.00  0.00     0.089 N 
BRANCH  10  11
HETATM   11  C   UNK N   1      36.549  13.670  12.234  0.00  0.00     0.268 C 
HETATM   12  C   UNK N   1      35.750  13.889  13.504  0.00  0.00     0.037 C 
ENDBRANCH  10  11
BRANCH  10  13
HETATM   13  C   UNK N   1      34.944  15.234  11.400  0.00  0.00     0.268 C 
HETATM   14  C   UNK N   1      35.552  16.518  10.865  0.00  0.00     0.037 C 
ENDBRANCH  10  13
ENDBRANCH   9  10
ENDBRANCH   8   9
ENDBRANCH   7   8
ENDBRANCH   2   7
BRANCH   1  15
HETATM   15  C   UNK N   1      35.141   9.867  16.808  0.00  0.00     0.077 C 
BRANCH  15  16
HETATM   16  C   UNK N   1      35.207  11.169  17.566  0.00  0.00    -0.054 A 
HETATM   17  C   UNK N   1      35.293  11.216  18.968  0.00  0.00     0.007 A 
HETATM   18  C   UNK N   1      35.299  12.442  19.635  0.00  0.00     0.001 A 
HETATM   19  C   UNK N   1      35.214  13.632  18.908  0.00  0.00     0.000 A 
HETATM   20  C   UNK N   1      35.132  13.593  17.512  0.00  0.00     0.001 A 
HETATM   21  C   UNK N   1      35.128  12.365  16.845  0.00  0.00     0.007 A 
ENDBRANCH  15  16
ENDBRANCH   1  15
TORSDOF 8
ENDMDL
MODEL 6
REMARK VINA RESULT:      -5.7      4.061     10.277
REMARK  8 active torsions:
REMARK  status: ('A' for Active; 'I' for Inactive)
REMARK    1  A    between atoms: O_1  and  C_6 
REMARK    2  A    between atoms: O_1  and  C_11 
REMARK    3  A    between atoms: N_2  and  C_3 
REMARK    4  A    between atoms: N_2  and  C_4 
REMARK    5  A    between atoms: N_2  and  C_5 
REMARK    6  A    between atoms: C_3  and  C_6 
REMARK    7  A    between atoms: C_9  and  C_10 
REMARK    8  A    between atoms: C_10  and  C_12 
ROOT
HETATM    1  C   UNK N   1      33.453  16.418   8.793  0.00  0.00    -0.054 A 
HETATM    2  C   UNK N   1      34.964  15.425  10.941  0.00  0.00     0.068 A 
HETATM    3  C   UNK N   1      33.159  15.168   9.350  0.00  0.00     0.010 A 
HETATM    4  C   UNK N   1      34.509  17.177   9.313  0.00  0.00     0.010 A 
HETATM    5  C   UNK N   1      33.894  14.687  10.432  0.00  0.00     0.037 A 
HETATM    6  C   UNK N   1      35.271  16.678  10.377  0.00  0.00     0.037 A 
ENDROOT
BRANCH   2   7
HETATM    7  O   UNK N   1      35.696  14.889  11.943  0.00  0.00    -0.349 OA
BRANCH   7   8
HETATM    8  C   UNK N   1      35.316  13.753  12.622  0.00  0.00     0.206 C 
BRANCH   8   9
HETATM    9  C   UNK N   1      35.713  13.772  14.100  0.00  0.00     0.299 C 
BRANCH   9  10
HETATM   10  N   UNK N   1      35.295  12.549  14.799  0.00  0.00     0.089 N 
BRANCH  10  11
HETATM   11  C   UNK N   1      34.486  11.745  13.884  0.00  0.00     0.268 C 
HETATM   12  C   UNK N   1      33.656  10.734  14.650  0.00  0.00     0.037 C 
ENDBRANCH  10  11
BRANCH  10  13
HETATM   13  C   UNK N   1      34.499  12.900  15.978  0.00  0.00     0.268 C 
HETATM   14  C   UNK N   1      35.342  12.843  17.238  0.00  0.00     0.037 C 
ENDBRANCH  10  13
ENDBRANCH   9  10
ENDBRANCH   8   9
ENDBRANCH   7   8
ENDBRANCH   2   7
BRANCH   1  15
HETATM   15  C   UNK N   1      32.689  16.905   7.597  0.00  0.00     0.077 C 
BRANCH  15  16
HETATM   16  C   UNK N   1      31.264  17.321   7.859  0.00  0.00    -0.054 A 
HETATM   17  C   UNK N   1      30.197  16.887   7.053  0.00  0.00     0.007 A 
HETATM   18  C   UNK N   1      28.899  17.338   7.297  0.00  0.00     0.001 A 
HETATM   19  C   UNK N   1      28.655  18.229   8.345  0.00  0.00     0.000 A 
HETATM   20  C   UNK N   1      29.711  18.662   9.154  0.00  0.00     0.001 A 
HETATM   21  C   UNK N   1      31.011  18.209   8.910  0.00  0.00     0.007 A 
ENDBRANCH  15  16
ENDBRANCH   1  15
TORSDOF 8
ENDMDL
MODEL 7
REMARK VINA RESULT:      -5.6     22.417     25.225
REMARK  8 active torsions:
REMARK  status: ('A' for Active; 'I' for Inactive)
REMARK    1  A    between atoms: O_1  and  C_6 
REMARK    2  A    between atoms: O_1  and  C_11 
REMARK    3  A    between atoms: N_2  and  C_3 
REMARK    4  A    between atoms: N_2  and  C_4 
REMARK    5  A    between atoms: N_2  and  C_5 
REMARK    6  A    between atoms: C_3  and  C_6 
REMARK    7  A    between atoms: C_9  and  C_10 
REMARK    8  A    between atoms: C_10  and  C_12 
ROOT
HETATM    1  C   UNK N   1      27.837  23.881  -3.534  0.00  0.00    -0.054 A 
HETATM    2  C   UNK N   1      30.497  23.224  -2.921  0.00  0.00     0.068 A 
HETATM    3  C   UNK N   1      28.157  23.284  -2.309  0.00  0.00     0.010 A 
HETATM    4  C   UNK N   1      28.852  24.151  -4.459  0.00  0.00     0.010 A 
HETATM    5  C   UNK N   1      29.480  22.981  -1.996  0.00  0.00     0.037 A 
HETATM    6  C   UNK N   1      30.179  23.814  -4.160  0.00  0.00     0.037 A 
ENDROOT
BRANCH   2   7
HETATM    7  O   UNK N   1      31.757  22.848  -2.607  0.00  0.00    -0.349 OA
BRANCH   7   8
HETATM    8  C   UNK N   1      32.210  21.556  -2.756  0.00  0.00     0.206 C 
BRANCH   8   9
HETATM    9  C   UNK N   1      33.066  21.358  -4.009  0.00  0.00     0.299 C 
BRANCH   9  10
HETATM   10  N   UNK N   1      33.080  19.956  -4.450  0.00  0.00     0.089 N 
BRANCH  10  11
HETATM   11  C   UNK N   1      34.448  19.450  -4.345  0.00  0.00     0.268 C 
HETATM   12  C   UNK N   1      34.456  17.935  -4.286  0.00  0.00     0.037 C 
ENDBRANCH  10  11
BRANCH  10  13
HETATM   13  C   UNK N   1      32.632  19.870  -5.843  0.00  0.00     0.268 C 
HETATM   14  C   UNK N   1      31.166  20.244  -5.965  0.00  0.00     0.037 C 
ENDBRANCH  10  13
ENDBRANCH   9  10
ENDBRANCH   8   9
ENDBRANCH   7   8
ENDBRANCH   2   7
BRANCH   1  15
HETATM   15  C   UNK N   1      26.404  24.157  -3.882  0.00  0.00     0.077 C 
BRANCH  15  16
HETATM   16  C   UNK N   1      26.071  25.597  -4.179  0.00  0.00    -0.054 A 
HETATM   17  C   UNK N   1      26.344  26.632  -3.269  0.00  0.00     0.007 A 
HETATM   18  C   UNK N   1      25.971  27.946  -3.560  0.00  0.00     0.001 A 
HETATM   19  C   UNK N   1      25.319  28.235  -4.761  0.00  0.00     0.000 A 
HETATM   20  C   UNK N   1      25.048  27.211  -5.674  0.00  0.00     0.001 A 
HETATM   21  C   UNK N   1      25.422  25.896  -5.382  0.00  0.00     0.007 A 
ENDBRANCH  15  16
ENDBRANCH   1  15
TORSDOF 8
ENDMDL
MODEL 8
REMARK VINA RESULT:      -5.6     22.850     25.933
REMARK  8 active torsions:
REMARK  status: ('A' for Active; 'I' for Inactive)
REMARK    1  A    between atoms: O_1  and  C_6 
REMARK    2  A    between atoms: O_1  and  C_11 
REMARK    3  A    between atoms: N_2  and  C_3 
REMARK    4  A    between atoms: N_2  and  C_4 
REMARK    5  A    between atoms: N_2  and  C_5 
REMARK    6  A    between atoms: C_3  and  C_6 
REMARK    7  A    between atoms: C_9  and  C_10 
REMARK    8  A    between atoms: C_10  and  C_12 
ROOT
HETATM    1  C   UNK N   1      27.878  24.694  -3.514  0.00  0.00    -0.054 A 
HETATM    2  C   UNK N   1      30.090  23.273  -2.530  0.00  0.00     0.068 A 
HETATM    3  C   UNK N   1      27.700  23.635  -2.616  0.00  0.00     0.010 A 
HETATM    4  C   UNK N   1      29.170  25.045  -3.923  0.00  0.00     0.010 A 
HETATM    5  C   UNK N   1      28.800  22.947  -2.109  0.00  0.00     0.037 A 
HETATM    6  C   UNK N   1      30.275  24.330  -3.442  0.00  0.00     0.037 A 
ENDROOT
BRANCH   2   7
HETATM    7  O   UNK N   1      31.124  22.533  -2.070  0.00  0.00    -0.349 OA
BRANCH   7   8
HETATM    8  C   UNK N   1      32.014  21.892  -2.904  0.00  0.00     0.206 C 
BRANCH   8   9
HETATM    9  C   UNK N   1      31.332  21.128  -4.040  0.00  0.00     0.299 C 
BRANCH   9  10
HETATM   10  N   UNK N   1      31.966  21.393  -5.340  0.00  0.00     0.089 N 
BRANCH  10  11
HETATM   11  C   UNK N   1      33.107  22.282  -5.127  0.00  0.00     0.268 C 
HETATM   12  C   UNK N   1      33.038  23.475  -6.061  0.00  0.00     0.037 C 
ENDBRANCH  10  11
BRANCH  10  13
HETATM   13  C   UNK N   1      31.004  22.035  -6.239  0.00  0.00     0.268 C 
HETATM   14  C   UNK N   1      29.582  21.646  -5.879  0.00  0.00     0.037 C 
ENDBRANCH  10  13
ENDBRANCH   9  10
ENDBRANCH   8   9
ENDBRANCH   7   8
ENDBRANCH   2   7
BRANCH   1  15
HETATM   15  C   UNK N   1      26.685  25.396  -4.092  0.00  0.00     0.077 C 
BRANCH  15  16
HETATM   16  C   UNK N   1      26.304  24.990  -5.493  0.00  0.00    -0.054 A 
HETATM   17  C   UNK N   1      26.176  23.642  -5.873  0.00  0.00     0.007 A 
HETATM   18  C   UNK N   1      25.873  23.307  -7.194  0.00  0.00     0.001 A 
HETATM   19  C   UNK N   1      25.700  24.314  -8.147  0.00  0.00     0.000 A 
HETATM   20  C   UNK N   1      25.822  25.656  -7.776  0.00  0.00     0.001 A 
HETATM   21  C   UNK N   1      26.123  25.992  -6.452  0.00  0.00     0.007 A 
ENDBRANCH  15  16
ENDBRANCH   1  15
TORSDOF 8
ENDMDL
MODEL 9
REMARK VINA RESULT:      -5.5      7.181     13.139
REMARK  8 active torsions:
REMARK  status: ('A' for Active; 'I' for Inactive)
REMARK    1  A    between atoms: O_1  and  C_6 
REMARK    2  A    between atoms: O_1  and  C_11 
REMARK    3  A    between atoms: N_2  and  C_3 
REMARK    4  A    between atoms: N_2  and  C_4 
REMARK    5  A    between atoms: N_2  and  C_5 
REMARK    6  A    between atoms: C_3  and  C_6 
REMARK    7  A    between atoms: C_9  and  C_10 
REMARK    8  A    between atoms: C_10  and  C_12 
ROOT
HETATM    1  C   UNK N   1      30.030  17.412   7.055  0.00  0.00    -0.054 A 
HETATM    2  C   UNK N   1      32.755  17.666   7.680  0.00  0.00     0.068 A 
HETATM    3  C   UNK N   1      31.009  17.094   6.106  0.00  0.00     0.010 A 
HETATM    4  C   UNK N   1      30.416  17.860   8.324  0.00  0.00     0.010 A 
HETATM    5  C   UNK N   1      32.361  17.197   6.426  0.00  0.00     0.037 A 
HETATM    6  C   UNK N   1      31.775  17.998   8.635  0.00  0.00     0.037 A 
ENDROOT
BRANCH   2   7
HETATM    7  O   UNK N   1      34.076  17.820   7.924  0.00  0.00    -0.349 OA
BRANCH   7   8
HETATM    8  C   UNK N   1      34.879  16.794   8.369  0.00  0.00     0.206 C 
BRANCH   8   9
HETATM    9  C   UNK N   1      34.796  16.574   9.880  0.00  0.00     0.299 C 
BRANCH   9  10
HETATM   10  N   UNK N   1      34.390  15.202  10.217  0.00  0.00     0.089 N 
BRANCH  10  11
HETATM   11  C   UNK N   1      35.524  14.524  10.843  0.00  0.00     0.268 C 
HETATM   12  C   UNK N   1      35.105  13.873  12.147  0.00  0.00     0.037 C 
ENDBRANCH  10  11
BRANCH  10  13
HETATM   13  C   UNK N   1      34.003  14.487   8.998  0.00  0.00     0.268 C 
HETATM   14  C   UNK N   1      32.506  14.242   8.964  0.00  0.00     0.037 C 
ENDBRANCH  10  13
ENDBRANCH   9  10
ENDBRANCH   8   9
ENDBRANCH   7   8
ENDBRANCH   2   7
BRANCH   1  15
HETATM   15  C   UNK N   1      28.578  17.346   6.685  0.00  0.00     0.077 C 
BRANCH  15  16
HETATM   16  C   UNK N   1      27.999  18.603   6.086  0.00  0.00    -0.054 A 
HETATM   17  C   UNK N   1      27.859  18.775   4.698  0.00  0.00     0.007 A 
HETATM   18  C   UNK N   1      27.367  19.976   4.182  0.00  0.00     0.001 A 
HETATM   19  C   UNK N   1      27.016  21.015   5.047  0.00  0.00     0.000 A 
HETATM   20  C   UNK N   1      27.149  20.849   6.429  0.00  0.00     0.001 A 
HETATM   21  C   UNK N   1      27.640  19.646   6.946  0.00  0.00     0.007 A 
ENDBRANCH  15  16
ENDBRANCH   1  15
TORSDOF 8
ENDMDL
