REMARK  8 active torsions:
REMARK  status: ('A' for Active; 'I' for Inactive)
REMARK    1  A    between atoms: O_5  and  C_10 
REMARK    2  A    between atoms: O_6  and  C_11 
REMARK    3  A    between atoms: N_7  and  C_14 
REMARK    4  A    between atoms: N_7  and  C_15 
REMARK    5  A    between atoms: C_8  and  C_10 
REMARK    6  A    between atoms: C_9  and  C_11 
REMARK    7  A    between atoms: C_10  and  C_14 
REMARK    8  A    between atoms: C_11  and  C_15 
ROOT
HETATM    1  N   UNK N   1       7.604  -0.683  -0.294  0.00  0.00    -0.416 N 
HETATM    2  H   UNK N   1       7.785   0.160   0.251  0.00  0.00     0.153 HD
ENDROOT
BRANCH   1   3
HETATM    3  C   UNK N   1       6.404  -1.007  -1.038  0.00  0.00     0.148 C 
BRANCH   3   4
HETATM    4  C   UNK N   1       5.259  -1.286  -0.082  0.00  0.00     0.164 C 
BRANCH   4   5
HETATM    5  O   UNK N   1       4.728  -2.540  -0.386  0.00  0.00    -0.391 OA
HETATM    6  H   UNK N   1       3.788  -2.656  -0.597  0.00  0.00     0.210 HD
ENDBRANCH   4   5
BRANCH   4   7
HETATM    7  C   UNK N   1       4.204  -0.213  -0.290  0.00  0.00     0.159 C 
HETATM    8  O   UNK N   1       2.992  -0.567   0.269  0.00  0.00    -0.343 OA
HETATM    9  C   UNK N   1       1.951   0.296   0.230  0.00  0.00     0.075 A 
HETATM   10  C   UNK N   1       2.181   1.673   0.025  0.00  0.00    -0.022 A 
HETATM   11  C   UNK N   1       0.646  -0.180   0.373  0.00  0.00     0.040 A 
HETATM   12  C   UNK N   1       3.586   2.203  -0.100  0.00  0.00     0.044 C 
HETATM   13  C   UNK N   1       1.098   2.551  -0.070  0.00  0.00     0.052 A 
HETATM   14  C   UNK N   1       4.647   1.149   0.242  0.00  0.00     0.040 C 
HETATM   15  C   UNK N   1      -0.207   2.066   0.050  0.00  0.00     0.117 A 
HETATM   16  F   UNK N   1      -1.255   2.917  -0.056  0.00  0.00    -0.206 F 
HETATM   17  C   UNK N   1      -0.433   0.705   0.280  0.00  0.00     0.045 A 
ENDBRANCH   4   7
ENDBRANCH   3   4
ENDBRANCH   1   3
BRANCH   1  18
HETATM   18  C   UNK N   1       8.492  -1.812  -0.489  0.00  0.00     0.148 C 
BRANCH  18  19
HETATM   19  C   UNK N   1       9.733  -1.705   0.381  0.00  0.00     0.164 C 
BRANCH  19  20
HETATM   20  O   UNK N   1      10.401  -2.928   0.310  0.00  0.00    -0.391 OA
HETATM   21  H   UNK N   1       9.897  -3.756   0.261  0.00  0.00     0.210 HD
ENDBRANCH  19  20
BRANCH  19  22
HETATM   22  C   UNK N   1      10.652  -0.584  -0.106  0.00  0.00     0.159 C 
HETATM   23  O   UNK N   1      11.937  -0.778   0.367  0.00  0.00    -0.343 OA
HETATM   24  C   UNK N   1      12.892   0.166   0.229  0.00  0.00     0.075 A 
HETATM   25  C   UNK N   1      12.540   1.501  -0.052  0.00  0.00    -0.022 A 
HETATM   26  C   UNK N   1      14.238  -0.185   0.368  0.00  0.00     0.040 A 
HETATM   27  C   UNK N   1      11.092   1.894  -0.176  0.00  0.00     0.044 C 
HETATM   28  C   UNK N   1      13.540   2.465  -0.209  0.00  0.00     0.052 A 
HETATM   29  C   UNK N   1      10.142   0.795   0.319  0.00  0.00     0.040 C 
HETATM   30  C   UNK N   1      14.886   2.105  -0.079  0.00  0.00     0.117 A 
HETATM   31  F   UNK N   1      15.854   3.039  -0.228  0.00  0.00    -0.206 F 
HETATM   32  C   UNK N   1      15.233   0.782   0.212  0.00  0.00     0.045 A 
ENDBRANCH  19  22
ENDBRANCH  18  19
ENDBRANCH   1  18
TORSDOF 8
