MODEL 1
REMARK VINA RESULT:      -7.1      0.000      0.000
REMARK  5 active torsions:
REMARK  status: ('A' for Active; 'I' for Inactive)
REMARK    1  A    between atoms: C_9  and  C_4 
REMARK    2  A    between atoms: C_14  and  C_4 
REMARK    3  A    between atoms: C_9  and  C_7 
REMARK    4  A    between atoms: N_22  and  C_7 
REMARK    5  A    between atoms: C_15  and  O_24 
ROOT
HETATM    1  C   UNK N   1      33.654  17.068   6.631  0.00  0.00     0.044 A 
HETATM    2  C   UNK N   1      34.743  14.767   5.466  0.00  0.00     0.051 A 
HETATM    3  C   UNK N   1      36.043  14.487   8.847  0.00  0.00     0.187 A 
HETATM    4  C   UNK N   1      34.453  16.208   7.397  0.00  0.00     0.060 A 
HETATM    5  C   UNK N   1      33.957  15.633   4.699  0.00  0.00     0.035 A 
HETATM    6  C   UNK N   1      33.405  16.785   5.286  0.00  0.00     0.052 A 
HETATM    7  C   UNK N   1      34.992  15.050   6.810  0.00  0.00     0.050 A 
HETATM    8  C   UNK N   1      34.747  16.480   8.738  0.00  0.00     0.261 A 
HETATM    9 Br   UNK N   1      33.676  15.217   2.853  0.00  0.00    -0.049 Br
HETATM   10 Cl   UNK N   1      32.413  17.899   4.360  0.00  0.00    -0.083 Cl
HETATM   11  N   UNK N   1      35.764  14.215   7.547  0.00  0.00    -0.351 N 
ATOM     12  HN  UNK N   1      36.140  13.370   7.118  1.00  0.00     0.166 HD
HETATM   13  N   UNK N   1      35.556  15.615   9.446  0.00  0.00    -0.303 N 
HETATM   14  O   UNK N   1      34.299  17.482   9.274  0.00  0.00    -0.267 OA
ENDROOT
BRANCH  13  15
HETATM   15  C   UNK N   1      35.891  15.922  10.841  0.00  0.00     0.211 C 
BRANCH  15  16
HETATM   16  C   UNK N   1      35.349  14.916  11.809  0.00  0.00     0.147 C 
HETATM   17  O   UNK N   1      34.157  14.641  11.803  0.00  0.00    -0.296 OA
BRANCH  16  18
HETATM   18  C   UNK N   1      36.305  14.239  12.747  0.00  0.00     0.107 C 
BRANCH  18  19
HETATM   19  C   UNK N   1      35.682  13.604  13.991  0.00  0.00     0.112 C 
HETATM   20  C   UNK N   1      36.768  13.169  15.003  0.00  0.00     0.140 C 
HETATM   21  C   UNK N   1      36.105  12.468  16.189  0.00  0.00     0.035 C 
HETATM   22  C   UNK N   1      35.237  11.310  15.708  0.00  0.00     0.022 C 
HETATM   23  C   UNK N   1      34.229  11.826  14.686  0.00  0.00     0.114 C 
HETATM   24  N   UNK N   1      34.931  12.426  13.550  0.00  0.00    -0.414 N 
HETATM   25  H   UNK N   1      34.901  12.075  12.593  0.00  0.00     0.153 HD
BRANCH  20  26
HETATM   26  O   UNK N   1      37.487  14.269  15.472  0.00  0.00    -0.394 OA
HETATM   27  H   UNK N   1      37.933  14.318  16.333  0.00  0.00     0.210 HD
ENDBRANCH  20  26
ENDBRANCH  18  19
ENDBRANCH  16  18
ENDBRANCH  15  16
ENDBRANCH  13  15
TORSDOF 5
ENDMDL
MODEL 2
REMARK VINA RESULT:      -7.1      4.634      7.815
REMARK  5 active torsions:
REMARK  status: ('A' for Active; 'I' for Inactive)
REMARK    1  A    between atoms: C_9  and  C_4 
REMARK    2  A    between atoms: C_14  and  C_4 
REMARK    3  A    between atoms: C_9  and  C_7 
REMARK    4  A    between atoms: N_22  and  C_7 
REMARK    5  A    between atoms: C_15  and  O_24 
ROOT
HETATM    1  C   UNK N   1      35.920  15.353  12.278  0.00  0.00     0.044 A 
HETATM    2  C   UNK N   1      35.125  12.835  11.347  0.00  0.00     0.051 A 
HETATM    3  C   UNK N   1      34.277  14.906   8.486  0.00  0.00     0.187 A 
HETATM    4  C   UNK N   1      35.373  15.223  10.994  0.00  0.00     0.060 A 
HETATM    5  C   UNK N   1      35.657  12.967  12.634  0.00  0.00     0.035 A 
HETATM    6  C   UNK N   1      36.063  14.231  13.098  0.00  0.00     0.052 A 
HETATM    7  C   UNK N   1      34.981  13.956  10.529  0.00  0.00     0.050 A 
HETATM    8  C   UNK N   1      35.187  16.331  10.161  0.00  0.00     0.261 A 
HETATM    9 Br   UNK N   1      35.800  11.405  13.729  0.00  0.00    -0.049 Br
HETATM   10 Cl   UNK N   1      36.737  14.442  14.705  0.00  0.00    -0.083 Cl
HETATM   11  N   UNK N   1      34.453  13.825   9.287  0.00  0.00    -0.351 N 
ATOM     12  HN  UNK N   1      34.184  12.901   8.951  1.00  0.00     0.166 HD
HETATM   13  N   UNK N   1      34.624  16.157   8.913  0.00  0.00    -0.303 N 
HETATM   14  O   UNK N   1      35.510  17.446  10.540  0.00  0.00    -0.267 OA
ENDROOT
BRANCH  13  15
HETATM   15  C   UNK N   1      34.398  17.327   8.056  0.00  0.00     0.211 C 
BRANCH  15  16
HETATM   16  C   UNK N   1      32.966  17.483   7.641  0.00  0.00     0.147 C 
HETATM   17  O   UNK N   1      32.679  17.573   6.456  0.00  0.00    -0.296 OA
BRANCH  16  18
HETATM   18  C   UNK N   1      31.910  17.486   8.707  0.00  0.00     0.107 C 
BRANCH  18  19
HETATM   19  C   UNK N   1      30.493  17.825   8.241  0.00  0.00     0.112 C 
HETATM   20  C   UNK N   1      29.505  17.863   9.430  0.00  0.00     0.140 C 
HETATM   21  C   UNK N   1      28.092  18.122   8.908  0.00  0.00     0.035 C 
HETATM   22  C   UNK N   1      27.716  17.091   7.849  0.00  0.00     0.022 C 
HETATM   23  C   UNK N   1      28.767  17.096   6.744  0.00  0.00     0.114 C 
HETATM   24  N   UNK N   1      30.082  16.778   7.302  0.00  0.00    -0.414 N 
HETATM   25  H   UNK N   1      30.630  15.950   7.070  0.00  0.00     0.153 HD
BRANCH  20  26
HETATM   26  O   UNK N   1      29.845  18.870  10.334  0.00  0.00    -0.394 OA
HETATM   27  H   UNK N   1      29.223  19.507  10.718  0.00  0.00     0.210 HD
ENDBRANCH  20  26
ENDBRANCH  18  19
ENDBRANCH  16  18
ENDBRANCH  15  16
ENDBRANCH  13  15
TORSDOF 5
ENDMDL
MODEL 3
REMARK VINA RESULT:      -7.0      3.087      4.600
REMARK  5 active torsions:
REMARK  status: ('A' for Active; 'I' for Inactive)
REMARK    1  A    between atoms: C_9  and  C_4 
REMARK    2  A    between atoms: C_14  and  C_4 
REMARK    3  A    between atoms: C_9  and  C_7 
REMARK    4  A    between atoms: N_22  and  C_7 
REMARK    5  A    between atoms: C_15  and  O_24 
ROOT
HETATM    1  C   UNK N   1      31.258  16.916   4.644  0.00  0.00     0.044 A 
HETATM    2  C   UNK N   1      29.195  16.713   6.527  0.00  0.00     0.051 A 
HETATM    3  C   UNK N   1      31.952  17.738   8.659  0.00  0.00     0.187 A 
HETATM    4  C   UNK N   1      31.511  17.202   5.992  0.00  0.00     0.060 A 
HETATM    5  C   UNK N   1      28.946  16.414   5.184  0.00  0.00     0.035 A 
HETATM    6  C   UNK N   1      29.980  16.522   4.237  0.00  0.00     0.052 A 
HETATM    7  C   UNK N   1      30.471  17.106   6.933  0.00  0.00     0.050 A 
HETATM    8  C   UNK N   1      32.787  17.568   6.437  0.00  0.00     0.261 A 
HETATM    9 Br   UNK N   1      27.188  15.846   4.685  0.00  0.00    -0.049 Br
HETATM   10 Cl   UNK N   1      29.712  16.156   2.542  0.00  0.00    -0.083 Cl
HETATM   11  N   UNK N   1      30.712  17.383   8.238  0.00  0.00    -0.351 N 
ATOM     12  HN  UNK N   1      29.949  17.325   8.912  1.00  0.00     0.166 HD
HETATM   13  N   UNK N   1      32.994  17.820   7.778  0.00  0.00    -0.303 N 
HETATM   14  O   UNK N   1      33.712  17.654   5.645  0.00  0.00    -0.267 OA
ENDROOT
BRANCH  13  15
HETATM   15  C   UNK N   1      34.340  18.169   8.245  0.00  0.00     0.211 C 
BRANCH  15  16
HETATM   16  C   UNK N   1      34.936  17.130   9.145  0.00  0.00     0.147 C 
HETATM   17  O   UNK N   1      35.491  17.464  10.182  0.00  0.00    -0.296 OA
BRANCH  16  18
HETATM   18  C   UNK N   1      34.800  15.686   8.759  0.00  0.00     0.107 C 
BRANCH  18  19
HETATM   19  C   UNK N   1      35.194  14.669   9.831  0.00  0.00     0.112 C 
HETATM   20  C   UNK N   1      34.471  14.954  11.168  0.00  0.00     0.140 C 
HETATM   21  C   UNK N   1      34.957  13.966  12.228  0.00  0.00     0.035 C 
HETATM   22  C   UNK N   1      36.477  14.015  12.347  0.00  0.00     0.022 C 
HETATM   23  C   UNK N   1      37.098  13.766  10.977  0.00  0.00     0.114 C 
HETATM   24  N   UNK N   1      36.641  14.783  10.028  0.00  0.00    -0.414 N 
HETATM   25  H   UNK N   1      37.243  15.469   9.572  0.00  0.00     0.153 HD
BRANCH  20  26
HETATM   26  O   UNK N   1      33.088  14.825  11.030  0.00  0.00    -0.394 OA
HETATM   27  H   UNK N   1      32.634  14.040  10.686  0.00  0.00     0.210 HD
ENDBRANCH  20  26
ENDBRANCH  18  19
ENDBRANCH  16  18
ENDBRANCH  15  16
ENDBRANCH  13  15
TORSDOF 5
ENDMDL
MODEL 4
REMARK VINA RESULT:      -7.0      4.631      8.294
REMARK  5 active torsions:
REMARK  status: ('A' for Active; 'I' for Inactive)
REMARK    1  A    between atoms: C_9  and  C_4 
REMARK    2  A    between atoms: C_14  and  C_4 
REMARK    3  A    between atoms: C_9  and  C_7 
REMARK    4  A    between atoms: N_22  and  C_7 
REMARK    5  A    between atoms: C_15  and  O_24 
ROOT
HETATM    1  C   UNK N   1      36.400  15.087  13.190  0.00  0.00     0.044 A 
HETATM    2  C   UNK N   1      35.070  12.624  13.238  0.00  0.00     0.051 A 
HETATM    3  C   UNK N   1      34.292  13.741   9.871  0.00  0.00     0.187 A 
HETATM    4  C   UNK N   1      35.699  14.649  12.059  0.00  0.00     0.060 A 
HETATM    5  C   UNK N   1      35.758  13.067  14.372  0.00  0.00     0.035 A 
HETATM    6  C   UNK N   1      36.431  14.301  14.346  0.00  0.00     0.052 A 
HETATM    7  C   UNK N   1      35.038  13.408  12.085  0.00  0.00     0.050 A 
HETATM    8  C   UNK N   1      35.621  15.426  10.897  0.00  0.00     0.261 A 
HETATM    9 Br   UNK N   1      35.741  11.970  15.939  0.00  0.00    -0.049 Br
HETATM   10 Cl   UNK N   1      37.307  14.897  15.746  0.00  0.00    -0.083 Cl
HETATM   11  N   UNK N   1      34.360  12.980  10.992  0.00  0.00    -0.351 N 
ATOM     12  HN  UNK N   1      33.895  12.073  11.014  1.00  0.00     0.166 HD
HETATM   13  N   UNK N   1      34.901  14.963   9.816  0.00  0.00    -0.303 N 
HETATM   14  O   UNK N   1      36.179  16.512  10.847  0.00  0.00    -0.267 OA
ENDROOT
BRANCH  13  15
HETATM   15  C   UNK N   1      34.793  15.797   8.613  0.00  0.00     0.211 C 
BRANCH  15  16
HETATM   16  C   UNK N   1      33.566  16.657   8.603  0.00  0.00     0.147 C 
HETATM   17  O   UNK N   1      33.635  17.824   8.962  0.00  0.00    -0.296 OA
BRANCH  16  18
HETATM   18  C   UNK N   1      32.280  16.062   8.112  0.00  0.00     0.107 C 
BRANCH  18  19
HETATM   19  C   UNK N   1      31.269  17.049   7.527  0.00  0.00     0.112 C 
HETATM   20  C   UNK N   1      30.125  17.339   8.526  0.00  0.00     0.140 C 
HETATM   21  C   UNK N   1      29.099  18.263   7.869  0.00  0.00     0.035 C 
HETATM   22  C   UNK N   1      28.608  17.667   6.554  0.00  0.00     0.022 C 
HETATM   23  C   UNK N   1      29.805  17.375   5.655  0.00  0.00     0.114 C 
HETATM   24  N   UNK N   1      30.712  16.437   6.317  0.00  0.00    -0.414 N 
HETATM   25  H   UNK N   1      30.925  15.497   5.985  0.00  0.00     0.153 HD
BRANCH  20  26
HETATM   26  O   UNK N   1      30.610  17.952   9.682  0.00  0.00    -0.394 OA
HETATM   27  H   UNK N   1      30.638  18.910   9.835  0.00  0.00     0.210 HD
ENDBRANCH  20  26
ENDBRANCH  18  19
ENDBRANCH  16  18
ENDBRANCH  15  16
ENDBRANCH  13  15
TORSDOF 5
ENDMDL
MODEL 5
REMARK VINA RESULT:      -6.9      4.516      8.258
REMARK  5 active torsions:
REMARK  status: ('A' for Active; 'I' for Inactive)
REMARK    1  A    between atoms: C_9  and  C_4 
REMARK    2  A    between atoms: C_14  and  C_4 
REMARK    3  A    between atoms: C_9  and  C_7 
REMARK    4  A    between atoms: N_22  and  C_7 
REMARK    5  A    between atoms: C_15  and  O_24 
ROOT
HETATM    1  C   UNK N   1      36.487  14.121  13.988  0.00  0.00     0.044 A 
HETATM    2  C   UNK N   1      34.804  12.262  15.233  0.00  0.00     0.051 A 
HETATM    3  C   UNK N   1      34.291  11.400  11.742  0.00  0.00     0.187 A 
HETATM    4  C   UNK N   1      35.759  13.209  13.213  0.00  0.00     0.060 A 
HETATM    5  C   UNK N   1      35.520  13.182  16.006  0.00  0.00     0.035 A 
HETATM    6  C   UNK N   1      36.370  14.112  15.381  0.00  0.00     0.052 A 
HETATM    7  C   UNK N   1      34.920  12.273  13.843  0.00  0.00     0.050 A 
HETATM    8  C   UNK N   1      35.829  13.214  11.816  0.00  0.00     0.261 A 
HETATM    9 Br   UNK N   1      35.298  13.149  17.906  0.00  0.00    -0.049 Br
HETATM   10 Cl   UNK N   1      37.287  15.284  16.312  0.00  0.00    -0.083 Cl
HETATM   11  N   UNK N   1      34.215  11.387  13.097  0.00  0.00    -0.351 N 
ATOM     12  HN  UNK N   1      33.620  10.702  13.561  1.00  0.00     0.166 HD
HETATM   13  N   UNK N   1      35.077  12.310  11.093  0.00  0.00    -0.303 N 
HETATM   14  O   UNK N   1      36.543  14.020  11.239  0.00  0.00    -0.267 OA
ENDROOT
BRANCH  13  15
HETATM   15  C   UNK N   1      35.126  12.342   9.627  0.00  0.00     0.211 C 
BRANCH  15  16
HETATM   16  C   UNK N   1      33.915  12.976   9.013  0.00  0.00     0.147 C 
HETATM   17  O   UNK N   1      33.189  12.322   8.278  0.00  0.00    -0.296 OA
BRANCH  16  18
HETATM   18  C   UNK N   1      33.607  14.404   9.353  0.00  0.00     0.107 C 
BRANCH  18  19
HETATM   19  C   UNK N   1      34.165  15.454   8.390  0.00  0.00     0.112 C 
HETATM   20  C   UNK N   1      33.833  16.886   8.868  0.00  0.00     0.140 C 
HETATM   21  C   UNK N   1      34.337  17.896   7.836  0.00  0.00     0.035 C 
HETATM   22  C   UNK N   1      33.769  17.578   6.457  0.00  0.00     0.022 C 
HETATM   23  C   UNK N   1      34.109  16.137   6.092  0.00  0.00     0.114 C 
HETATM   24  N   UNK N   1      33.543  15.222   7.084  0.00  0.00    -0.414 N 
HETATM   25  H   UNK N   1      32.823  14.526   6.893  0.00  0.00     0.153 HD
BRANCH  20  26
HETATM   26  O   UNK N   1      34.434  17.159  10.098  0.00  0.00    -0.394 OA
HETATM   27  H   UNK N   1      34.730  18.035  10.392  0.00  0.00     0.210 HD
ENDBRANCH  20  26
ENDBRANCH  18  19
ENDBRANCH  16  18
ENDBRANCH  15  16
ENDBRANCH  13  15
TORSDOF 5
ENDMDL
MODEL 6
REMARK VINA RESULT:      -6.8      4.740      8.335
REMARK  5 active torsions:
REMARK  status: ('A' for Active; 'I' for Inactive)
REMARK    1  A    between atoms: C_9  and  C_4 
REMARK    2  A    between atoms: C_14  and  C_4 
REMARK    3  A    between atoms: C_9  and  C_7 
REMARK    4  A    between atoms: N_22  and  C_7 
REMARK    5  A    between atoms: C_15  and  O_24 
ROOT
HETATM    1  C   UNK N   1      35.871  13.677  14.940  0.00  0.00     0.044 A 
HETATM    2  C   UNK N   1      36.934  11.100  14.694  0.00  0.00     0.051 A 
HETATM    3  C   UNK N   1      37.558  12.405  11.362  0.00  0.00     0.187 A 
HETATM    4  C   UNK N   1      36.440  13.269  13.726  0.00  0.00     0.060 A 
HETATM    5  C   UNK N   1      36.354  11.502  15.901  0.00  0.00     0.035 A 
HETATM    6  C   UNK N   1      35.825  12.799  16.026  0.00  0.00     0.052 A 
HETATM    7  C   UNK N   1      36.979  11.977  13.609  0.00  0.00     0.050 A 
HETATM    8  C   UNK N   1      36.472  14.113  12.611  0.00  0.00     0.261 A 
HETATM    9 Br   UNK N   1      36.286  10.250  17.345  0.00  0.00    -0.049 Br
HETATM   10 Cl   UNK N   1      35.087  13.346  17.522  0.00  0.00    -0.083 Cl
HETATM   11  N   UNK N   1      37.531  11.578  12.437  0.00  0.00    -0.351 N 
ATOM     12  HN  UNK N   1      37.933  10.644  12.364  1.00  0.00     0.166 HD
HETATM   13  N   UNK N   1      37.022  13.660  11.430  0.00  0.00    -0.303 N 
HETATM   14  O   UNK N   1      36.004  15.240  12.679  0.00  0.00    -0.267 OA
ENDROOT
BRANCH  13  15
HETATM   15  C   UNK N   1      37.022  14.536  10.252  0.00  0.00     0.211 C 
BRANCH  15  16
HETATM   16  C   UNK N   1      36.088  14.072   9.177  0.00  0.00     0.147 C 
HETATM   17  O   UNK N   1      36.531  13.538   8.170  0.00  0.00    -0.296 OA
BRANCH  16  18
HETATM   18  C   UNK N   1      34.613  14.247   9.388  0.00  0.00     0.107 C 
BRANCH  18  19
HETATM   19  C   UNK N   1      34.053  15.634   9.066  0.00  0.00     0.112 C 
HETATM   20  C   UNK N   1      32.511  15.604   8.956  0.00  0.00     0.140 C 
HETATM   21  C   UNK N   1      32.004  16.989   8.553  0.00  0.00     0.035 C 
HETATM   22  C   UNK N   1      32.686  17.455   7.272  0.00  0.00     0.022 C 
HETATM   23  C   UNK N   1      34.199  17.410   7.461  0.00  0.00     0.114 C 
HETATM   24  N   UNK N   1      34.623  16.046   7.780  0.00  0.00    -0.414 N 
HETATM   25  H   UNK N   1      35.225  15.468   7.194  0.00  0.00     0.153 HD
BRANCH  20  26
HETATM   26  O   UNK N   1      31.927  15.245  10.172  0.00  0.00    -0.394 OA
HETATM   27  H   UNK N   1      32.384  14.792  10.897  0.00  0.00     0.210 HD
ENDBRANCH  20  26
ENDBRANCH  18  19
ENDBRANCH  16  18
ENDBRANCH  15  16
ENDBRANCH  13  15
TORSDOF 5
ENDMDL
MODEL 7
REMARK VINA RESULT:      -6.8      4.458      5.720
REMARK  5 active torsions:
REMARK  status: ('A' for Active; 'I' for Inactive)
REMARK    1  A    between atoms: C_9  and  C_4 
REMARK    2  A    between atoms: C_14  and  C_4 
REMARK    3  A    between atoms: C_9  and  C_7 
REMARK    4  A    between atoms: N_22  and  C_7 
REMARK    5  A    between atoms: C_15  and  O_24 
ROOT
HETATM    1  C   UNK N   1      28.156  19.293   7.417  0.00  0.00     0.044 A 
HETATM    2  C   UNK N   1      28.407  18.395   4.778  0.00  0.00     0.051 A 
HETATM    3  C   UNK N   1      30.770  16.208   6.458  0.00  0.00     0.187 A 
HETATM    4  C   UNK N   1      29.039  18.248   7.115  0.00  0.00     0.060 A 
HETATM    5  C   UNK N   1      27.536  19.448   5.077  0.00  0.00     0.035 A 
HETATM    6  C   UNK N   1      27.405  19.894   6.404  0.00  0.00     0.052 A 
HETATM    7  C   UNK N   1      29.157  17.796   5.790  0.00  0.00     0.050 A 
HETATM    8  C   UNK N   1      29.829  17.646   8.102  0.00  0.00     0.261 A 
HETATM    9 Br   UNK N   1      26.557  20.259   3.647  0.00  0.00    -0.049 Br
HETATM   10 Cl   UNK N   1      26.324  21.211   6.824  0.00  0.00    -0.083 Cl
HETATM   11  N   UNK N   1      30.010  16.785   5.493  0.00  0.00    -0.351 N 
ATOM     12  HN  UNK N   1      30.080  16.452   4.532  1.00  0.00     0.166 HD
HETATM   13  N   UNK N   1      30.701  16.636   7.754  0.00  0.00    -0.303 N 
HETATM   14  O   UNK N   1      29.754  18.022   9.262  0.00  0.00    -0.267 OA
ENDROOT
BRANCH  13  15
HETATM   15  C   UNK N   1      31.552  16.032   8.785  0.00  0.00     0.211 C 
BRANCH  15  16
HETATM   16  C   UNK N   1      32.980  16.479   8.703  0.00  0.00     0.147 C 
HETATM   17  O   UNK N   1      33.242  17.668   8.585  0.00  0.00    -0.296 OA
BRANCH  16  18
HETATM   18  C   UNK N   1      34.060  15.444   8.807  0.00  0.00     0.107 C 
BRANCH  18  19
HETATM   19  C   UNK N   1      34.407  14.982  10.224  0.00  0.00     0.112 C 
HETATM   20  C   UNK N   1      35.534  15.846  10.836  0.00  0.00     0.140 C 
HETATM   21  C   UNK N   1      35.902  15.297  12.215  0.00  0.00     0.035 C 
HETATM   22  C   UNK N   1      36.264  13.819  12.122  0.00  0.00     0.022 C 
HETATM   23  C   UNK N   1      35.115  13.058  11.469  0.00  0.00     0.114 C 
HETATM   24  N   UNK N   1      34.858  13.591  10.130  0.00  0.00    -0.414 N 
HETATM   25  H   UNK N   1      34.977  13.070   9.261  0.00  0.00     0.153 HD
BRANCH  20  26
HETATM   26  O   UNK N   1      35.131  17.175  10.971  0.00  0.00    -0.394 OA
HETATM   27  H   UNK N   1      34.994  17.633  11.816  0.00  0.00     0.210 HD
ENDBRANCH  20  26
ENDBRANCH  18  19
ENDBRANCH  16  18
ENDBRANCH  15  16
ENDBRANCH  13  15
TORSDOF 5
ENDMDL
MODEL 8
REMARK VINA RESULT:      -6.8      2.417      2.838
REMARK  5 active torsions:
REMARK  status: ('A' for Active; 'I' for Inactive)
REMARK    1  A    between atoms: C_9  and  C_4 
REMARK    2  A    between atoms: C_14  and  C_4 
REMARK    3  A    between atoms: C_9  and  C_7 
REMARK    4  A    between atoms: N_22  and  C_7 
REMARK    5  A    between atoms: C_15  and  O_24 
ROOT
HETATM    1  C   UNK N   1      33.440  14.161   7.939  0.00  0.00     0.044 A 
HETATM    2  C   UNK N   1      32.954  16.898   8.275  0.00  0.00     0.051 A 
HETATM    3  C   UNK N   1      35.301  16.296  10.980  0.00  0.00     0.187 A 
HETATM    4  C   UNK N   1      34.081  14.864   8.968  0.00  0.00     0.060 A 
HETATM    5  C   UNK N   1      32.302  16.194   7.257  0.00  0.00     0.035 A 
HETATM    6  C   UNK N   1      32.552  14.820   7.085  0.00  0.00     0.052 A 
HETATM    7  C   UNK N   1      33.840  16.239   9.128  0.00  0.00     0.050 A 
HETATM    8  C   UNK N   1      34.951  14.227   9.860  0.00  0.00     0.261 A 
HETATM    9 Br   UNK N   1      31.071  17.135   6.137  0.00  0.00    -0.049 Br
HETATM   10 Cl   UNK N   1      31.757  13.897   5.821  0.00  0.00    -0.083 Cl
HETATM   11  N   UNK N   1      34.459  16.923  10.121  0.00  0.00    -0.351 N 
ATOM     12  HN  UNK N   1      34.290  17.924  10.223  1.00  0.00     0.166 HD
HETATM   13  N   UNK N   1      35.543  14.956  10.871  0.00  0.00    -0.303 N 
HETATM   14  O   UNK N   1      35.175  13.031   9.751  0.00  0.00    -0.267 OA
ENDROOT
BRANCH  13  15
HETATM   15  C   UNK N   1      36.427  14.277  11.825  0.00  0.00     0.211 C 
BRANCH  15  16
HETATM   16  C   UNK N   1      35.777  14.029  13.152  0.00  0.00     0.147 C 
HETATM   17  O   UNK N   1      34.636  13.591  13.203  0.00  0.00    -0.296 OA
BRANCH  16  18
HETATM   18  C   UNK N   1      36.571  14.294  14.397  0.00  0.00     0.107 C 
BRANCH  18  19
HETATM   19  C   UNK N   1      36.595  13.163  15.427  0.00  0.00     0.112 C 
HETATM   20  C   UNK N   1      36.968  11.814  14.769  0.00  0.00     0.140 C 
HETATM   21  C   UNK N   1      36.900  10.703  15.816  0.00  0.00     0.035 C 
HETATM   22  C   UNK N   1      35.530  10.684  16.485  0.00  0.00     0.022 C 
HETATM   23  C   UNK N   1      35.232  12.062  17.065  0.00  0.00     0.114 C 
HETATM   24  N   UNK N   1      35.250  13.067  16.000  0.00  0.00    -0.414 N 
HETATM   25  H   UNK N   1      34.446  13.618  15.703  0.00  0.00     0.153 HD
BRANCH  20  26
HETATM   26  O   UNK N   1      38.258  11.854  14.236  0.00  0.00    -0.394 OA
HETATM   27  H   UNK N   1      38.469  11.941  13.293  0.00  0.00     0.210 HD
ENDBRANCH  20  26
ENDBRANCH  18  19
ENDBRANCH  16  18
ENDBRANCH  15  16
ENDBRANCH  13  15
TORSDOF 5
ENDMDL
MODEL 9
REMARK VINA RESULT:      -6.6      5.152      8.970
REMARK  5 active torsions:
REMARK  status: ('A' for Active; 'I' for Inactive)
REMARK    1  A    between atoms: C_9  and  C_4 
REMARK    2  A    between atoms: C_14  and  C_4 
REMARK    3  A    between atoms: C_9  and  C_7 
REMARK    4  A    between atoms: N_22  and  C_7 
REMARK    5  A    between atoms: C_15  and  O_24 
ROOT
HETATM    1  C   UNK N   1      36.696  10.538  14.589  0.00  0.00     0.044 A 
HETATM    2  C   UNK N   1      35.799  12.526  16.345  0.00  0.00     0.051 A 
HETATM    3  C   UNK N   1      36.206  14.457  13.295  0.00  0.00     0.187 A 
HETATM    4  C   UNK N   1      36.533  11.852  14.132  0.00  0.00     0.060 A 
HETATM    5  C   UNK N   1      35.975  11.217  16.805  0.00  0.00     0.035 A 
HETATM    6  C   UNK N   1      36.420  10.217  15.921  0.00  0.00     0.052 A 
HETATM    7  C   UNK N   1      36.075  12.846  15.015  0.00  0.00     0.050 A 
HETATM    8  C   UNK N   1      36.831  12.213  12.813  0.00  0.00     0.261 A 
HETATM    9 Br   UNK N   1      35.617  10.838  18.645  0.00  0.00    -0.049 Br
HETATM   10 Cl   UNK N   1      36.655   8.562  16.455  0.00  0.00    -0.083 Cl
HETATM   11  N   UNK N   1      35.915  14.118  14.577  0.00  0.00    -0.351 N 
ATOM     12  HN  UNK N   1      35.570  14.831  15.219  1.00  0.00     0.166 HD
HETATM   13  N   UNK N   1      36.675  13.524  12.414  0.00  0.00    -0.303 N 
HETATM   14  O   UNK N   1      37.237  11.373  12.024  0.00  0.00    -0.267 OA
ENDROOT
BRANCH  13  15
HETATM   15  C   UNK N   1      37.023  13.905  11.040  0.00  0.00     0.211 C 
BRANCH  15  16
HETATM   16  C   UNK N   1      36.220  15.063  10.531  0.00  0.00     0.147 C 
HETATM   17  O   UNK N   1      36.655  16.201  10.635  0.00  0.00    -0.296 OA
BRANCH  16  18
HETATM   18  C   UNK N   1      34.904  14.783   9.867  0.00  0.00     0.107 C 
BRANCH  18  19
HETATM   19  C   UNK N   1      34.110  16.011   9.417  0.00  0.00     0.112 C 
HETATM   20  C   UNK N   1      32.659  15.633   9.040  0.00  0.00     0.140 C 
HETATM   21  C   UNK N   1      31.930  16.872   8.521  0.00  0.00     0.035 C 
HETATM   22  C   UNK N   1      32.704  17.502   7.367  0.00  0.00     0.022 C 
HETATM   23  C   UNK N   1      34.130  17.799   7.819  0.00  0.00     0.114 C 
HETATM   24  N   UNK N   1      34.789  16.563   8.242  0.00  0.00    -0.414 N 
HETATM   25  H   UNK N   1      35.600  16.147   7.785  0.00  0.00     0.153 HD
BRANCH  20  26
HETATM   26  O   UNK N   1      31.967  15.131  10.143  0.00  0.00    -0.394 OA
HETATM   27  H   UNK N   1      31.817  14.190  10.326  0.00  0.00     0.210 HD
ENDBRANCH  20  26
ENDBRANCH  18  19
ENDBRANCH  16  18
ENDBRANCH  15  16
ENDBRANCH  13  15
TORSDOF 5
ENDMDL
