MODEL 1
REMARK VINA RESULT:      -7.4      0.000      0.000
REMARK  2 active torsions:
REMARK  status: ('A' for Active; 'I' for Inactive)
REMARK    1  A    between atoms: N_3  and  C_18 
REMARK    2  A    between atoms: C_7  and  C_18 
ROOT
HETATM    1  O   UNK N   1      20.307  16.696   6.542  0.00  0.00    -0.292 OA
HETATM    2  N   UNK N   1      23.484  13.768   8.058  0.00  0.00    -0.348 N 
HETATM    3  C   UNK N   1      23.242  14.698   7.108  0.00  0.00     0.027 A 
HETATM    4  C   UNK N   1      22.262  16.611   5.157  0.00  0.00     0.079 C 
HETATM    5  C   UNK N   1      21.963  15.207   7.263  0.00  0.00     0.045 A 
HETATM    6  C   UNK N   1      24.186  15.161   6.038  0.00  0.00     0.059 C 
HETATM    7  C   UNK N   1      22.379  13.704   8.810  0.00  0.00     0.052 A 
HETATM    8  C   UNK N   1      23.760  16.557   5.531  0.00  0.00     0.020 C 
HETATM    9  C   UNK N   1      21.422  14.572   8.363  0.00  0.00     0.007 A 
HETATM   10  C   UNK N   1      24.674  12.947   8.275  0.00  0.00     0.129 C 
HETATM   11  C   UNK N   1      21.415  16.217   6.353  0.00  0.00     0.168 C 
HETATM   12  C   UNK N   1      22.197  12.867   9.887  0.00  0.00    -0.030 A 
HETATM   13  C   UNK N   1      24.674  12.307   9.685  0.00  0.00     0.025 C 
HETATM   14  C   UNK N   1      23.293  11.916  10.271  0.00  0.00     0.042 C 
HETATM   15  C   UNK N   1      20.183  14.664   8.996  0.00  0.00     0.015 A 
HETATM   16  C   UNK N   1      20.958  12.921  10.553  0.00  0.00     0.009 A 
HETATM   17  C   UNK N   1      19.956  13.825  10.112  0.00  0.00     0.002 A 
ENDROOT
BRANCH   4  18
HETATM   18  C   UNK N   1      21.818  17.967   4.589  0.00  0.00     0.142 C 
BRANCH  18  19
HETATM   19  N   UNK N   1      21.080  17.896   3.322  0.00  0.00    -0.345 N 
HETATM   20  C   UNK N   1      20.623  18.952   2.628  0.00  0.00     0.079 A 
HETATM   21  N   UNK N   1      20.019  18.576   1.486  0.00  0.00    -0.355 N 
HETATM   22  C   UNK N   1      20.759  20.371   3.056  0.00  0.00     0.089 C 
HETATM   23  C   UNK N   1      20.102  17.230   1.462  0.00  0.00     0.106 A 
ATOM     24  HN  UNK N   1      19.590  19.182   0.786  1.00  0.00     0.166 HD
HETATM   25  C   UNK N   1      20.762  16.806   2.604  0.00  0.00     0.109 A 
ENDBRANCH  18  19
ENDBRANCH   4  18
TORSDOF 2
ENDMDL
MODEL 2
REMARK VINA RESULT:      -7.4     14.091     16.062
REMARK  2 active torsions:
REMARK  status: ('A' for Active; 'I' for Inactive)
REMARK    1  A    between atoms: N_3  and  C_18 
REMARK    2  A    between atoms: C_7  and  C_18 
ROOT
HETATM    1  O   UNK N   1      36.383  14.940  13.859  0.00  0.00    -0.292 OA
HETATM    2  N   UNK N   1      35.511  10.775  15.551  0.00  0.00    -0.348 N 
HETATM    3  C   UNK N   1      35.798  11.435  14.407  0.00  0.00     0.027 A 
HETATM    4  C   UNK N   1      36.252  13.238  12.177  0.00  0.00     0.079 C 
HETATM    5  C   UNK N   1      35.928  12.790  14.665  0.00  0.00     0.045 A 
HETATM    6  C   UNK N   1      35.979  10.838  13.043  0.00  0.00     0.059 C 
HETATM    7  C   UNK N   1      35.477  11.700  16.517  0.00  0.00     0.052 A 
HETATM    8  C   UNK N   1      36.806  11.796  12.157  0.00  0.00     0.020 C 
HETATM    9  C   UNK N   1      35.732  12.948  16.023  0.00  0.00     0.007 A 
HETATM   10  C   UNK N   1      35.259   9.352  15.766  0.00  0.00     0.129 C 
HETATM   11  C   UNK N   1      36.213  13.758  13.601  0.00  0.00     0.168 C 
HETATM   12  C   UNK N   1      35.203  11.454  17.844  0.00  0.00    -0.030 A 
HETATM   13  C   UNK N   1      35.354   8.978  17.266  0.00  0.00     0.025 C 
HETATM   14  C   UNK N   1      34.889  10.053  18.281  0.00  0.00     0.042 C 
HETATM   15  C   UNK N   1      35.738  14.066  16.857  0.00  0.00     0.015 A 
HETATM   16  C   UNK N   1      35.191  12.554  18.722  0.00  0.00     0.009 A 
HETATM   17  C   UNK N   1      35.467  13.857  18.229  0.00  0.00     0.002 A 
ENDROOT
BRANCH   4  18
HETATM   18  C   UNK N   1      37.012  14.203  11.257  0.00  0.00     0.142 C 
BRANCH  18  19
HETATM   19  N   UNK N   1      36.163  15.086  10.448  0.00  0.00    -0.345 N 
HETATM   20  C   UNK N   1      35.716  14.815   9.210  0.00  0.00     0.079 A 
HETATM   21  N   UNK N   1      34.927  15.797   8.737  0.00  0.00    -0.355 N 
HETATM   22  C   UNK N   1      36.046  13.585   8.440  0.00  0.00     0.089 C 
HETATM   23  C   UNK N   1      34.874  16.720   9.720  0.00  0.00     0.106 A 
ATOM     24  HN  UNK N   1      34.465  15.834   7.828  1.00  0.00     0.166 HD
HETATM   25  C   UNK N   1      35.643  16.279  10.784  0.00  0.00     0.109 A 
ENDBRANCH  18  19
ENDBRANCH   4  18
TORSDOF 2
ENDMDL
MODEL 3
REMARK VINA RESULT:      -7.3     11.181     13.947
REMARK  2 active torsions:
REMARK  status: ('A' for Active; 'I' for Inactive)
REMARK    1  A    between atoms: N_3  and  C_18 
REMARK    2  A    between atoms: C_7  and  C_18 
ROOT
HETATM    1  O   UNK N   1      34.450  12.724   9.452  0.00  0.00    -0.292 OA
HETATM    2  N   UNK N   1      35.737  13.477  13.781  0.00  0.00    -0.348 N 
HETATM    3  C   UNK N   1      35.639  14.065  12.569  0.00  0.00     0.027 A 
HETATM    4  C   UNK N   1      35.430  14.885   9.792  0.00  0.00     0.079 C 
HETATM    5  C   UNK N   1      35.137  13.162  11.646  0.00  0.00     0.045 A 
HETATM    6  C   UNK N   1      35.987  15.483  12.224  0.00  0.00     0.059 C 
HETATM    7  C   UNK N   1      35.288  12.226  13.628  0.00  0.00     0.052 A 
HETATM    8  C   UNK N   1      35.246  15.906  10.936  0.00  0.00     0.020 C 
HETATM    9  C   UNK N   1      34.905  11.989  12.337  0.00  0.00     0.007 A 
HETATM   10  C   UNK N   1      36.235  14.022  15.042  0.00  0.00     0.129 C 
HETATM   11  C   UNK N   1      34.949  13.517  10.236  0.00  0.00     0.168 C 
HETATM   12  C   UNK N   1      35.228  11.275  14.620  0.00  0.00    -0.030 A 
HETATM   13  C   UNK N   1      35.812  13.146  16.248  0.00  0.00     0.025 C 
HETATM   14  C   UNK N   1      35.717  11.619  15.997  0.00  0.00     0.042 C 
HETATM   15  C   UNK N   1      34.412  10.743  11.950  0.00  0.00     0.015 A 
HETATM   16  C   UNK N   1      34.743   9.999  14.274  0.00  0.00     0.009 A 
HETATM   17  C   UNK N   1      34.328   9.738  12.942  0.00  0.00     0.002 A 
ENDROOT
BRANCH   4  18
HETATM   18  C   UNK N   1      34.759  15.306   8.476  0.00  0.00     0.142 C 
BRANCH  18  19
HETATM   19  N   UNK N   1      33.478  16.005   8.632  0.00  0.00    -0.345 N 
HETATM   20  C   UNK N   1      33.292  17.329   8.489  0.00  0.00     0.079 A 
HETATM   21  N   UNK N   1      32.002  17.674   8.654  0.00  0.00    -0.355 N 
HETATM   22  C   UNK N   1      34.372  18.308   8.186  0.00  0.00     0.089 C 
HETATM   23  C   UNK N   1      31.352  16.520   8.908  0.00  0.00     0.106 A 
ATOM     24  HN  UNK N   1      31.602  18.610   8.597  1.00  0.00     0.166 HD
HETATM   25  C   UNK N   1      32.269  15.482   8.895  0.00  0.00     0.109 A 
ENDBRANCH  18  19
ENDBRANCH   4  18
TORSDOF 2
ENDMDL
MODEL 4
REMARK VINA RESULT:      -7.2      1.302      2.970
REMARK  2 active torsions:
REMARK  status: ('A' for Active; 'I' for Inactive)
REMARK    1  A    between atoms: N_3  and  C_18 
REMARK    2  A    between atoms: C_7  and  C_18 
ROOT
HETATM    1  O   UNK N   1      23.682  15.700   5.001  0.00  0.00    -0.292 OA
HETATM    2  N   UNK N   1      21.193  14.398   8.618  0.00  0.00    -0.348 N 
HETATM    3  C   UNK N   1      21.145  15.133   7.485  0.00  0.00     0.027 A 
HETATM    4  C   UNK N   1      21.516  16.723   5.084  0.00  0.00     0.079 C 
HETATM    5  C   UNK N   1      22.367  15.079   6.836  0.00  0.00     0.045 A 
HETATM    6  C   UNK N   1      19.967  15.895   6.955  0.00  0.00     0.059 C 
HETATM    7  C   UNK N   1      22.424  13.875   8.672  0.00  0.00     0.052 A 
HETATM    8  C   UNK N   1      20.134  16.129   5.437  0.00  0.00     0.020 C 
HETATM    9  C   UNK N   1      23.177  14.260   7.599  0.00  0.00     0.007 A 
HETATM   10  C   UNK N   1      20.164  14.183   9.632  0.00  0.00     0.129 C 
HETATM   11  C   UNK N   1      22.616  15.808   5.589  0.00  0.00     0.168 C 
HETATM   12  C   UNK N   1      22.901  13.066   9.678  0.00  0.00    -0.030 A 
HETATM   13  C   UNK N   1      20.507  12.979  10.545  0.00  0.00     0.025 C 
HETATM   14  C   UNK N   1      22.009  12.737  10.840  0.00  0.00     0.042 C 
HETATM   15  C   UNK N   1      24.498  13.838   7.458  0.00  0.00     0.015 A 
HETATM   16  C   UNK N   1      24.232  12.620   9.582  0.00  0.00     0.009 A 
HETATM   17  C   UNK N   1      25.026  12.999   8.467  0.00  0.00     0.002 A 
ENDROOT
BRANCH   4  18
HETATM   18  C   UNK N   1      21.692  17.027   3.590  0.00  0.00     0.142 C 
BRANCH  18  19
HETATM   19  N   UNK N   1      21.107  18.296   3.143  0.00  0.00    -0.345 N 
HETATM   20  C   UNK N   1      20.361  18.462   2.037  0.00  0.00     0.079 A 
HETATM   21  N   UNK N   1      19.931  19.731   1.909  0.00  0.00    -0.355 N 
HETATM   22  C   UNK N   1      20.041  17.384   1.061  0.00  0.00     0.089 C 
HETATM   23  C   UNK N   1      20.425  20.387   2.979  0.00  0.00     0.106 A 
ATOM     24  HN  UNK N   1      19.353  20.114   1.161  1.00  0.00     0.166 HD
HETATM   25  C   UNK N   1      21.157  19.496   3.747  0.00  0.00     0.109 A 
ENDBRANCH  18  19
ENDBRANCH   4  18
TORSDOF 2
ENDMDL
MODEL 5
REMARK VINA RESULT:      -7.1     14.548     16.107
REMARK  2 active torsions:
REMARK  status: ('A' for Active; 'I' for Inactive)
REMARK    1  A    between atoms: N_3  and  C_18 
REMARK    2  A    between atoms: C_7  and  C_18 
ROOT
HETATM    1  O   UNK N   1      27.685  23.070  -6.042  0.00  0.00    -0.292 OA
HETATM    2  N   UNK N   1      31.564  21.717  -4.019  0.00  0.00    -0.348 N 
HETATM    3  C   UNK N   1      30.462  22.478  -3.837  0.00  0.00     0.027 A 
HETATM    4  C   UNK N   1      28.067  24.116  -3.920  0.00  0.00     0.079 C 
HETATM    5  C   UNK N   1      29.660  22.424  -4.965  0.00  0.00     0.045 A 
HETATM    6  C   UNK N   1      30.104  23.266  -2.612  0.00  0.00     0.059 C 
HETATM    7  C   UNK N   1      31.449  21.178  -5.238  0.00  0.00     0.052 A 
HETATM    8  C   UNK N   1      28.582  23.532  -2.586  0.00  0.00     0.020 C 
HETATM    9  C   UNK N   1      30.296  21.579  -5.854  0.00  0.00     0.007 A 
HETATM   10  C   UNK N   1      32.697  21.491  -3.125  0.00  0.00     0.129 C 
HETATM   11  C   UNK N   1      28.407  23.178  -5.062  0.00  0.00     0.168 C 
HETATM   12  C   UNK N   1      32.368  20.341  -5.828  0.00  0.00    -0.030 A 
HETATM   13  C   UNK N   1      33.533  20.264  -3.564  0.00  0.00     0.025 C 
HETATM   14  C   UNK N   1      33.628  19.997  -5.088  0.00  0.00     0.042 C 
HETATM   15  C   UNK N   1      29.977  21.143  -7.139  0.00  0.00     0.015 A 
HETATM   16  C   UNK N   1      32.092  19.881  -7.130  0.00  0.00     0.009 A 
HETATM   17  C   UNK N   1      30.893  20.276  -7.780  0.00  0.00     0.002 A 
ENDROOT
BRANCH   4  18
HETATM   18  C   UNK N   1      26.569  24.452  -3.908  0.00  0.00     0.142 C 
BRANCH  18  19
HETATM   19  N   UNK N   1      26.254  25.882  -4.016  0.00  0.00    -0.345 N 
HETATM   20  C   UNK N   1      25.778  26.493  -5.115  0.00  0.00     0.079 A 
HETATM   21  N   UNK N   1      25.550  27.801  -4.900  0.00  0.00    -0.355 N 
HETATM   22  C   UNK N   1      25.529  25.818  -6.419  0.00  0.00     0.089 C 
HETATM   23  C   UNK N   1      25.894  28.019  -3.614  0.00  0.00     0.106 A 
ATOM     24  HN  UNK N   1      25.191  28.483  -5.569  1.00  0.00     0.166 HD
HETATM   25  C   UNK N   1      26.333  26.826  -3.064  0.00  0.00     0.109 A 
ENDBRANCH  18  19
ENDBRANCH   4  18
TORSDOF 2
ENDMDL
MODEL 6
REMARK VINA RESULT:      -6.9      6.329      8.628
REMARK  2 active torsions:
REMARK  status: ('A' for Active; 'I' for Inactive)
REMARK    1  A    between atoms: N_3  and  C_18 
REMARK    2  A    between atoms: C_7  and  C_18 
ROOT
HETATM    1  O   UNK N   1      28.051  16.602   3.354  0.00  0.00    -0.292 OA
HETATM    2  N   UNK N   1      30.769  17.330   6.967  0.00  0.00    -0.348 N 
HETATM    3  C   UNK N   1      29.478  17.155   6.607  0.00  0.00     0.027 A 
HETATM    4  C   UNK N   1      26.847  16.916   5.403  0.00  0.00     0.079 C 
HETATM    5  C   UNK N   1      29.389  16.989   5.235  0.00  0.00     0.045 A 
HETATM    6  C   UNK N   1      28.286  17.118   7.518  0.00  0.00     0.059 C 
HETATM    7  C   UNK N   1      31.484  17.259   5.838  0.00  0.00     0.052 A 
HETATM    8  C   UNK N   1      27.120  16.377   6.825  0.00  0.00     0.020 C 
HETATM    9  C   UNK N   1      30.682  17.045   4.752  0.00  0.00     0.007 A 
HETATM   10  C   UNK N   1      31.343  17.570   8.289  0.00  0.00     0.129 C 
HETATM   11  C   UNK N   1      28.102  16.806   4.558  0.00  0.00     0.168 C 
HETATM   12  C   UNK N   1      32.851  17.398   5.752  0.00  0.00    -0.030 A 
HETATM   13  C   UNK N   1      32.872  17.326   8.298  0.00  0.00     0.025 C 
HETATM   14  C   UNK N   1      33.640  17.677   6.998  0.00  0.00     0.042 C 
HETATM   15  C   UNK N   1      31.219  16.947   3.469  0.00  0.00     0.015 A 
HETATM   16  C   UNK N   1      33.436  17.312   4.475  0.00  0.00     0.009 A 
HETATM   17  C   UNK N   1      32.621  17.078   3.337  0.00  0.00     0.002 A 
ENDROOT
BRANCH   4  18
HETATM   18  C   UNK N   1      25.653  16.245   4.709  0.00  0.00     0.142 C 
BRANCH  18  19
HETATM   19  N   UNK N   1      24.338  16.763   5.103  0.00  0.00    -0.345 N 
HETATM   20  C   UNK N   1      23.474  16.144   5.927  0.00  0.00     0.079 A 
HETATM   21  N   UNK N   1      22.366  16.879   6.133  0.00  0.00    -0.355 N 
HETATM   22  C   UNK N   1      23.699  14.808   6.543  0.00  0.00     0.089 C 
HETATM   23  C   UNK N   1      22.543  18.005   5.411  0.00  0.00     0.106 A 
ATOM     24  HN  UNK N   1      21.563  16.636   6.713  1.00  0.00     0.166 HD
HETATM   25  C   UNK N   1      23.768  17.933   4.770  0.00  0.00     0.109 A 
ENDBRANCH  18  19
ENDBRANCH   4  18
TORSDOF 2
ENDMDL
MODEL 7
REMARK VINA RESULT:      -6.9      4.374      7.529
REMARK  2 active torsions:
REMARK  status: ('A' for Active; 'I' for Inactive)
REMARK    1  A    between atoms: N_3  and  C_18 
REMARK    2  A    between atoms: C_7  and  C_18 
ROOT
HETATM    1  O   UNK N   1      25.555  20.368   3.534  0.00  0.00    -0.292 OA
HETATM    2  N   UNK N   1      22.330  17.149   3.980  0.00  0.00    -0.348 N 
HETATM    3  C   UNK N   1      23.650  17.382   4.150  0.00  0.00     0.027 A 
HETATM    4  C   UNK N   1      26.424  18.236   4.200  0.00  0.00     0.079 C 
HETATM    5  C   UNK N   1      23.952  18.679   3.768  0.00  0.00     0.045 A 
HETATM    6  C   UNK N   1      24.673  16.424   4.684  0.00  0.00     0.059 C 
HETATM    7  C   UNK N   1      21.805  18.288   3.515  0.00  0.00     0.052 A 
HETATM    8  C   UNK N   1      25.893  17.206   5.221  0.00  0.00     0.020 C 
HETATM    9  C   UNK N   1      22.761  19.256   3.374  0.00  0.00     0.007 A 
HETATM   10  C   UNK N   1      21.563  15.928   4.218  0.00  0.00     0.129 C 
HETATM   11  C   UNK N   1      25.320  19.204   3.818  0.00  0.00     0.168 C 
HETATM   12  C   UNK N   1      20.481  18.481   3.193  0.00  0.00    -0.030 A 
HETATM   13  C   UNK N   1      20.041  16.212   4.263  0.00  0.00     0.025 C 
HETATM   14  C   UNK N   1      19.517  17.340   3.339  0.00  0.00     0.042 C 
HETATM   15  C   UNK N   1      22.435  20.523   2.893  0.00  0.00     0.015 A 
HETATM   16  C   UNK N   1      20.107  19.744   2.697  0.00  0.00     0.009 A 
HETATM   17  C   UNK N   1      21.083  20.766   2.556  0.00  0.00     0.002 A 
ENDROOT
BRANCH   4  18
HETATM   18  C   UNK N   1      27.676  18.987   4.677  0.00  0.00     0.142 C 
BRANCH  18  19
HETATM   19  N   UNK N   1      27.940  18.897   6.118  0.00  0.00    -0.345 N 
HETATM   20  C   UNK N   1      27.491  19.758   7.047  0.00  0.00     0.079 A 
HETATM   21  N   UNK N   1      27.863  19.395   8.288  0.00  0.00    -0.355 N 
HETATM   22  C   UNK N   1      26.679  20.972   6.755  0.00  0.00     0.089 C 
HETATM   23  C   UNK N   1      28.573  18.259   8.131  0.00  0.00     0.106 A 
ATOM     24  HN  UNK N   1      27.652  19.877   9.161  1.00  0.00     0.166 HD
HETATM   25  C   UNK N   1      28.622  17.948   6.782  0.00  0.00     0.109 A 
ENDBRANCH  18  19
ENDBRANCH   4  18
TORSDOF 2
ENDMDL
MODEL 8
REMARK VINA RESULT:      -6.7     16.823     19.148
REMARK  2 active torsions:
REMARK  status: ('A' for Active; 'I' for Inactive)
REMARK    1  A    between atoms: N_3  and  C_18 
REMARK    2  A    between atoms: C_7  and  C_18 
ROOT
HETATM    1  O   UNK N   1      27.740  26.409  -9.309  0.00  0.00    -0.292 OA
HETATM    2  N   UNK N   1      26.525  28.250  -5.296  0.00  0.00    -0.348 N 
HETATM    3  C   UNK N   1      26.265  27.221  -6.132  0.00  0.00     0.027 A 
HETATM    4  C   UNK N   1      25.897  25.287  -8.265  0.00  0.00     0.079 C 
HETATM    5  C   UNK N   1      27.067  27.313  -7.257  0.00  0.00     0.045 A 
HETATM    6  C   UNK N   1      25.281  26.110  -5.914  0.00  0.00     0.059 C 
HETATM    7  C   UNK N   1      27.490  28.971  -5.879  0.00  0.00     0.052 A 
HETATM    8  C   UNK N   1      25.661  24.894  -6.789  0.00  0.00     0.020 C 
HETATM    9  C   UNK N   1      27.858  28.432  -7.080  0.00  0.00     0.007 A 
HETATM   10  C   UNK N   1      25.912  28.584  -4.012  0.00  0.00     0.129 C 
HETATM   11  C   UNK N   1      26.982  26.343  -8.353  0.00  0.00     0.168 C 
HETATM   12  C   UNK N   1      28.044  30.121  -5.365  0.00  0.00    -0.030 A 
HETATM   13  C   UNK N   1      26.766  29.607  -3.223  0.00  0.00     0.025 C 
HETATM   14  C   UNK N   1      27.539  30.659  -4.058  0.00  0.00     0.042 C 
HETATM   15  C   UNK N   1      28.844  29.029  -7.864  0.00  0.00     0.015 A 
HETATM   16  C   UNK N   1      29.040  30.762  -6.126  0.00  0.00     0.009 A 
HETATM   17  C   UNK N   1      29.444  30.211  -7.371  0.00  0.00     0.002 A 
ENDROOT
BRANCH   4  18
HETATM   18  C   UNK N   1      26.215  24.092  -9.176  0.00  0.00     0.142 C 
BRANCH  18  19
HETATM   19  N   UNK N   1      27.126  23.098  -8.598  0.00  0.00    -0.345 N 
HETATM   20  C   UNK N   1      26.769  21.880  -8.155  0.00  0.00     0.079 A 
HETATM   21  N   UNK N   1      27.828  21.177  -7.714  0.00  0.00    -0.355 N 
HETATM   22  C   UNK N   1      25.375  21.357  -8.145  0.00  0.00     0.089 C 
HETATM   23  C   UNK N   1      28.893  21.985  -7.890  0.00  0.00     0.106 A 
ATOM     24  HN  UNK N   1      27.825  20.232  -7.330  1.00  0.00     0.166 HD
HETATM   25  C   UNK N   1      28.458  23.180  -8.439  0.00  0.00     0.109 A 
ENDBRANCH  18  19
ENDBRANCH   4  18
TORSDOF 2
ENDMDL
MODEL 9
REMARK VINA RESULT:      -6.7      9.051     12.537
REMARK  2 active torsions:
REMARK  status: ('A' for Active; 'I' for Inactive)
REMARK    1  A    between atoms: N_3  and  C_18 
REMARK    2  A    between atoms: C_7  and  C_18 
ROOT
HETATM    1  O   UNK N   1      32.358  15.349   9.944  0.00  0.00    -0.292 OA
HETATM    2  N   UNK N   1      30.600  16.815   5.977  0.00  0.00    -0.348 N 
HETATM    3  C   UNK N   1      31.579  16.046   6.504  0.00  0.00     0.027 A 
HETATM    4  C   UNK N   1      33.620  14.654   8.029  0.00  0.00     0.079 C 
HETATM    5  C   UNK N   1      31.512  16.078   7.887  0.00  0.00     0.045 A 
HETATM    6  C   UNK N   1      32.598  15.244   5.750  0.00  0.00     0.059 C 
HETATM    7  C   UNK N   1      29.916  17.310   7.014  0.00  0.00     0.052 A 
HETATM    8  C   UNK N   1      33.155  14.121   6.655  0.00  0.00     0.020 C 
HETATM    9  C   UNK N   1      30.434  16.882   8.205  0.00  0.00     0.007 A 
HETATM   10  C   UNK N   1      30.298  17.107   4.578  0.00  0.00     0.129 C 
HETATM   11  C   UNK N   1      32.471  15.356   8.727  0.00  0.00     0.168 C 
HETATM   12  C   UNK N   1      28.837  18.159   6.923  0.00  0.00    -0.030 A 
HETATM   13  C   UNK N   1      28.879  17.706   4.416  0.00  0.00     0.025 C 
HETATM   14  C   UNK N   1      28.370  18.610   5.568  0.00  0.00     0.042 C 
HETATM   15  C   UNK N   1      29.879  17.286   9.418  0.00  0.00     0.015 A 
HETATM   16  C   UNK N   1      28.248  18.599   8.123  0.00  0.00     0.009 A 
HETATM   17  C   UNK N   1      28.764  18.154   9.369  0.00  0.00     0.002 A 
ENDROOT
BRANCH   4  18
HETATM   18  C   UNK N   1      34.238  13.575   8.930  0.00  0.00     0.142 C 
BRANCH  18  19
HETATM   19  N   UNK N   1      35.582  13.883   9.432  0.00  0.00    -0.345 N 
HETATM   20  C   UNK N   1      35.914  14.034  10.726  0.00  0.00     0.079 A 
HETATM   21  N   UNK N   1      37.229  14.274  10.880  0.00  0.00    -0.355 N 
HETATM   22  C   UNK N   1      34.955  13.950  11.862  0.00  0.00     0.089 C 
HETATM   23  C   UNK N   1      37.743  14.272   9.633  0.00  0.00     0.106 A 
ATOM     24  HN  UNK N   1      37.730  14.425  11.756  1.00  0.00     0.166 HD
HETATM   25  C   UNK N   1      36.720  14.029   8.732  0.00  0.00     0.109 A 
ENDBRANCH  18  19
ENDBRANCH   4  18
TORSDOF 2
ENDMDL
