MODEL 1
REMARK VINA RESULT:      -7.5      0.000      0.000
REMARK  8 active torsions:
REMARK  status: ('A' for Active; 'I' for Inactive)
REMARK    1  A    between atoms: C_16  and  O_2 
REMARK    2  A    between atoms: C_18  and  O_3 
REMARK    3  A    between atoms: O_4  and  C_26 
REMARK    4  A    between atoms: C_17  and  N_5 
REMARK    5  A    between atoms: N_10  and  N_12 
REMARK       I    between atoms: N_12  and  C_32 
REMARK    6  A    between atoms: N_15  and  C_31 
REMARK    7  A    between atoms: C_19  and  C_26 
REMARK    8  A    between atoms: C_20  and  C_29 
ROOT
HETATM    1  N   UNK N   1      34.741  15.150   8.852  0.00  0.00    -0.297 N 
HETATM    2  N   UNK N   1      35.055  15.285   6.628  0.00  0.00    -0.346 N 
ATOM      3  HN  UNK N   1      35.474  15.214   5.700  1.00  0.00     0.167 HD
HETATM    4  N   UNK N   1      32.529  16.110   8.897  0.00  0.00    -0.172 N 
ATOM      5  HN  UNK N   1      32.422  16.035   9.908  1.00  0.00     0.186 HD
HETATM    6  N   UNK N   1      30.350  17.094   8.721  0.00  0.00    -0.133 N 
HETATM    7  N   UNK N   1      31.714  16.760   6.763  0.00  0.00    -0.173 N 
ATOM      8  HN  UNK N   1      30.971  17.172   6.200  1.00  0.00     0.186 HD
HETATM    9  C   UNK N   1      33.657  15.681   8.281  0.00  0.00     0.157 A 
HETATM   10  C   UNK N   1      35.595  14.906   7.823  0.00  0.00     0.188 A 
HETATM   11  C   UNK N   1      33.842  15.774   6.952  0.00  0.00     0.123 A 
HETATM   12  C   UNK N   1      32.860  16.336   6.154  0.00  0.00     0.145 A 
HETATM   13  C   UNK N   1      31.543  16.641   8.126  0.00  0.00     0.700 A 
HETATM   14  H   UNK N   1      30.251  17.137   9.700  0.00  0.00     0.205 HD
ENDROOT
BRANCH   1  15
HETATM   15  C   UNK N   1      34.980  14.962  10.286  0.00  0.00     0.262 C 
HETATM   16  O   UNK N   1      34.334  13.796  10.761  0.00  0.00    -0.353 OA
HETATM   17  C   UNK N   1      35.303  13.090  11.492  0.00  0.00     0.179 C 
HETATM   18  C   UNK N   1      36.323  14.114  11.923  0.00  0.00     0.182 C 
HETATM   19  C   UNK N   1      36.448  14.854  10.636  0.00  0.00     0.198 C 
BRANCH  17  20
HETATM   20  C   UNK N   1      34.647  12.390  12.670  0.00  0.00     0.198 C 
BRANCH  20  21
HETATM   21  O   UNK N   1      34.783  13.158  13.825  0.00  0.00    -0.398 OA
HETATM   22  H   UNK N   1      35.136  14.041  14.018  0.00  0.00     0.209 HD
ENDBRANCH  20  21
ENDBRANCH  17  20
BRANCH  18  23
HETATM   23  O   UNK N   1      37.529  13.527  12.303  0.00  0.00    -0.390 OA
HETATM   24  H   UNK N   1      38.411  13.332  11.949  0.00  0.00     0.210 HD
ENDBRANCH  18  23
BRANCH  19  25
HETATM   25  O   UNK N   1      37.007  16.117  10.833  0.00  0.00    -0.388 OA
HETATM   26  H   UNK N   1      37.252  16.442  11.713  0.00  0.00     0.210 HD
ENDBRANCH  19  25
ENDBRANCH   1  15
BRANCH  12  27
HETATM   27  N   UNK N   1      33.031  16.490   4.763  0.00  0.00    -0.383 N 
HETATM   28  H   UNK N   1      33.906  16.324   4.346  0.00  0.00     0.157 HD
HETATM   29  H   UNK N   1      32.268  16.767   4.206  0.00  0.00     0.157 HD
ENDBRANCH  12  27
BRANCH   6  30
HETATM   30  N   UNK N   1      29.337  17.469   7.891  0.00  0.00    -0.301 N 
HETATM   31  C   UNK N   1      28.774  18.611   7.977  0.00  0.00     0.085 C 
ATOM     32  HN  UNK N   1      29.017  16.815   7.176  1.00  0.00     0.186 HD
BRANCH  31  33
HETATM   33  C   UNK N   1      27.842  18.976   6.880  0.00  0.00     0.025 C 
HETATM   34  C   UNK N   1      27.707  20.485   6.739  0.00  0.00     0.010 C 
HETATM   35  C   UNK N   1      26.789  20.800   5.558  0.00  0.00     0.001 C 
HETATM   36  C   UNK N   1      27.338  20.188   4.267  0.00  0.00     0.000 C 
HETATM   37  C   UNK N   1      27.487  18.680   4.417  0.00  0.00     0.001 C 
HETATM   38  C   UNK N   1      28.409  18.384   5.584  0.00  0.00     0.010 C 
ENDBRANCH  31  33
ENDBRANCH   6  30
TORSDOF 8
ENDMDL
MODEL 2
REMARK VINA RESULT:      -7.5     10.086     13.615
REMARK  8 active torsions:
REMARK  status: ('A' for Active; 'I' for Inactive)
REMARK    1  A    between atoms: C_16  and  O_2 
REMARK    2  A    between atoms: C_18  and  O_3 
REMARK    3  A    between atoms: O_4  and  C_26 
REMARK    4  A    between atoms: C_17  and  N_5 
REMARK    5  A    between atoms: N_10  and  N_12 
REMARK       I    between atoms: N_12  and  C_32 
REMARK    6  A    between atoms: N_15  and  C_31 
REMARK    7  A    between atoms: C_19  and  C_26 
REMARK    8  A    between atoms: C_20  and  C_29 
ROOT
HETATM    1  N   UNK N   1      22.812  17.789   4.337  0.00  0.00    -0.297 N 
HETATM    2  N   UNK N   1      24.938  17.062   4.469  0.00  0.00    -0.346 N 
ATOM      3  HN  UNK N   1      25.935  16.938   4.289  1.00  0.00     0.167 HD
HETATM    4  N   UNK N   1      21.927  16.441   6.130  0.00  0.00    -0.172 N 
ATOM      5  HN  UNK N   1      20.974  16.792   6.041  1.00  0.00     0.186 HD
HETATM    6  N   UNK N   1      21.250  15.011   7.931  0.00  0.00    -0.133 N 
HETATM    7  N   UNK N   1      23.531  15.022   7.155  0.00  0.00    -0.173 N 
ATOM      8  HN  UNK N   1      23.751  14.312   7.853  1.00  0.00     0.186 HD
HETATM    9  C   UNK N   1      22.916  16.894   5.322  0.00  0.00     0.157 A 
HETATM   10  C   UNK N   1      24.065  17.888   3.820  0.00  0.00     0.188 A 
HETATM   11  C   UNK N   1      24.182  16.447   5.400  0.00  0.00     0.123 A 
HETATM   12  C   UNK N   1      24.518  15.476   6.328  0.00  0.00     0.145 A 
HETATM   13  C   UNK N   1      22.244  15.506   7.065  0.00  0.00     0.700 A 
HETATM   14  H   UNK N   1      20.301  15.244   7.807  0.00  0.00     0.205 HD
ENDROOT
BRANCH   1  15
HETATM   15  C   UNK N   1      21.589  18.447   3.867  0.00  0.00     0.262 C 
HETATM   16  O   UNK N   1      21.891  19.522   2.997  0.00  0.00    -0.353 OA
HETATM   17  C   UNK N   1      21.074  19.344   1.870  0.00  0.00     0.179 C 
HETATM   18  C   UNK N   1      19.903  18.515   2.334  0.00  0.00     0.182 C 
HETATM   19  C   UNK N   1      20.652  17.510   3.139  0.00  0.00     0.198 C 
BRANCH  17  20
HETATM   20  C   UNK N   1      20.650  20.698   1.325  0.00  0.00     0.198 C 
BRANCH  20  21
HETATM   21  O   UNK N   1      20.533  20.646  -0.063  0.00  0.00    -0.398 OA
HETATM   22  H   UNK N   1      21.131  20.403  -0.787  0.00  0.00     0.209 HD
ENDBRANCH  20  21
ENDBRANCH  17  20
BRANCH  18  23
HETATM   23  O   UNK N   1      19.222  17.925   1.270  0.00  0.00    -0.390 OA
HETATM   24  H   UNK N   1      18.335  17.888   0.878  0.00  0.00     0.210 HD
ENDBRANCH  18  23
BRANCH  19  25
HETATM   25  O   UNK N   1      19.808  16.854   4.036  0.00  0.00    -0.388 OA
HETATM   26  H   UNK N   1      20.033  15.993   4.421  0.00  0.00     0.210 HD
ENDBRANCH  19  25
ENDBRANCH   1  15
BRANCH  12  27
HETATM   27  N   UNK N   1      25.823  14.951   6.415  0.00  0.00    -0.383 N 
HETATM   28  H   UNK N   1      26.593  15.470   6.090  0.00  0.00     0.157 HD
HETATM   29  H   UNK N   1      25.964  14.056   6.801  0.00  0.00     0.157 HD
ENDBRANCH  12  27
BRANCH   6  30
HETATM   30  N   UNK N   1      21.652  14.196   8.947  0.00  0.00    -0.301 N 
HETATM   31  C   UNK N   1      21.609  12.925   8.858  0.00  0.00     0.085 C 
ATOM     32  HN  UNK N   1      21.997  14.619   9.810  1.00  0.00     0.186 HD
BRANCH  31  33
HETATM   33  C   UNK N   1      22.277  12.160   9.942  0.00  0.00     0.025 C 
HETATM   34  C   UNK N   1      23.686  12.672  10.202  0.00  0.00     0.010 C 
HETATM   35  C   UNK N   1      24.298  11.893  11.366  0.00  0.00     0.001 C 
HETATM   36  C   UNK N   1      23.436  12.033  12.624  0.00  0.00     0.000 C 
HETATM   37  C   UNK N   1      22.022  11.535  12.355  0.00  0.00     0.001 C 
HETATM   38  C   UNK N   1      21.425  12.324  11.207  0.00  0.00     0.010 C 
ENDBRANCH  31  33
ENDBRANCH   6  30
TORSDOF 8
ENDMDL
MODEL 3
REMARK VINA RESULT:      -7.5      3.627      9.101
REMARK  8 active torsions:
REMARK  status: ('A' for Active; 'I' for Inactive)
REMARK    1  A    between atoms: C_16  and  O_2 
REMARK    2  A    between atoms: C_18  and  O_3 
REMARK    3  A    between atoms: O_4  and  C_26 
REMARK    4  A    between atoms: C_17  and  N_5 
REMARK    5  A    between atoms: N_10  and  N_12 
REMARK       I    between atoms: N_12  and  C_32 
REMARK    6  A    between atoms: N_15  and  C_31 
REMARK    7  A    between atoms: C_19  and  C_26 
REMARK    8  A    between atoms: C_20  and  C_29 
ROOT
HETATM    1  N   UNK N   1      31.041  16.191   7.390  0.00  0.00    -0.297 N 
HETATM    2  N   UNK N   1      31.541  14.256   6.354  0.00  0.00    -0.346 N 
ATOM      3  HN  UNK N   1      31.548  13.487   5.683  1.00  0.00     0.167 HD
HETATM    4  N   UNK N   1      32.571  15.940   9.237  0.00  0.00    -0.172 N 
ATOM      5  HN  UNK N   1      32.318  16.824   9.680  1.00  0.00     0.186 HD
HETATM    6  N   UNK N   1      34.143  15.492  10.990  0.00  0.00    -0.133 N 
HETATM    7  N   UNK N   1      33.815  13.919   9.195  0.00  0.00    -0.173 N 
ATOM      8  HN  UNK N   1      34.509  13.310   9.628  1.00  0.00     0.186 HD
HETATM    9  C   UNK N   1      31.986  15.548   8.080  0.00  0.00     0.157 A 
HETATM   10  C   UNK N   1      30.777  15.387   6.326  0.00  0.00     0.188 A 
HETATM   11  C   UNK N   1      32.283  14.385   7.472  0.00  0.00     0.123 A 
HETATM   12  C   UNK N   1      33.213  13.527   8.034  0.00  0.00     0.145 A 
HETATM   13  C   UNK N   1      33.505  15.122   9.791  0.00  0.00     0.700 A 
HETATM   14  H   UNK N   1      33.852  16.282  11.502  0.00  0.00     0.205 HD
ENDROOT
BRANCH   1  15
HETATM   15  C   UNK N   1      30.378  17.445   7.758  0.00  0.00     0.262 C 
HETATM   16  O   UNK N   1      29.647  17.974   6.668  0.00  0.00    -0.353 OA
HETATM   17  C   UNK N   1      28.372  18.278   7.172  0.00  0.00     0.179 C 
HETATM   18  C   UNK N   1      28.549  18.468   8.658  0.00  0.00     0.182 C 
HETATM   19  C   UNK N   1      29.428  17.295   8.925  0.00  0.00     0.198 C 
BRANCH  17  20
HETATM   20  C   UNK N   1      27.833  19.522   6.485  0.00  0.00     0.198 C 
BRANCH  20  21
HETATM   21  O   UNK N   1      26.689  19.977   7.139  0.00  0.00    -0.398 OA
HETATM   22  H   UNK N   1      25.856  20.381   6.851  0.00  0.00     0.209 HD
ENDBRANCH  20  21
ENDBRANCH  17  20
BRANCH  18  23
HETATM   23  O   UNK N   1      27.341  18.380   9.346  0.00  0.00    -0.390 OA
HETATM   24  H   UNK N   1      26.542  18.901   9.527  0.00  0.00     0.210 HD
ENDBRANCH  18  23
BRANCH  19  25
HETATM   25  O   UNK N   1      30.102  17.438  10.139  0.00  0.00    -0.388 OA
HETATM   26  H   UNK N   1      30.836  16.857  10.393  0.00  0.00     0.210 HD
ENDBRANCH  19  25
ENDBRANCH   1  15
BRANCH  12  27
HETATM   27  N   UNK N   1      33.521  12.281   7.452  0.00  0.00    -0.383 N 
HETATM   28  H   UNK N   1      33.013  11.476   7.698  0.00  0.00     0.157 HD
HETATM   29  H   UNK N   1      34.252  12.217   6.795  0.00  0.00     0.157 HD
ENDBRANCH  12  27
BRANCH   6  30
HETATM   30  N   UNK N   1      35.179  14.716  11.416  0.00  0.00    -0.301 N 
HETATM   31  C   UNK N   1      35.627  14.772  12.609  0.00  0.00     0.085 C 
ATOM     32  HN  UNK N   1      35.612  14.067  10.757  1.00  0.00     0.186 HD
BRANCH  31  33
HETATM   33  C   UNK N   1      36.604  13.725  13.002  0.00  0.00     0.025 C 
HETATM   34  C   UNK N   1      36.279  13.141  14.369  0.00  0.00     0.010 C 
HETATM   35  C   UNK N   1      37.277  12.028  14.690  0.00  0.00     0.001 C 
HETATM   36  C   UNK N   1      37.236  10.937  13.617  0.00  0.00     0.000 C 
HETATM   37  C   UNK N   1      37.546  11.529  12.248  0.00  0.00     0.001 C 
HETATM   38  C   UNK N   1      36.542  12.622  11.938  0.00  0.00     0.010 C 
ENDBRANCH  31  33
ENDBRANCH   6  30
TORSDOF 8
ENDMDL
MODEL 4
REMARK VINA RESULT:      -7.4      1.564      1.909
REMARK  8 active torsions:
REMARK  status: ('A' for Active; 'I' for Inactive)
REMARK    1  A    between atoms: C_16  and  O_2 
REMARK    2  A    between atoms: C_18  and  O_3 
REMARK    3  A    between atoms: O_4  and  C_26 
REMARK    4  A    between atoms: C_17  and  N_5 
REMARK    5  A    between atoms: N_10  and  N_12 
REMARK       I    between atoms: N_12  and  C_32 
REMARK    6  A    between atoms: N_15  and  C_31 
REMARK    7  A    between atoms: C_19  and  C_26 
REMARK    8  A    between atoms: C_20  and  C_29 
ROOT
HETATM    1  N   UNK N   1      34.315  15.296   7.311  0.00  0.00    -0.297 N 
HETATM    2  N   UNK N   1      34.485  15.652   5.096  0.00  0.00    -0.346 N 
ATOM      3  HN  UNK N   1      34.844  15.677   4.141  1.00  0.00     0.167 HD
HETATM    4  N   UNK N   1      32.106  16.224   7.591  0.00  0.00    -0.172 N 
ATOM      5  HN  UNK N   1      32.065  16.048   8.595  1.00  0.00     0.186 HD
HETATM    6  N   UNK N   1      29.917  17.198   7.652  0.00  0.00    -0.133 N 
HETATM    7  N   UNK N   1      31.154  17.073   5.588  0.00  0.00    -0.173 N 
ATOM      8  HN  UNK N   1      30.374  17.530   5.117  1.00  0.00     0.186 HD
HETATM    9  C   UNK N   1      33.194  15.869   6.866  0.00  0.00     0.157 A 
HETATM   10  C   UNK N   1      35.102  15.163   6.211  0.00  0.00     0.188 A 
HETATM   11  C   UNK N   1      33.293  16.095   5.543  0.00  0.00     0.123 A 
HETATM   12  C   UNK N   1      32.260  16.722   4.869  0.00  0.00     0.145 A 
HETATM   13  C   UNK N   1      31.071  16.819   6.941  0.00  0.00     0.700 A 
HETATM   14  H   UNK N   1      29.881  17.144   8.635  0.00  0.00     0.205 HD
ENDROOT
BRANCH   1  15
HETATM   15  C   UNK N   1      34.647  14.969   8.701  0.00  0.00     0.262 C 
HETATM   16  O   UNK N   1      35.548  13.880   8.767  0.00  0.00    -0.353 OA
HETATM   17  C   UNK N   1      36.576  14.285   9.633  0.00  0.00     0.179 C 
HETATM   18  C   UNK N   1      35.982  15.359  10.509  0.00  0.00     0.182 C 
HETATM   19  C   UNK N   1      35.262  16.127   9.454  0.00  0.00     0.198 C 
BRANCH  17  20
HETATM   20  C   UNK N   1      37.073  13.091  10.432  0.00  0.00     0.198 C 
BRANCH  20  21
HETATM   21  O   UNK N   1      38.155  13.460  11.229  0.00  0.00    -0.398 OA
HETATM   22  H   UNK N   1      38.256  13.983  12.040  0.00  0.00     0.209 HD
ENDBRANCH  20  21
ENDBRANCH  17  20
BRANCH  18  23
HETATM   23  O   UNK N   1      36.961  16.128  11.135  0.00  0.00    -0.390 OA
HETATM   24  H   UNK N   1      37.413  16.982  11.046  0.00  0.00     0.210 HD
ENDBRANCH  18  23
BRANCH  19  25
HETATM   25  O   UNK N   1      34.275  16.942  10.010  0.00  0.00    -0.388 OA
HETATM   26  H   UNK N   1      34.309  17.239  10.932  0.00  0.00     0.210 HD
ENDBRANCH  19  25
ENDBRANCH   1  15
BRANCH  12  27
HETATM   27  N   UNK N   1      32.340  17.014   3.492  0.00  0.00    -0.383 N 
HETATM   28  H   UNK N   1      32.001  16.375   2.825  0.00  0.00     0.157 HD
HETATM   29  H   UNK N   1      32.741  17.863   3.196  0.00  0.00     0.157 HD
ENDBRANCH  12  27
BRANCH   6  30
HETATM   30  N   UNK N   1      28.851  17.643   6.929  0.00  0.00    -0.301 N 
HETATM   31  C   UNK N   1      28.282  18.759   7.172  0.00  0.00     0.085 C 
ATOM     32  HN  UNK N   1      28.495  17.064   6.168  1.00  0.00     0.186 HD
BRANCH  31  33
HETATM   33  C   UNK N   1      27.281  19.224   6.179  0.00  0.00     0.025 C 
HETATM   34  C   UNK N   1      27.448  20.704   5.866  0.00  0.00     0.010 C 
HETATM   35  C   UNK N   1      26.436  21.109   4.794  0.00  0.00     0.001 C 
HETATM   36  C   UNK N   1      26.623  20.269   3.528  0.00  0.00     0.000 C 
HETATM   37  C   UNK N   1      26.471  18.788   3.848  0.00  0.00     0.001 C 
HETATM   38  C   UNK N   1      27.488  18.399   4.902  0.00  0.00     0.010 C 
ENDBRANCH  31  33
ENDBRANCH   6  30
TORSDOF 8
ENDMDL
MODEL 5
REMARK VINA RESULT:      -7.3      4.700     10.352
REMARK  8 active torsions:
REMARK  status: ('A' for Active; 'I' for Inactive)
REMARK    1  A    between atoms: C_16  and  O_2 
REMARK    2  A    between atoms: C_18  and  O_3 
REMARK    3  A    between atoms: O_4  and  C_26 
REMARK    4  A    between atoms: C_17  and  N_5 
REMARK    5  A    between atoms: N_10  and  N_12 
REMARK       I    between atoms: N_12  and  C_32 
REMARK    6  A    between atoms: N_15  and  C_31 
REMARK    7  A    between atoms: C_19  and  C_26 
REMARK    8  A    between atoms: C_20  and  C_29 
ROOT
HETATM    1  N   UNK N   1      35.835  14.737  10.345  0.00  0.00    -0.297 N 
HETATM    2  N   UNK N   1      37.370  13.164   9.863  0.00  0.00    -0.346 N 
ATOM      3  HN  UNK N   1      38.077  12.614   9.374  1.00  0.00     0.167 HD
HETATM    4  N   UNK N   1      35.303  13.961  12.566  0.00  0.00    -0.172 N 
ATOM      5  HN  UNK N   1      34.611  14.687  12.749  1.00  0.00     0.186 HD
HETATM    6  N   UNK N   1      34.916  13.020  14.736  0.00  0.00    -0.133 N 
HETATM    7  N   UNK N   1      36.499  12.018  13.222  0.00  0.00    -0.173 N 
ATOM      8  HN  UNK N   1      36.689  11.304  13.926  1.00  0.00     0.186 HD
HETATM    9  C   UNK N   1      35.972  13.915  11.388  0.00  0.00     0.157 A 
HETATM   10  C   UNK N   1      36.704  14.266   9.412  0.00  0.00     0.188 A 
HETATM   11  C   UNK N   1      36.882  12.965  11.104  0.00  0.00     0.123 A 
HETATM   12  C   UNK N   1      37.160  11.974  12.029  0.00  0.00     0.145 A 
HETATM   13  C   UNK N   1      35.582  13.009  13.496  0.00  0.00     0.700 A 
HETATM   14  H   UNK N   1      34.168  13.638  14.910  0.00  0.00     0.205 HD
ENDROOT
BRANCH   1  15
HETATM   15  C   UNK N   1      34.884  15.845  10.213  0.00  0.00     0.262 C 
HETATM   16  O   UNK N   1      35.356  16.814   9.296  0.00  0.00    -0.353 OA
HETATM   17  C   UNK N   1      34.288  17.069   8.422  0.00  0.00     0.179 C 
HETATM   18  C   UNK N   1      33.037  16.689   9.176  0.00  0.00     0.182 C 
HETATM   19  C   UNK N   1      33.513  15.402   9.755  0.00  0.00     0.198 C 
BRANCH  17  20
HETATM   20  C   UNK N   1      34.299  18.532   8.011  0.00  0.00     0.198 C 
BRANCH  20  21
HETATM   21  O   UNK N   1      35.376  19.191   8.600  0.00  0.00    -0.398 OA
HETATM   22  H   UNK N   1      35.609  19.437   9.509  0.00  0.00     0.209 HD
ENDBRANCH  20  21
ENDBRANCH  17  20
BRANCH  18  23
HETATM   23  O   UNK N   1      31.947  16.506   8.327  0.00  0.00    -0.390 OA
HETATM   24  H   UNK N   1      31.738  16.431   7.382  0.00  0.00     0.210 HD
ENDBRANCH  18  23
BRANCH  19  25
HETATM   25  O   UNK N   1      32.725  15.016  10.840  0.00  0.00    -0.388 OA
HETATM   26  H   UNK N   1      32.537  14.086  11.037  0.00  0.00     0.210 HD
ENDBRANCH  19  25
ENDBRANCH   1  15
BRANCH  12  27
HETATM   27  N   UNK N   1      38.075  10.938  11.754  0.00  0.00    -0.383 N 
HETATM   28  H   UNK N   1      37.755  10.046  11.489  0.00  0.00     0.157 HD
HETATM   29  H   UNK N   1      39.042  11.107  11.830  0.00  0.00     0.157 HD
ENDBRANCH  12  27
BRANCH   6  30
HETATM   30  N   UNK N   1      35.344  12.144  15.688  0.00  0.00    -0.301 N 
HETATM   31  C   UNK N   1      35.285  12.410  16.934  0.00  0.00     0.085 C 
ATOM     32  HN  UNK N   1      35.726  11.245  15.393  1.00  0.00     0.186 HD
BRANCH  31  33
HETATM   33  C   UNK N   1      35.577  11.291  17.866  0.00  0.00     0.025 C 
HETATM   34  C   UNK N   1      35.297  11.678  19.311  0.00  0.00     0.010 C 
HETATM   35  C   UNK N   1      35.553  10.472  20.214  0.00  0.00     0.001 C 
HETATM   36  C   UNK N   1      34.678   9.287  19.796  0.00  0.00     0.000 C 
HETATM   37  C   UNK N   1      34.950   8.913  18.345  0.00  0.00     0.001 C 
HETATM   38  C   UNK N   1      34.680  10.115  17.461  0.00  0.00     0.010 C 
ENDBRANCH  31  33
ENDBRANCH   6  30
TORSDOF 8
ENDMDL
MODEL 6
REMARK VINA RESULT:      -7.3      2.134      3.285
REMARK  8 active torsions:
REMARK  status: ('A' for Active; 'I' for Inactive)
REMARK    1  A    between atoms: C_16  and  O_2 
REMARK    2  A    between atoms: C_18  and  O_3 
REMARK    3  A    between atoms: O_4  and  C_26 
REMARK    4  A    between atoms: C_17  and  N_5 
REMARK    5  A    between atoms: N_10  and  N_12 
REMARK       I    between atoms: N_12  and  C_32 
REMARK    6  A    between atoms: N_15  and  C_31 
REMARK    7  A    between atoms: C_19  and  C_26 
REMARK    8  A    between atoms: C_20  and  C_29 
ROOT
HETATM    1  N   UNK N   1      33.336  15.753   6.540  0.00  0.00    -0.297 N 
HETATM    2  N   UNK N   1      33.710  16.089   4.346  0.00  0.00    -0.346 N 
ATOM      3  HN  UNK N   1      34.167  16.138   3.435  1.00  0.00     0.167 HD
HETATM    4  N   UNK N   1      31.023  16.436   6.553  0.00  0.00    -0.172 N 
ATOM      5  HN  UNK N   1      30.890  16.274   7.551  1.00  0.00     0.186 HD
HETATM    6  N   UNK N   1      28.748  17.164   6.350  0.00  0.00    -0.133 N 
HETATM    7  N   UNK N   1      30.212  17.142   4.436  0.00  0.00    -0.173 N 
ATOM      8  HN  UNK N   1      29.444  17.503   3.870  1.00  0.00     0.186 HD
HETATM    9  C   UNK N   1      32.216  16.192   5.959  0.00  0.00     0.157 A 
HETATM   10  C   UNK N   1      34.249  15.690   5.535  0.00  0.00     0.188 A 
HETATM   11  C   UNK N   1      32.435  16.405   4.649  0.00  0.00     0.123 A 
HETATM   12  C   UNK N   1      31.421  16.903   3.850  0.00  0.00     0.145 A 
HETATM   13  C   UNK N   1      30.008  16.903   5.778  0.00  0.00     0.700 A 
HETATM   14  H   UNK N   1      28.610  17.122   7.324  0.00  0.00     0.205 HD
ENDROOT
BRANCH   1  15
HETATM   15  C   UNK N   1      33.545  15.488   7.966  0.00  0.00     0.262 C 
HETATM   16  O   UNK N   1      34.712  14.715   8.174  0.00  0.00    -0.353 OA
HETATM   17  C   UNK N   1      35.436  15.374   9.181  0.00  0.00     0.179 C 
HETATM   18  C   UNK N   1      34.426  16.189   9.949  0.00  0.00     0.182 C 
HETATM   19  C   UNK N   1      33.670  16.748   8.794  0.00  0.00     0.198 C 
BRANCH  17  20
HETATM   20  C   UNK N   1      36.146  14.353  10.054  0.00  0.00     0.198 C 
BRANCH  20  21
HETATM   21  O   UNK N   1      37.173  14.963  10.772  0.00  0.00    -0.398 OA
HETATM   22  H   UNK N   1      38.068  14.699  11.039  0.00  0.00     0.209 HD
ENDBRANCH  20  21
ENDBRANCH  17  20
BRANCH  18  23
HETATM   23  O   UNK N   1      35.028  17.191  10.709  0.00  0.00    -0.390 OA
HETATM   24  H   UNK N   1      35.897  17.592  10.864  0.00  0.00     0.210 HD
ENDBRANCH  18  23
BRANCH  19  25
HETATM   25  O   UNK N   1      32.414  17.210   9.190  0.00  0.00    -0.388 OA
HETATM   26  H   UNK N   1      31.767  16.636   9.626  0.00  0.00     0.210 HD
ENDBRANCH  19  25
ENDBRANCH   1  15
BRANCH  12  27
HETATM   27  N   UNK N   1      31.621  17.180   2.482  0.00  0.00    -0.383 N 
HETATM   28  H   UNK N   1      31.098  16.708   1.796  0.00  0.00     0.157 HD
HETATM   29  H   UNK N   1      32.291  17.850   2.213  0.00  0.00     0.157 HD
ENDBRANCH  12  27
BRANCH   6  30
HETATM   30  N   UNK N   1      27.727  17.478   5.504  0.00  0.00    -0.301 N 
HETATM   31  C   UNK N   1      27.173  18.627   5.502  0.00  0.00     0.085 C 
ATOM     32  HN  UNK N   1      27.394  16.768   4.850  1.00  0.00     0.186 HD
BRANCH  31  33
HETATM   33  C   UNK N   1      26.229  18.907   4.389  0.00  0.00     0.025 C 
HETATM   34  C   UNK N   1      24.786  18.929   4.872  0.00  0.00     0.010 C 
HETATM   35  C   UNK N   1      23.869  19.284   3.701  0.00  0.00     0.001 C 
HETATM   36  C   UNK N   1      24.256  20.638   3.102  0.00  0.00     0.000 C 
HETATM   37  C   UNK N   1      25.705  20.617   2.634  0.00  0.00     0.001 C 
HETATM   38  C   UNK N   1      26.602  20.276   3.808  0.00  0.00     0.010 C 
ENDBRANCH  31  33
ENDBRANCH   6  30
TORSDOF 8
ENDMDL
MODEL 7
REMARK VINA RESULT:      -7.2      8.587     13.035
REMARK  8 active torsions:
REMARK  status: ('A' for Active; 'I' for Inactive)
REMARK    1  A    between atoms: C_16  and  O_2 
REMARK    2  A    between atoms: C_18  and  O_3 
REMARK    3  A    between atoms: O_4  and  C_26 
REMARK    4  A    between atoms: C_17  and  N_5 
REMARK    5  A    between atoms: N_10  and  N_12 
REMARK       I    between atoms: N_12  and  C_32 
REMARK    6  A    between atoms: N_15  and  C_31 
REMARK    7  A    between atoms: C_19  and  C_26 
REMARK    8  A    between atoms: C_20  and  C_29 
ROOT
HETATM    1  N   UNK N   1      20.787  16.076   4.363  0.00  0.00    -0.297 N 
HETATM    2  N   UNK N   1      21.238  14.443   5.845  0.00  0.00    -0.346 N 
ATOM      3  HN  UNK N   1      21.151  13.613   6.431  1.00  0.00     0.167 HD
HETATM    4  N   UNK N   1      22.886  17.246   4.564  0.00  0.00    -0.172 N 
ATOM      5  HN  UNK N   1      22.646  17.971   3.888  1.00  0.00     0.186 HD
HETATM    6  N   UNK N   1      25.028  18.262   4.921  0.00  0.00    -0.133 N 
HETATM    7  N   UNK N   1      24.386  16.278   6.128  0.00  0.00    -0.173 N 
ATOM      8  HN  UNK N   1      25.288  16.300   6.604  1.00  0.00     0.186 HD
HETATM    9  C   UNK N   1      22.015  16.250   4.856  0.00  0.00     0.157 A 
HETATM   10  C   UNK N   1      20.318  14.957   4.976  0.00  0.00     0.188 A 
HETATM   11  C   UNK N   1      22.288  15.283   5.751  0.00  0.00     0.123 A 
HETATM   12  C   UNK N   1      23.498  15.285   6.424  0.00  0.00     0.145 A 
HETATM   13  C   UNK N   1      24.088  17.250   5.198  0.00  0.00     0.700 A 
HETATM   14  H   UNK N   1      24.795  19.035   4.357  0.00  0.00     0.205 HD
ENDROOT
BRANCH   1  15
HETATM   15  C   UNK N   1      20.076  16.957   3.432  0.00  0.00     0.262 C 
HETATM   16  O   UNK N   1      20.524  18.294   3.554  0.00  0.00    -0.353 OA
HETATM   17  C   UNK N   1      20.790  18.731   2.247  0.00  0.00     0.179 C 
HETATM   18  C   UNK N   1      19.955  17.860   1.342  0.00  0.00     0.182 C 
HETATM   19  C   UNK N   1      20.232  16.546   1.985  0.00  0.00     0.198 C 
BRANCH  17  20
HETATM   20  C   UNK N   1      20.445  20.205   2.118  0.00  0.00     0.198 C 
BRANCH  20  21
HETATM   21  O   UNK N   1      20.438  20.585   0.777  0.00  0.00    -0.398 OA
HETATM   22  H   UNK N   1      20.827  21.318   0.275  0.00  0.00     0.209 HD
ENDBRANCH  20  21
ENDBRANCH  17  20
BRANCH  18  23
HETATM   23  O   UNK N   1      20.399  17.896   0.021  0.00  0.00    -0.390 OA
HETATM   24  H   UNK N   1      20.367  17.370  -0.794  0.00  0.00     0.210 HD
ENDBRANCH  18  23
BRANCH  19  25
HETATM   25  O   UNK N   1      19.270  15.599   1.630  0.00  0.00    -0.388 OA
HETATM   26  H   UNK N   1      18.342  15.680   1.898  0.00  0.00     0.210 HD
ENDBRANCH  19  25
ENDBRANCH   1  15
BRANCH  12  27
HETATM   27  N   UNK N   1      23.806  14.314   7.399  0.00  0.00    -0.383 N 
HETATM   28  H   UNK N   1      23.089  13.842   7.878  0.00  0.00     0.157 HD
HETATM   29  H   UNK N   1      24.748  14.110   7.603  0.00  0.00     0.157 HD
ENDBRANCH  12  27
BRANCH   6  30
HETATM   30  N   UNK N   1      26.271  18.130   5.462  0.00  0.00    -0.301 N 
HETATM   31  C   UNK N   1      27.014  19.136   5.713  0.00  0.00     0.085 C 
ATOM     32  HN  UNK N   1      26.620  17.194   5.673  1.00  0.00     0.186 HD
BRANCH  31  33
HETATM   33  C   UNK N   1      28.246  18.872   6.499  0.00  0.00     0.025 C 
HETATM   34  C   UNK N   1      27.994  19.002   7.994  0.00  0.00     0.010 C 
HETATM   35  C   UNK N   1      29.277  18.657   8.752  0.00  0.00     0.001 C 
HETATM   36  C   UNK N   1      29.745  17.241   8.409  0.00  0.00     0.000 C 
HETATM   37  C   UNK N   1      29.981  17.110   6.910  0.00  0.00     0.001 C 
HETATM   38  C   UNK N   1      28.698  17.443   6.172  0.00  0.00     0.010 C 
ENDBRANCH  31  33
ENDBRANCH   6  30
TORSDOF 8
ENDMDL
MODEL 8
REMARK VINA RESULT:      -7.0      3.096      5.006
REMARK  8 active torsions:
REMARK  status: ('A' for Active; 'I' for Inactive)
REMARK    1  A    between atoms: C_16  and  O_2 
REMARK    2  A    between atoms: C_18  and  O_3 
REMARK    3  A    between atoms: O_4  and  C_26 
REMARK    4  A    between atoms: C_17  and  N_5 
REMARK    5  A    between atoms: N_10  and  N_12 
REMARK       I    between atoms: N_12  and  C_32 
REMARK    6  A    between atoms: N_15  and  C_31 
REMARK    7  A    between atoms: C_19  and  C_26 
REMARK    8  A    between atoms: C_20  and  C_29 
ROOT
HETATM    1  N   UNK N   1      35.420  11.375  12.011  0.00  0.00    -0.297 N 
HETATM    2  N   UNK N   1      35.378  10.401   9.983  0.00  0.00    -0.346 N 
ATOM      3  HN  UNK N   1      35.476   9.718   9.231  1.00  0.00     0.167 HD
HETATM    4  N   UNK N   1      34.528  13.511  11.332  0.00  0.00    -0.172 N 
ATOM      5  HN  UNK N   1      34.563  13.920  12.265  1.00  0.00     0.186 HD
HETATM    6  N   UNK N   1      33.642  15.555  10.448  0.00  0.00    -0.133 N 
HETATM    7  N   UNK N   1      34.060  13.668   9.010  0.00  0.00    -0.173 N 
ATOM      8  HN  UNK N   1      33.730  14.222   8.220  1.00  0.00     0.186 HD
HETATM    9  C   UNK N   1      34.930  12.235  11.115  0.00  0.00     0.157 A 
HETATM   10  C   UNK N   1      35.690  10.247  11.303  0.00  0.00     0.188 A 
HETATM   11  C   UNK N   1      34.912  11.663   9.897  0.00  0.00     0.123 A 
HETATM   12  C   UNK N   1      34.478  12.385   8.799  0.00  0.00     0.145 A 
HETATM   13  C   UNK N   1      34.076  14.228  10.269  0.00  0.00     0.700 A 
HETATM   14  H   UNK N   1      33.759  16.020  11.309  0.00  0.00     0.205 HD
ENDROOT
BRANCH   1  15
HETATM   15  C   UNK N   1      35.689  11.635  13.429  0.00  0.00     0.262 C 
HETATM   16  O   UNK N   1      36.503  12.782  13.590  0.00  0.00    -0.353 OA
HETATM   17  C   UNK N   1      35.867  13.570  14.563  0.00  0.00     0.179 C 
HETATM   18  C   UNK N   1      35.015  12.623  15.370  0.00  0.00     0.182 C 
HETATM   19  C   UNK N   1      34.433  11.839  14.245  0.00  0.00     0.198 C 
BRANCH  17  20
HETATM   20  C   UNK N   1      36.911  14.280  15.409  0.00  0.00     0.198 C 
BRANCH  20  21
HETATM   21  O   UNK N   1      36.430  14.478  16.703  0.00  0.00    -0.398 OA
HETATM   22  H   UNK N   1      36.823  14.783  17.535  0.00  0.00     0.209 HD
ENDBRANCH  20  21
ENDBRANCH  17  20
BRANCH  18  23
HETATM   23  O   UNK N   1      34.034  13.291  16.101  0.00  0.00    -0.390 OA
HETATM   24  H   UNK N   1      33.938  13.855  16.884  0.00  0.00     0.210 HD
ENDBRANCH  18  23
BRANCH  19  25
HETATM   25  O   UNK N   1      33.926  10.618  14.692  0.00  0.00    -0.388 OA
HETATM   26  H   UNK N   1      34.181  10.234  15.545  0.00  0.00     0.210 HD
ENDBRANCH  19  25
ENDBRANCH   1  15
BRANCH  12  27
HETATM   27  N   UNK N   1      34.482  11.838   7.501  0.00  0.00    -0.383 N 
HETATM   28  H   UNK N   1      33.773  12.068   6.859  0.00  0.00     0.157 HD
HETATM   29  H   UNK N   1      35.200  11.218   7.235  0.00  0.00     0.157 HD
ENDBRANCH  12  27
BRANCH   6  30
HETATM   30  N   UNK N   1      33.053  16.172   9.385  0.00  0.00    -0.301 N 
HETATM   31  C   UNK N   1      33.630  17.105   8.735  0.00  0.00     0.085 C 
ATOM     32  HN  UNK N   1      32.118  15.878   9.101  1.00  0.00     0.186 HD
BRANCH  31  33
HETATM   33  C   UNK N   1      32.976  17.538   7.473  0.00  0.00     0.025 C 
HETATM   34  C   UNK N   1      33.868  17.287   6.266  0.00  0.00     0.010 C 
HETATM   35  C   UNK N   1      33.120  17.691   4.995  0.00  0.00     0.001 C 
HETATM   36  C   UNK N   1      31.810  16.909   4.867  0.00  0.00     0.000 C 
HETATM   37  C   UNK N   1      30.927  17.150   6.084  0.00  0.00     0.001 C 
HETATM   38  C   UNK N   1      31.678  16.734   7.334  0.00  0.00     0.010 C 
ENDBRANCH  31  33
ENDBRANCH   6  30
TORSDOF 8
ENDMDL
MODEL 9
REMARK VINA RESULT:      -6.9      7.678     11.868
REMARK  8 active torsions:
REMARK  status: ('A' for Active; 'I' for Inactive)
REMARK    1  A    between atoms: C_16  and  O_2 
REMARK    2  A    between atoms: C_18  and  O_3 
REMARK    3  A    between atoms: O_4  and  C_26 
REMARK    4  A    between atoms: C_17  and  N_5 
REMARK    5  A    between atoms: N_10  and  N_12 
REMARK       I    between atoms: N_12  and  C_32 
REMARK    6  A    between atoms: N_15  and  C_31 
REMARK    7  A    between atoms: C_19  and  C_26 
REMARK    8  A    between atoms: C_20  and  C_29 
ROOT
HETATM    1  N   UNK N   1      22.096  17.697   4.422  0.00  0.00    -0.297 N 
HETATM    2  N   UNK N   1      22.709  19.502   3.225  0.00  0.00    -0.346 N 
ATOM      3  HN  UNK N   1      22.679  20.314   2.608  1.00  0.00     0.167 HD
HETATM    4  N   UNK N   1      24.265  17.214   5.360  0.00  0.00    -0.172 N 
ATOM      5  HN  UNK N   1      23.952  16.399   5.888  1.00  0.00     0.186 HD
HETATM    6  N   UNK N   1      26.500  16.904   6.171  0.00  0.00    -0.133 N 
HETATM    7  N   UNK N   1      25.976  18.701   4.653  0.00  0.00    -0.173 N 
ATOM      8  HN  UNK N   1      26.956  18.981   4.680  1.00  0.00     0.186 HD
HETATM    9  C   UNK N   1      23.398  17.931   4.604  0.00  0.00     0.157 A 
HETATM   10  C   UNK N   1      21.681  18.674   3.573  0.00  0.00     0.188 A 
HETATM   11  C   UNK N   1      23.774  19.003   3.883  0.00  0.00     0.123 A 
HETATM   12  C   UNK N   1      25.097  19.409   3.886  0.00  0.00     0.145 A 
HETATM   13  C   UNK N   1      25.564  17.614   5.394  0.00  0.00     0.700 A 
HETATM   14  H   UNK N   1      26.261  16.054   6.608  0.00  0.00     0.205 HD
ENDROOT
BRANCH   1  15
HETATM   15  C   UNK N   1      21.318  16.575   4.954  0.00  0.00     0.262 C 
HETATM   16  O   UNK N   1      21.445  16.489   6.361  0.00  0.00    -0.353 OA
HETATM   17  C   UNK N   1      20.138  16.373   6.859  0.00  0.00     0.179 C 
HETATM   18  C   UNK N   1      19.312  15.813   5.727  0.00  0.00     0.182 C 
HETATM   19  C   UNK N   1      19.844  16.664   4.626  0.00  0.00     0.198 C 
BRANCH  17  20
HETATM   20  C   UNK N   1      20.133  15.474   8.084  0.00  0.00     0.198 C 
BRANCH  20  21
HETATM   21  O   UNK N   1      19.996  14.140   7.704  0.00  0.00    -0.398 OA
HETATM   22  H   UNK N   1      20.309  13.610   6.954  0.00  0.00     0.209 HD
ENDBRANCH  20  21
ENDBRANCH  17  20
BRANCH  18  23
HETATM   23  O   UNK N   1      17.947  16.012   5.924  0.00  0.00    -0.390 OA
HETATM   24  H   UNK N   1      17.305  16.729   6.044  0.00  0.00     0.210 HD
ENDBRANCH  18  23
BRANCH  19  25
HETATM   25  O   UNK N   1      19.576  16.098   3.379  0.00  0.00    -0.388 OA
HETATM   26  H   UNK N   1      20.126  15.395   3.002  0.00  0.00     0.210 HD
ENDBRANCH  19  25
ENDBRANCH   1  15
BRANCH  12  27
HETATM   27  N   UNK N   1      25.540  20.501   3.113  0.00  0.00    -0.383 N 
HETATM   28  H   UNK N   1      25.029  21.341   3.096  0.00  0.00     0.157 HD
HETATM   29  H   UNK N   1      26.368  20.422   2.585  0.00  0.00     0.157 HD
ENDBRANCH  12  27
BRANCH   6  30
HETATM   30  N   UNK N   1      27.747  17.437   6.295  0.00  0.00    -0.301 N 
HETATM   31  C   UNK N   1      28.535  17.112   7.244  0.00  0.00     0.085 C 
ATOM     32  HN  UNK N   1      28.062  18.120   5.605  1.00  0.00     0.186 HD
BRANCH  31  33
HETATM   33  C   UNK N   1      29.935  17.596   7.140  0.00  0.00     0.025 C 
HETATM   34  C   UNK N   1      30.680  17.441   8.458  0.00  0.00     0.010 C 
HETATM   35  C   UNK N   1      32.129  17.894   8.273  0.00  0.00     0.001 C 
HETATM   36  C   UNK N   1      32.814  17.082   7.171  0.00  0.00     0.000 C 
HETATM   37  C   UNK N   1      32.056  17.226   5.857  0.00  0.00     0.001 C 
HETATM   38  C   UNK N   1      30.626  16.762   6.053  0.00  0.00     0.010 C 
ENDBRANCH  31  33
ENDBRANCH   6  30
TORSDOF 8
ENDMDL
