REMARK  32 active torsions:
REMARK  status: ('A' for Active; 'I' for Inactive)
REMARK    1  A    between atoms: C_11  and  C_10 
REMARK    2  A    between atoms: C_18  and  C_10 
REMARK    3  A    between atoms: C_23  and  C_11 
REMARK    4  A    between atoms: C_43  and  C_18 
REMARK    5  A    between atoms: N_58  and  C_23 
REMARK    6  A    between atoms: C_33  and  C_24 
REMARK    7  A    between atoms: C_40  and  C_24 
REMARK    8  A    between atoms: C_34  and  C_25 
REMARK    9  A    between atoms: C_45  and  C_25 
REMARK   10  A    between atoms: C_35  and  C_26 
REMARK   11  A    between atoms: C_44  and  C_26 
REMARK   12  A    between atoms: C_36  and  C_27 
REMARK   13  A    between atoms: C_46  and  C_27 
REMARK   14  A    between atoms: C_49  and  C_32 
REMARK   15  A    between atoms: O_78  and  C_37 
REMARK   16  A    between atoms: C_51  and  C_40 
REMARK   17  A    between atoms: C_40  and  N_59 
REMARK   18  A    between atoms: C_50  and  C_44 
REMARK   19  A    between atoms: C_44  and  N_66 
REMARK   20  A    between atoms: C_47  and  N_72 
REMARK   21  A    between atoms: C_48  and  C_55 
REMARK   22  A    between atoms: N_60  and  C_50 
REMARK   23  A    between atoms: O_79  and  C_50 
REMARK   24  A    between atoms: N_72  and  C_51 
REMARK   25  A    between atoms: C_51  and  O_80 
REMARK   26  A    between atoms: C_52  and  O_81 
REMARK   27  A    between atoms: C_53  and  O_82 
REMARK   28  A    between atoms: C_54  and  O_83 
REMARK   29  A    between atoms: N_66  and  C_55 
REMARK   30  A    between atoms: C_55  and  O_84 
REMARK   31  A    between atoms: C_56  and  O_85 
REMARK   32  A    between atoms: C_57  and  O_86 
ROOT
HETATM    1  C   UNK N   1      -0.395  -3.077  -1.504  0.00  0.00     0.119 C 
HETATM    2  C   UNK N   1      -1.431  -1.647   1.630  0.00  0.00     0.119 C 
HETATM    3  C   UNK N   1      -1.527   4.561   0.383  0.00  0.00     0.158 C 
HETATM    4  C   UNK N   1       2.315  -0.737   1.239  0.00  0.00     0.162 C 
HETATM    5  C   UNK N   1       1.889   2.876   0.131  0.00  0.00     0.162 C 
HETATM    6  C   UNK N   1       1.077  -3.362  -1.185  0.00  0.00     0.168 C 
HETATM    7  C   UNK N   1      -2.448  -0.874   0.797  0.00  0.00     0.168 C 
HETATM    8  C   UNK N   1      -2.717   1.887  -0.307  0.00  0.00     0.161 C 
HETATM    9  C   UNK N   1      -2.243   4.226  -0.921  0.00  0.00     0.135 C 
HETATM   10  C   UNK N   1       2.587   0.701   0.868  0.00  0.00     0.135 C 
HETATM   11  C   UNK N   1       0.635   3.608  -0.267  0.00  0.00     0.135 C 
HETATM   12  C   UNK N   1       1.541  -2.714   0.087  0.00  0.00     0.136 C 
HETATM   13  C   UNK N   1      -1.912   0.759  -0.951  0.00  0.00     0.135 C 
HETATM   14  N   UNK N   1      -0.320   3.769   0.593  0.00  0.00    -0.361 N 
ATOM     15  HN  UNK N   1      -0.220   3.301   1.494  1.00  0.00     0.162 HD
HETATM   16  N   UNK N   1       1.766  -1.440   0.096  0.00  0.00    -0.360 N 
ATOM     17  HN  UNK N   1       1.545  -0.903  -0.742  1.00  0.00     0.162 HD
HETATM   18  N   UNK N   1       1.624   1.494   0.508  0.00  0.00    -0.360 N 
ATOM     19  HN  UNK N   1       0.667   1.144   0.488  1.00  0.00     0.162 HD
HETATM   20  N   UNK N   1      -1.823  -0.431  -0.438  0.00  0.00    -0.360 N 
ATOM     21  HN  UNK N   1      -1.264  -1.116  -0.947  1.00  0.00     0.162 HD
HETATM   22  N   UNK N   1      -2.716   3.052  -1.179  0.00  0.00    -0.360 N 
ATOM     23  HN  UNK N   1      -3.136   2.928  -2.100  1.00  0.00     0.162 HD
HETATM   24  S   UNK N   1      -1.744  -3.897  -0.586  0.00  0.00    -0.095 SA
HETATM   25  S   UNK N   1      -1.222  -3.463   1.456  0.00  0.00    -0.095 SA
ENDROOT
BRANCH   7  26
HETATM   26  C   UNK N   1      -3.729  -1.608   0.490  0.00  0.00     0.136 C 
BRANCH  26  27
HETATM   27  N   UNK N   1      -4.488  -2.021   1.452  0.00  0.00    -0.360 N 
ATOM     28  HN  UNK N   1      -4.159  -1.886   2.408  1.00  0.00     0.162 HD
BRANCH  27  29
HETATM   29  C   UNK N   1      -5.783  -2.667   1.266  0.00  0.00     0.161 C 
BRANCH  29  30
HETATM   30  C   UNK N   1      -5.694  -3.883   0.333  0.00  0.00     0.074 C 
BRANCH  30  31
HETATM   31  C   UNK N   1      -4.780  -4.976   0.801  0.00  0.00    -0.028 A 
HETATM   32  C   UNK N   1      -4.146  -5.098   2.037  0.00  0.00     0.096 A 
HETATM   33  N   UNK N   1      -3.387  -6.224   2.048  0.00  0.00    -0.365 N 
HETATM   34  C   UNK N   1      -3.545  -6.792   0.838  0.00  0.00     0.042 A 
HETATM   35  H   UNK N   1      -2.832  -6.557   2.790  0.00  0.00     0.165 HD
HETATM   36  C   UNK N   1      -2.951  -7.964   0.378  0.00  0.00     0.030 A 
HETATM   37  C   UNK N   1      -4.390  -6.058   0.058  0.00  0.00    -0.002 A 
HETATM   38  C   UNK N   1      -3.251  -8.378  -0.934  0.00  0.00     0.002 A 
HETATM   39  C   UNK N   1      -4.126  -7.617  -1.742  0.00  0.00     0.001 A 
HETATM   40  C   UNK N   1      -4.708  -6.437  -1.245  0.00  0.00     0.014 A 
ENDBRANCH  30  31
ENDBRANCH  29  30
BRANCH  29  41
HETATM   41  C   UNK N   1      -6.804  -1.695   0.720  0.00  0.00     0.132 C 
BRANCH  41  42
HETATM   42  N   UNK N   1      -7.835  -1.389   1.417  0.00  0.00    -0.382 N 
HETATM   43  H   UNK N   1      -8.028  -0.586   1.952  0.00  0.00     0.158 HD
ATOM     44  HN  UNK N   1      -8.576  -2.091   1.417  1.00  0.00     0.158 HD
ENDBRANCH  41  42
BRANCH  41  45
HETATM   45  O   UNK N   1      -6.657  -1.159  -0.507  0.00  0.00    -0.348 OA
HETATM   46  H   UNK N   1      -6.283  -1.062  -1.361  0.00  0.00     0.219 HD
ENDBRANCH  41  45
ENDBRANCH  29  41
ENDBRANCH  27  29
ENDBRANCH  26  27
BRANCH  26  47
HETATM   47  O   UNK N   1      -4.087  -1.796  -0.799  0.00  0.00    -0.348 OA
HETATM   48  H   UNK N   1      -4.324  -1.646  -1.693  0.00  0.00     0.219 HD
ENDBRANCH  26  47
ENDBRANCH   7  26
BRANCH  13  49
HETATM   49  O   UNK N   1      -1.273   1.001  -2.112  0.00  0.00    -0.348 OA
HETATM   50  H   UNK N   1      -0.905   0.701  -2.920  0.00  0.00     0.219 HD
ENDBRANCH  13  49
BRANCH   8  51
HETATM   51  C   UNK N   1      -4.186   1.482  -0.073  0.00  0.00     0.008 C 
HETATM   52  C   UNK N   1      -4.932   1.218  -1.371  0.00  0.00     0.012 C 
HETATM   53  C   UNK N   1      -4.932   2.529   0.738  0.00  0.00     0.012 C 
ENDBRANCH   8  51
BRANCH   6  54
HETATM   54  N   UNK N   1       1.571  -4.727  -1.346  0.00  0.00    -0.360 N 
ATOM     55  HN  UNK N   1       2.174  -4.895  -2.151  1.00  0.00     0.162 HD
BRANCH  54  56
HETATM   56  C   UNK N   1       1.332  -5.746  -0.588  0.00  0.00     0.135 C 
BRANCH  56  57
HETATM   57  C   UNK N   1       2.045  -7.042  -0.843  0.00  0.00     0.153 C 
BRANCH  57  58
HETATM   58  C   UNK N   1       2.890  -7.424   0.378  0.00  0.00     0.071 C 
BRANCH  58  59
HETATM   59  C   UNK N   1       4.356  -7.165   0.203  0.00  0.00    -0.056 A 
HETATM   60  C   UNK N   1       4.910  -5.905   0.468  0.00  0.00     0.007 A 
HETATM   61  C   UNK N   1       6.289  -5.704   0.319  0.00  0.00     0.001 A 
HETATM   62  C   UNK N   1       7.112  -6.758  -0.092  0.00  0.00     0.000 A 
HETATM   63  C   UNK N   1       6.559  -8.015  -0.350  0.00  0.00     0.001 A 
HETATM   64  C   UNK N   1       5.185  -8.218  -0.198  0.00  0.00     0.007 A 
ENDBRANCH  58  59
ENDBRANCH  57  58
BRANCH  57  65
HETATM   65  N   UNK N   1       1.063  -8.087  -1.069  0.00  0.00    -0.419 N 
HETATM   66  H   UNK N   1       0.083  -7.857  -1.228  0.00  0.00     0.150 HD
HETATM   67  H   UNK N   1       1.358  -9.063  -1.069  0.00  0.00     0.150 HD
ENDBRANCH  57  65
ENDBRANCH  56  57
BRANCH  56  68
HETATM   68  O   UNK N   1       0.491  -5.660   0.459  0.00  0.00    -0.348 OA
HETATM   69  H   UNK N   1       0.250  -5.123   1.188  0.00  0.00     0.219 HD
ENDBRANCH  56  68
ENDBRANCH  54  56
ENDBRANCH   6  54
BRANCH   9  70
HETATM   70  O   UNK N   1      -2.407   5.191  -1.848  0.00  0.00    -0.348 OA
HETATM   71  H   UNK N   1      -1.884   5.625  -2.492  0.00  0.00     0.219 HD
ENDBRANCH   9  70
BRANCH  12  72
HETATM   72  O   UNK N   1       1.838  -3.470   1.166  0.00  0.00    -0.348 OA
HETATM   73  H   UNK N   1       1.486  -3.910   1.915  0.00  0.00     0.219 HD
ENDBRANCH  12  72
BRANCH   3  74
HETATM   74  C   UNK N   1      -1.225   6.062   0.555  0.00  0.00     0.033 C 
BRANCH  74  75
HETATM   75  C   UNK N   1      -0.366   6.689  -0.538  0.00  0.00     0.004 C 
BRANCH  75  76
HETATM   76  C   UNK N   1      -0.015   8.136  -0.212  0.00  0.00     0.019 C 
BRANCH  76  77
HETATM   77  C   UNK N   1      -1.248   9.022  -0.131  0.00  0.00     0.111 C 
BRANCH  77  78
HETATM   78  N   UNK N   1      -1.717   9.083   1.243  0.00  0.00    -0.430 N 
HETATM   79  H   UNK N   1      -1.844   9.389   2.208  0.00  0.00     0.149 HD
HETATM   80  H   UNK N   1      -2.337   8.274   1.243  0.00  0.00     0.149 HD
ENDBRANCH  77  78
ENDBRANCH  76  77
ENDBRANCH  75  76
ENDBRANCH  74  75
ENDBRANCH   3  74
BRANCH   4  81
HETATM   81  C   UNK N   1       3.611  -1.429   1.748  0.00  0.00     0.072 C 
BRANCH  81  82
HETATM   82  C   UNK N   1       4.696  -1.650   0.725  0.00  0.00    -0.056 A 
HETATM   83  C   UNK N   1       4.486  -2.483  -0.384  0.00  0.00     0.010 A 
HETATM   84  C   UNK N   1       5.509  -2.709  -1.306  0.00  0.00     0.037 A 
HETATM   85  C   UNK N   1       6.757  -2.114  -1.118  0.00  0.00     0.065 A 
HETATM   86  C   UNK N   1       6.979  -1.291  -0.009  0.00  0.00     0.037 A 
HETATM   87  C   UNK N   1       5.951  -1.063   0.912  0.00  0.00     0.010 A 
BRANCH  85  88
HETATM   88  O   UNK N   1       7.744  -2.335  -2.001  0.00  0.00    -0.361 OA
HETATM   89  H   UNK N   1       7.955  -3.008  -2.617  0.00  0.00     0.217 HD
ENDBRANCH  85  88
ENDBRANCH  81  82
ENDBRANCH   4  81
BRANCH  11  90
HETATM   90  O   UNK N   1       0.547   4.128  -1.509  0.00  0.00    -0.348 OA
HETATM   91  H   UNK N   1       0.830   4.362  -2.372  0.00  0.00     0.219 HD
ENDBRANCH  11  90
BRANCH  10  92
HETATM   92  O   UNK N   1       3.855   1.162   0.923  0.00  0.00    -0.348 OA
HETATM   93  H   UNK N   1       4.572   0.560   0.961  0.00  0.00     0.219 HD
ENDBRANCH  10  92
BRANCH   5  94
HETATM   94  C   UNK N   1       2.533   3.633   1.303  0.00  0.00     0.074 C 
BRANCH  94  95
HETATM   95  C   UNK N   1       3.449   4.719   0.837  0.00  0.00    -0.028 A 
HETATM   96  C   UNK N   1       3.236   6.087   0.944  0.00  0.00     0.096 A 
HETATM   97  N   UNK N   1       4.300   6.752   0.423  0.00  0.00    -0.365 N 
HETATM   98  C   UNK N   1       5.164   5.809   0.005  0.00  0.00     0.042 A 
HETATM   99  H   UNK N   1       4.416   7.728   0.363  0.00  0.00     0.165 HD
HETATM  100  C   UNK N   1       6.407   6.011  -0.590  0.00  0.00     0.030 A 
HETATM  101  C   UNK N   1       4.676   4.558   0.242  0.00  0.00    -0.002 A 
HETATM  102  C   UNK N   1       7.159   4.874  -0.943  0.00  0.00     0.002 A 
HETATM  103  C   UNK N   1       6.653   3.578  -0.695  0.00  0.00     0.001 A 
HETATM  104  C   UNK N   1       5.394   3.412  -0.093  0.00  0.00     0.014 A 
ENDBRANCH  94  95
ENDBRANCH   5  94
TORSDOF 32
