MODEL 1
REMARK VINA RESULT:      -6.2      0.000      0.000
REMARK  4 active torsions:
REMARK  status: ('A' for Active; 'I' for Inactive)
REMARK    1  A    between atoms: O_1  and  C_10 
REMARK    2  A    between atoms: O_1  and  C_14 
REMARK    3  A    between atoms: O_2  and  C_18 
REMARK       I    between atoms: N_7  and  C_13 
REMARK       I    between atoms: N_7  and  C_18 
REMARK    4  A    between atoms: C_14  and  C_16 
ROOT
HETATM    1  O   UNK N   1      34.898  13.522  12.954  0.00  0.00    -0.238 OA
HETATM    2  N   UNK N   1      35.597  16.798  10.531  0.00  0.00    -0.189 N 
HETATM    3  N   UNK N   1      34.101  15.155  10.979  0.00  0.00    -0.189 N 
ATOM      4  HN  UNK N   1      33.626  14.376  11.436  1.00  0.00     0.184 HD
HETATM    5  N   UNK N   1      36.020  15.413  12.491  0.00  0.00    -0.135 N 
HETATM    6  C   UNK N   1      34.651  16.775   9.581  0.00  0.00     0.079 A 
HETATM    7  C   UNK N   1      33.751  15.791   9.852  0.00  0.00     0.076 A 
HETATM    8  C   UNK N   1      33.507  17.305   7.542  0.00  0.00     0.071 A 
HETATM    9  C   UNK N   1      34.564  17.564   8.439  0.00  0.00     0.069 A 
HETATM   10  C   UNK N   1      32.676  15.519   9.017  0.00  0.00     0.035 A 
HETATM   11  C   UNK N   1      35.235  15.792  11.368  0.00  0.00     0.687 A 
HETATM   12  C   UNK N   1      32.559  16.286   7.843  0.00  0.00     0.039 A 
HETATM   13  C   UNK N   1      35.805  14.296  13.235  0.00  0.00     0.378 C 
HETATM   14  H   UNK N   1      36.371  17.402  10.605  0.00  0.00     0.184 HD
HETATM   15  H   UNK N   1      36.767  16.000  12.749  0.00  0.00     0.189 HD
ENDROOT
BRANCH  13  16
HETATM   16  O   UNK N   1      36.628  14.034  14.278  0.00  0.00    -0.308 OA
HETATM   17  C   UNK N   1      36.195  13.395  15.417  0.00  0.00     0.215 C 
ENDBRANCH  13  16
BRANCH   8  18
HETATM   18  O   UNK N   1      33.441  18.007   6.386  0.00  0.00    -0.351 OA
BRANCH  18  19
HETATM   19  C   UNK N   1      33.487  17.401   5.149  0.00  0.00     0.175 C 
BRANCH  19  20
HETATM   20  C   UNK N   1      32.220  17.690   4.379  0.00  0.00     0.022 C 
HETATM   21  C   UNK N   1      32.313  17.033   3.019  0.00  0.00     0.007 C 
ENDBRANCH  19  20
ENDBRANCH  18  19
ENDBRANCH   8  18
TORSDOF 4
ENDMDL
MODEL 2
REMARK VINA RESULT:      -6.1      2.912      8.824
REMARK  4 active torsions:
REMARK  status: ('A' for Active; 'I' for Inactive)
REMARK    1  A    between atoms: O_1  and  C_10 
REMARK    2  A    between atoms: O_1  and  C_14 
REMARK    3  A    between atoms: O_2  and  C_18 
REMARK       I    between atoms: N_7  and  C_13 
REMARK       I    between atoms: N_7  and  C_18 
REMARK    4  A    between atoms: C_14  and  C_16 
ROOT
HETATM    1  O   UNK N   1      34.198  15.543  10.337  0.00  0.00    -0.238 OA
HETATM    2  N   UNK N   1      36.724  14.600  13.469  0.00  0.00    -0.189 N 
HETATM    3  N   UNK N   1      35.050  13.785  12.176  0.00  0.00    -0.189 N 
ATOM      4  HN  UNK N   1      34.365  13.690  11.427  1.00  0.00     0.184 HD
HETATM    5  N   UNK N   1      36.039  15.947  11.558  0.00  0.00    -0.135 N 
HETATM    6  C   UNK N   1      36.277  13.443  13.981  0.00  0.00     0.079 A 
HETATM    7  C   UNK N   1      35.274  12.953  13.203  0.00  0.00     0.076 A 
HETATM    8  C   UNK N   1      36.011  11.628  15.524  0.00  0.00     0.071 A 
HETATM    9  C   UNK N   1      36.685  12.809  15.150  0.00  0.00     0.069 A 
HETATM   10  C   UNK N   1      34.602  11.778  13.512  0.00  0.00     0.035 A 
HETATM   11  C   UNK N   1      35.950  14.783  12.370  0.00  0.00     0.687 A 
HETATM   12  C   UNK N   1      34.976  11.112  14.693  0.00  0.00     0.039 A 
HETATM   13  C   UNK N   1      35.159  16.265  10.574  0.00  0.00     0.378 C 
HETATM   14  H   UNK N   1      37.444  15.177  13.811  0.00  0.00     0.184 HD
HETATM   15  H   UNK N   1      36.791  16.562  11.719  0.00  0.00     0.189 HD
ENDROOT
BRANCH  13  16
HETATM   16  O   UNK N   1      35.342  17.410   9.873  0.00  0.00    -0.308 OA
HETATM   17  C   UNK N   1      34.642  17.691   8.722  0.00  0.00     0.215 C 
ENDBRANCH  13  16
BRANCH   8  18
HETATM   18  O   UNK N   1      36.336  11.029  16.695  0.00  0.00    -0.351 OA
BRANCH  18  19
HETATM   19  C   UNK N   1      35.470  10.977  17.765  0.00  0.00     0.175 C 
BRANCH  19  20
HETATM   20  C   UNK N   1      35.209  12.368  18.294  0.00  0.00     0.022 C 
HETATM   21  C   UNK N   1      35.350  12.353  19.800  0.00  0.00     0.007 C 
ENDBRANCH  19  20
ENDBRANCH  18  19
ENDBRANCH   8  18
TORSDOF 4
ENDMDL
MODEL 3
REMARK VINA RESULT:      -5.8      2.101      3.054
REMARK  4 active torsions:
REMARK  status: ('A' for Active; 'I' for Inactive)
REMARK    1  A    between atoms: O_1  and  C_10 
REMARK    2  A    between atoms: O_1  and  C_14 
REMARK    3  A    between atoms: O_2  and  C_18 
REMARK       I    between atoms: N_7  and  C_13 
REMARK       I    between atoms: N_7  and  C_18 
REMARK    4  A    between atoms: C_14  and  C_16 
ROOT
HETATM    1  O   UNK N   1      36.063  15.223  12.470  0.00  0.00    -0.238 OA
HETATM    2  N   UNK N   1      32.897  14.439   9.931  0.00  0.00    -0.189 N 
HETATM    3  N   UNK N   1      34.598  15.885  10.320  0.00  0.00    -0.189 N 
ATOM      4  HN  UNK N   1      35.447  16.300  10.706  1.00  0.00     0.184 HD
HETATM    5  N   UNK N   1      34.504  13.825  11.656  0.00  0.00    -0.135 N 
HETATM    6  C   UNK N   1      32.761  15.520   9.149  0.00  0.00     0.079 A 
HETATM    7  C   UNK N   1      33.784  16.387   9.382  0.00  0.00     0.076 A 
HETATM    8  C   UNK N   1      31.771  17.055   7.596  0.00  0.00     0.071 A 
HETATM    9  C   UNK N   1      31.734  15.810   8.258  0.00  0.00     0.069 A 
HETATM   10  C   UNK N   1      33.883  17.610   8.732  0.00  0.00     0.035 A 
HETATM   11  C   UNK N   1      34.027  14.694  10.638  0.00  0.00     0.687 A 
HETATM   12  C   UNK N   1      32.856  17.947   7.831  0.00  0.00     0.039 A 
HETATM   13  C   UNK N   1      35.507  14.132  12.519  0.00  0.00     0.378 C 
HETATM   14  H   UNK N   1      32.315  13.646   9.978  0.00  0.00     0.184 HD
HETATM   15  H   UNK N   1      34.081  12.940  11.740  0.00  0.00     0.189 HD
ENDROOT
BRANCH  13  16
HETATM   16  O   UNK N   1      35.868  13.223  13.457  0.00  0.00    -0.308 OA
HETATM   17  C   UNK N   1      35.629  13.413  14.799  0.00  0.00     0.215 C 
ENDBRANCH  13  16
BRANCH   8  18
HETATM   18  O   UNK N   1      30.746  17.395   6.779  0.00  0.00    -0.351 OA
BRANCH  18  19
HETATM   19  C   UNK N   1      29.427  17.279   7.159  0.00  0.00     0.175 C 
BRANCH  19  20
HETATM   20  C   UNK N   1      29.032  18.445   8.034  0.00  0.00     0.022 C 
HETATM   21  C   UNK N   1      28.249  17.923   9.219  0.00  0.00     0.007 C 
ENDBRANCH  19  20
ENDBRANCH  18  19
ENDBRANCH   8  18
TORSDOF 4
ENDMDL
MODEL 4
REMARK VINA RESULT:      -5.8      2.667      8.513
REMARK  4 active torsions:
REMARK  status: ('A' for Active; 'I' for Inactive)
REMARK    1  A    between atoms: O_1  and  C_10 
REMARK    2  A    between atoms: O_1  and  C_14 
REMARK    3  A    between atoms: O_2  and  C_18 
REMARK       I    between atoms: N_7  and  C_13 
REMARK       I    between atoms: N_7  and  C_18 
REMARK    4  A    between atoms: C_14  and  C_16 
ROOT
HETATM    1  O   UNK N   1      35.685  17.213  10.386  0.00  0.00    -0.238 OA
HETATM    2  N   UNK N   1      34.472  13.438  11.555  0.00  0.00    -0.189 N 
HETATM    3  N   UNK N   1      35.618  15.271  12.237  0.00  0.00    -0.189 N 
ATOM      4  HN  UNK N   1      35.999  16.216  12.273  1.00  0.00     0.184 HD
HETATM    5  N   UNK N   1      34.375  15.407  10.122  0.00  0.00    -0.135 N 
HETATM    6  C   UNK N   1      35.123  13.167  12.696  0.00  0.00     0.079 A 
HETATM    7  C   UNK N   1      35.808  14.268  13.106  0.00  0.00     0.076 A 
HETATM    8  C   UNK N   1      35.999  11.897  14.531  0.00  0.00     0.071 A 
HETATM    9  C   UNK N   1      35.183  11.959  13.382  0.00  0.00     0.069 A 
HETATM   10  C   UNK N   1      36.599  14.267  14.247  0.00  0.00     0.035 A 
HETATM   11  C   UNK N   1      34.798  14.730  11.298  0.00  0.00     0.687 A 
HETATM   12  C   UNK N   1      36.697  13.060  14.964  0.00  0.00     0.039 A 
HETATM   13  C   UNK N   1      34.837  16.622   9.728  0.00  0.00     0.378 C 
HETATM   14  H   UNK N   1      33.892  12.841  11.029  0.00  0.00     0.184 HD
HETATM   15  H   UNK N   1      33.702  14.965   9.556  0.00  0.00     0.189 HD
ENDROOT
BRANCH  13  16
HETATM   16  O   UNK N   1      34.366  17.162   8.579  0.00  0.00    -0.308 OA
HETATM   17  C   UNK N   1      34.596  18.474   8.232  0.00  0.00     0.215 C 
ENDBRANCH  13  16
BRANCH   8  18
HETATM   18  O   UNK N   1      36.135  10.715  15.176  0.00  0.00    -0.351 OA
BRANCH  18  19
HETATM   19  C   UNK N   1      35.052   9.965  15.582  0.00  0.00     0.175 C 
BRANCH  19  20
HETATM   20  C   UNK N   1      34.831  10.129  17.068  0.00  0.00     0.022 C 
HETATM   21  C   UNK N   1      36.175  10.250  17.752  0.00  0.00     0.007 C 
ENDBRANCH  19  20
ENDBRANCH  18  19
ENDBRANCH   8  18
TORSDOF 4
ENDMDL
MODEL 5
REMARK VINA RESULT:      -5.7      2.252      3.053
REMARK  4 active torsions:
REMARK  status: ('A' for Active; 'I' for Inactive)
REMARK    1  A    between atoms: O_1  and  C_10 
REMARK    2  A    between atoms: O_1  and  C_14 
REMARK    3  A    between atoms: O_2  and  C_18 
REMARK       I    between atoms: N_7  and  C_13 
REMARK       I    between atoms: N_7  and  C_18 
REMARK    4  A    between atoms: C_14  and  C_16 
ROOT
HETATM    1  O   UNK N   1      36.470  16.456  10.692  0.00  0.00    -0.238 OA
HETATM    2  N   UNK N   1      32.619  15.722   9.380  0.00  0.00    -0.189 N 
HETATM    3  N   UNK N   1      34.662  16.438   8.708  0.00  0.00    -0.189 N 
ATOM      4  HN  UNK N   1      35.661  16.649   8.702  1.00  0.00     0.184 HD
HETATM    5  N   UNK N   1      34.450  15.515  10.975  0.00  0.00    -0.135 N 
HETATM    6  C   UNK N   1      32.536  16.234   8.143  0.00  0.00     0.079 A 
HETATM    7  C   UNK N   1      33.764  16.661   7.739  0.00  0.00     0.076 A 
HETATM    8  C   UNK N   1      31.553  17.028   6.106  0.00  0.00     0.071 A 
HETATM    9  C   UNK N   1      31.401  16.391   7.355  0.00  0.00     0.069 A 
HETATM   10  C   UNK N   1      33.970  17.265   6.507  0.00  0.00     0.035 A 
HETATM   11  C   UNK N   1      33.931  15.866   9.699  0.00  0.00     0.687 A 
HETATM   12  C   UNK N   1      32.845  17.454   5.683  0.00  0.00     0.039 A 
HETATM   13  C   UNK N   1      35.701  15.823  11.405  0.00  0.00     0.378 C 
HETATM   14  H   UNK N   1      31.899  15.332   9.926  0.00  0.00     0.184 HD
HETATM   15  H   UNK N   1      33.864  15.014  11.587  0.00  0.00     0.189 HD
ENDROOT
BRANCH  13  16
HETATM   16  O   UNK N   1      36.080  15.443  12.649  0.00  0.00    -0.308 OA
HETATM   17  C   UNK N   1      35.850  14.177  13.136  0.00  0.00     0.215 C 
ENDBRANCH  13  16
BRANCH   8  18
HETATM   18  O   UNK N   1      30.454  17.260   5.350  0.00  0.00    -0.351 OA
BRANCH  18  19
HETATM   19  C   UNK N   1      29.269  17.712   5.887  0.00  0.00     0.175 C 
BRANCH  19  20
HETATM   20  C   UNK N   1      28.126  17.432   4.940  0.00  0.00     0.022 C 
HETATM   21  C   UNK N   1      28.690  16.957   3.619  0.00  0.00     0.007 C 
ENDBRANCH  19  20
ENDBRANCH  18  19
ENDBRANCH   8  18
TORSDOF 4
ENDMDL
MODEL 6
REMARK VINA RESULT:      -5.6      9.090     12.811
REMARK  4 active torsions:
REMARK  status: ('A' for Active; 'I' for Inactive)
REMARK    1  A    between atoms: O_1  and  C_10 
REMARK    2  A    between atoms: O_1  and  C_14 
REMARK    3  A    between atoms: O_2  and  C_18 
REMARK       I    between atoms: N_7  and  C_13 
REMARK       I    between atoms: N_7  and  C_18 
REMARK    4  A    between atoms: C_14  and  C_16 
ROOT
HETATM    1  O   UNK N   1      22.223  21.283   2.680  0.00  0.00    -0.238 OA
HETATM    2  N   UNK N   1      24.316  18.072   4.225  0.00  0.00    -0.189 N 
HETATM    3  N   UNK N   1      24.449  20.296   3.809  0.00  0.00    -0.189 N 
ATOM      4  HN  UNK N   1      24.190  21.252   3.564  1.00  0.00     0.184 HD
HETATM    5  N   UNK N   1      22.280  19.187   3.484  0.00  0.00    -0.135 N 
HETATM    6  C   UNK N   1      25.577  18.493   4.409  0.00  0.00     0.079 A 
HETATM    7  C   UNK N   1      25.654  19.829   4.161  0.00  0.00     0.076 A 
HETATM    8  C   UNK N   1      27.938  18.397   4.809  0.00  0.00     0.071 A 
HETATM    9  C   UNK N   1      26.694  17.736   4.744  0.00  0.00     0.069 A 
HETATM   10  C   UNK N   1      26.850  20.530   4.244  0.00  0.00     0.035 A 
HETATM   11  C   UNK N   1      23.653  19.196   3.855  0.00  0.00     0.687 A 
HETATM   12  C   UNK N   1      28.007  19.799   4.568  0.00  0.00     0.039 A 
HETATM   13  C   UNK N   1      21.631  20.238   2.920  0.00  0.00     0.378 C 
HETATM   14  H   UNK N   1      23.958  17.162   4.336  0.00  0.00     0.184 HD
HETATM   15  H   UNK N   1      21.766  18.363   3.649  0.00  0.00     0.189 HD
ENDROOT
BRANCH  13  16
HETATM   16  O   UNK N   1      20.322  20.105   2.599  0.00  0.00    -0.308 OA
HETATM   17  C   UNK N   1      19.659  18.902   2.687  0.00  0.00     0.215 C 
ENDBRANCH  13  16
BRANCH   8  18
HETATM   18  O   UNK N   1      29.054  17.671   5.060  0.00  0.00    -0.351 OA
BRANCH  18  19
HETATM   19  C   UNK N   1      29.108  16.719   6.055  0.00  0.00     0.175 C 
BRANCH  19  20
HETATM   20  C   UNK N   1      30.187  17.068   7.053  0.00  0.00     0.022 C 
HETATM   21  C   UNK N   1      29.618  18.033   8.071  0.00  0.00     0.007 C 
ENDBRANCH  19  20
ENDBRANCH  18  19
ENDBRANCH   8  18
TORSDOF 4
ENDMDL
MODEL 7
REMARK VINA RESULT:      -5.5      1.904      2.678
REMARK  4 active torsions:
REMARK  status: ('A' for Active; 'I' for Inactive)
REMARK    1  A    between atoms: O_1  and  C_10 
REMARK    2  A    between atoms: O_1  and  C_14 
REMARK    3  A    between atoms: O_2  and  C_18 
REMARK       I    between atoms: N_7  and  C_13 
REMARK       I    between atoms: N_7  and  C_18 
REMARK    4  A    between atoms: C_14  and  C_16 
ROOT
HETATM    1  O   UNK N   1      36.106  11.226  13.264  0.00  0.00    -0.238 OA
HETATM    2  N   UNK N   1      36.519  15.255  12.441  0.00  0.00    -0.189 N 
HETATM    3  N   UNK N   1      35.222  13.441  12.034  0.00  0.00    -0.189 N 
ATOM      4  HN  UNK N   1      34.826  12.503  12.089  1.00  0.00     0.184 HD
HETATM    5  N   UNK N   1      37.001  13.236  13.717  0.00  0.00    -0.135 N 
HETATM    6  C   UNK N   1      35.640  15.535  11.467  0.00  0.00     0.079 A 
HETATM    7  C   UNK N   1      34.860  14.447  11.226  0.00  0.00     0.076 A 
HETATM    8  C   UNK N   1      34.558  16.743   9.701  0.00  0.00     0.071 A 
HETATM    9  C   UNK N   1      35.519  16.710  10.733  0.00  0.00     0.069 A 
HETATM   10  C   UNK N   1      33.879  14.440  10.243  0.00  0.00     0.035 A 
HETATM   11  C   UNK N   1      36.241  13.967  12.763  0.00  0.00     0.687 A 
HETATM   12  C   UNK N   1      33.733  15.606   9.469  0.00  0.00     0.039 A 
HETATM   13  C   UNK N   1      36.888  11.898  13.925  0.00  0.00     0.378 C 
HETATM   14  H   UNK N   1      37.203  15.846  12.831  0.00  0.00     0.184 HD
HETATM   15  H   UNK N   1      37.650  13.734  14.265  0.00  0.00     0.189 HD
ENDROOT
BRANCH  13  16
HETATM   16  O   UNK N   1      37.677  11.310  14.857  0.00  0.00    -0.308 OA
HETATM   17  C   UNK N   1      38.094  10.003  14.751  0.00  0.00     0.215 C 
ENDBRANCH  13  16
BRANCH   8  18
HETATM   18  O   UNK N   1      34.470  17.847   8.922  0.00  0.00    -0.351 OA
BRANCH  18  19
HETATM   19  C   UNK N   1      33.432  18.048   8.039  0.00  0.00     0.175 C 
BRANCH  19  20
HETATM   20  C   UNK N   1      33.846  17.639   6.645  0.00  0.00     0.022 C 
HETATM   21  C   UNK N   1      32.604  17.338   5.834  0.00  0.00     0.007 C 
ENDBRANCH  19  20
ENDBRANCH  18  19
ENDBRANCH   8  18
TORSDOF 4
ENDMDL
MODEL 8
REMARK VINA RESULT:      -5.4      2.017      7.815
REMARK  4 active torsions:
REMARK  status: ('A' for Active; 'I' for Inactive)
REMARK    1  A    between atoms: O_1  and  C_10 
REMARK    2  A    between atoms: O_1  and  C_14 
REMARK    3  A    between atoms: O_2  and  C_18 
REMARK       I    between atoms: N_7  and  C_13 
REMARK       I    between atoms: N_7  and  C_18 
REMARK    4  A    between atoms: C_14  and  C_16 
ROOT
HETATM    1  O   UNK N   1      32.382  15.139   8.147  0.00  0.00    -0.238 OA
HETATM    2  N   UNK N   1      34.922  16.095  11.265  0.00  0.00    -0.189 N 
HETATM    3  N   UNK N   1      34.154  14.370  10.011  0.00  0.00    -0.189 N 
ATOM      4  HN  UNK N   1      33.688  13.843   9.272  1.00  0.00     0.184 HD
HETATM    5  N   UNK N   1      33.542  16.652   9.335  0.00  0.00    -0.135 N 
HETATM    6  C   UNK N   1      35.313  14.932  11.806  0.00  0.00     0.079 A 
HETATM    7  C   UNK N   1      34.853  13.897  11.051  0.00  0.00     0.076 A 
HETATM    8  C   UNK N   1      36.259  13.400  13.389  0.00  0.00     0.071 A 
HETATM    9  C   UNK N   1      36.027  14.730  12.982  0.00  0.00     0.069 A 
HETATM   10  C   UNK N   1      35.082  12.571  11.393  0.00  0.00     0.035 A 
HETATM   11  C   UNK N   1      34.212  15.718  10.172  0.00  0.00     0.687 A 
HETATM   12  C   UNK N   1      35.792  12.323  12.582  0.00  0.00     0.039 A 
HETATM   13  C   UNK N   1      32.664  16.313   8.356  0.00  0.00     0.378 C 
HETATM   14  H   UNK N   1      35.109  17.007  11.584  0.00  0.00     0.184 HD
HETATM   15  H   UNK N   1      33.729  17.609   9.474  0.00  0.00     0.189 HD
ENDROOT
BRANCH  13  16
HETATM   16  O   UNK N   1      32.078  17.295   7.630  0.00  0.00    -0.308 OA
HETATM   17  C   UNK N   1      30.761  17.235   7.234  0.00  0.00     0.215 C 
ENDBRANCH  13  16
BRANCH   8  18
HETATM   18  O   UNK N   1      36.887  13.174  14.567  0.00  0.00    -0.351 OA
BRANCH  18  19
HETATM   19  C   UNK N   1      36.306  12.457  15.590  0.00  0.00     0.175 C 
BRANCH  19  20
HETATM   20  C   UNK N   1      35.118  13.207  16.145  0.00  0.00     0.022 C 
HETATM   21  C   UNK N   1      35.101  13.052  17.650  0.00  0.00     0.007 C 
ENDBRANCH  19  20
ENDBRANCH  18  19
ENDBRANCH   8  18
TORSDOF 4
ENDMDL
MODEL 9
REMARK VINA RESULT:      -5.4      2.535      8.375
REMARK  4 active torsions:
REMARK  status: ('A' for Active; 'I' for Inactive)
REMARK    1  A    between atoms: O_1  and  C_10 
REMARK    2  A    between atoms: O_1  and  C_14 
REMARK    3  A    between atoms: O_2  and  C_18 
REMARK       I    between atoms: N_7  and  C_13 
REMARK       I    between atoms: N_7  and  C_18 
REMARK    4  A    between atoms: C_14  and  C_16 
ROOT
HETATM    1  O   UNK N   1      34.071  15.911   9.563  0.00  0.00    -0.238 OA
HETATM    2  N   UNK N   1      36.448  15.236  12.877  0.00  0.00    -0.189 N 
HETATM    3  N   UNK N   1      34.967  14.251  11.472  0.00  0.00    -0.189 N 
ATOM      4  HN  UNK N   1      34.352  14.085  10.675  1.00  0.00     0.184 HD
HETATM    5  N   UNK N   1      35.766  16.506  10.912  0.00  0.00    -0.135 N 
HETATM    6  C   UNK N   1      36.089  14.039  13.364  0.00  0.00     0.079 A 
HETATM    7  C   UNK N   1      35.203  13.447  12.518  0.00  0.00     0.076 A 
HETATM    8  C   UNK N   1      35.904  12.204  14.895  0.00  0.00     0.071 A 
HETATM    9  C   UNK N   1      36.475  13.450  14.563  0.00  0.00     0.069 A 
HETATM   10  C   UNK N   1      34.637  12.207  12.785  0.00  0.00     0.035 A 
HETATM   11  C   UNK N   1      35.741  15.339  11.723  0.00  0.00     0.687 A 
HETATM   12  C   UNK N   1      34.992  11.583  13.995  0.00  0.00     0.039 A 
HETATM   13  C   UNK N   1      34.931  16.730   9.865  0.00  0.00     0.378 C 
HETATM   14  H   UNK N   1      37.077  15.887  13.266  0.00  0.00     0.184 HD
HETATM   15  H   UNK N   1      36.435  17.197  11.123  0.00  0.00     0.189 HD
ENDROOT
BRANCH  13  16
HETATM   16  O   UNK N   1      35.044  17.888   9.171  0.00  0.00    -0.308 OA
HETATM   17  C   UNK N   1      34.246  18.181   8.088  0.00  0.00     0.215 C 
ENDBRANCH  13  16
BRANCH   8  18
HETATM   18  O   UNK N   1      36.205  11.643  16.090  0.00  0.00    -0.351 OA
BRANCH  18  19
HETATM   19  C   UNK N   1      36.427  10.291  16.238  0.00  0.00     0.175 C 
BRANCH  19  20
HETATM   20  C   UNK N   1      37.670   9.881  15.483  0.00  0.00     0.022 C 
HETATM   21  C   UNK N   1      38.054   8.478  15.899  0.00  0.00     0.007 C 
ENDBRANCH  19  20
ENDBRANCH  18  19
ENDBRANCH   8  18
TORSDOF 4
ENDMDL
