MODEL 1
REMARK VINA RESULT:      -6.4      0.000      0.000
REMARK  6 active torsions:
REMARK  status: ('A' for Active; 'I' for Inactive)
REMARK    1  A    between atoms: N_3  and  C_5 
REMARK    2  A    between atoms: N_3  and  C_9 
REMARK    3  A    between atoms: N_3  and  C_10 
REMARK    4  A    between atoms: N_4  and  C_6 
REMARK    5  A    between atoms: N_4  and  C_7 
REMARK    6  A    between atoms: C_5  and  C_6 
ROOT
HETATM    1  S   UNK N   1      35.725   9.525  16.795  0.00  0.00    -0.088 SA
HETATM    2  O   UNK N   1      34.548  13.047  14.802  0.00  0.00    -0.286 OA
HETATM    3  C   UNK N   1      34.834  10.821  13.118  0.00  0.00     0.043 A 
HETATM    4  C   UNK N   1      35.074  10.824  14.542  0.00  0.00     0.059 A 
HETATM    5  C   UNK N   1      35.455   9.580  15.134  0.00  0.00     0.028 A 
HETATM    6  C   UNK N   1      35.584   8.409  14.364  0.00  0.00    -0.044 A 
HETATM    7  C   UNK N   1      34.904  12.019  15.350  0.00  0.00     0.197 A 
HETATM    8  C   UNK N   1      34.959   9.633  12.394  0.00  0.00     0.031 A 
HETATM    9  C   UNK N   1      35.110  12.091  16.766  0.00  0.00     0.032 A 
HETATM   10  C   UNK N   1      35.336   8.447  13.002  0.00  0.00     0.010 A 
HETATM   11  C   UNK N   1      35.495  10.986  17.551  0.00  0.00     0.019 A 
HETATM   12  C   UNK N   1      35.964   7.101  14.977  0.00  0.00     0.049 C 
HETATM   13  C   UNK N   1      34.913  13.322  17.424  0.00  0.00     0.017 A 
HETATM   14  C   UNK N   1      35.673  11.101  18.933  0.00  0.00     0.020 A 
HETATM   15  C   UNK N   1      35.093  13.442  18.806  0.00  0.00     0.001 A 
HETATM   16  C   UNK N   1      35.471  12.330  19.560  0.00  0.00     0.001 A 
ENDROOT
BRANCH   3  17
HETATM   17  N   UNK N   1      34.397  11.953  12.382  0.00  0.00    -0.387 N 
HETATM   18  H   UNK N   1      33.521  12.338  12.614  0.00  0.00     0.159 HD
BRANCH  17  19
HETATM   19  C   UNK N   1      35.145  12.578  11.321  0.00  0.00     0.150 C 
BRANCH  19  20
HETATM   20  C   UNK N   1      36.463  13.092  11.895  0.00  0.00     0.292 C 
BRANCH  20  21
HETATM   21  N   UNK N   1      36.780  14.442  11.434  0.00  0.00     0.089 N 
BRANCH  21  22
HETATM   22  C   UNK N   1      36.888  14.438   9.977  0.00  0.00     0.268 C 
HETATM   23  C   UNK N   1      38.313  14.114   9.564  0.00  0.00     0.037 C 
ENDBRANCH  21  22
BRANCH  21  24
HETATM   24  C   UNK N   1      35.628  15.266  11.782  0.00  0.00     0.268 C 
HETATM   25  C   UNK N   1      35.485  16.432  10.819  0.00  0.00     0.037 C 
ENDBRANCH  21  24
ENDBRANCH  20  21
ENDBRANCH  19  20
ENDBRANCH  17  19
ENDBRANCH   3  17
TORSDOF 6
ENDMDL
MODEL 2
REMARK VINA RESULT:      -6.3     20.497     23.909
REMARK  6 active torsions:
REMARK  status: ('A' for Active; 'I' for Inactive)
REMARK    1  A    between atoms: N_3  and  C_5 
REMARK    2  A    between atoms: N_3  and  C_9 
REMARK    3  A    between atoms: N_3  and  C_10 
REMARK    4  A    between atoms: N_4  and  C_6 
REMARK    5  A    between atoms: N_4  and  C_7 
REMARK    6  A    between atoms: C_5  and  C_6 
ROOT
HETATM    1  S   UNK N   1      30.464  20.821  -6.316  0.00  0.00    -0.088 SA
HETATM    2  O   UNK N   1      30.202  23.486  -3.061  0.00  0.00    -0.286 OA
HETATM    3  C   UNK N   1      28.156  23.790  -4.956  0.00  0.00     0.043 A 
HETATM    4  C   UNK N   1      29.238  22.838  -5.045  0.00  0.00     0.059 A 
HETATM    5  C   UNK N   1      29.237  21.965  -6.177  0.00  0.00     0.028 A 
HETATM    6  C   UNK N   1      28.225  22.028  -7.152  0.00  0.00    -0.044 A 
HETATM    7  C   UNK N   1      30.264  22.740  -4.021  0.00  0.00     0.197 A 
HETATM    8  C   UNK N   1      27.164  23.810  -5.939  0.00  0.00     0.031 A 
HETATM    9  C   UNK N   1      31.355  21.810  -4.037  0.00  0.00     0.032 A 
HETATM   10  C   UNK N   1      27.199  22.951  -7.026  0.00  0.00     0.010 A 
HETATM   11  C   UNK N   1      31.552  20.863  -5.060  0.00  0.00     0.019 A 
HETATM   12  C   UNK N   1      28.206  21.108  -8.328  0.00  0.00     0.049 C 
HETATM   13  C   UNK N   1      32.284  21.829  -2.976  0.00  0.00     0.017 A 
HETATM   14  C   UNK N   1      32.626  19.969  -5.027  0.00  0.00     0.020 A 
HETATM   15  C   UNK N   1      33.361  20.938  -2.942  0.00  0.00     0.001 A 
HETATM   16  C   UNK N   1      33.530  20.007  -3.967  0.00  0.00     0.001 A 
ENDROOT
BRANCH   3  17
HETATM   17  N   UNK N   1      27.975  24.691  -3.874  0.00  0.00    -0.387 N 
HETATM   18  H   UNK N   1      28.022  24.325  -2.962  0.00  0.00     0.159 HD
BRANCH  17  19
HETATM   19  C   UNK N   1      27.728  26.103  -4.018  0.00  0.00     0.150 C 
BRANCH  19  20
HETATM   20  C   UNK N   1      26.431  26.445  -3.290  0.00  0.00     0.292 C 
BRANCH  20  21
HETATM   21  N   UNK N   1      25.891  27.741  -3.698  0.00  0.00     0.089 N 
BRANCH  21  22
HETATM   22  C   UNK N   1      26.784  28.800  -3.236  0.00  0.00     0.268 C 
HETATM   23  C   UNK N   1      26.693  29.997  -4.165  0.00  0.00     0.037 C 
ENDBRANCH  21  22
BRANCH  21  24
HETATM   24  C   UNK N   1      25.924  27.748  -5.155  0.00  0.00     0.268 C 
HETATM   25  C   UNK N   1      24.681  27.088  -5.728  0.00  0.00     0.037 C 
ENDBRANCH  21  24
ENDBRANCH  20  21
ENDBRANCH  19  20
ENDBRANCH  17  19
ENDBRANCH   3  17
TORSDOF 6
ENDMDL
MODEL 3
REMARK VINA RESULT:      -6.3     15.031     18.198
REMARK  6 active torsions:
REMARK  status: ('A' for Active; 'I' for Inactive)
REMARK    1  A    between atoms: N_3  and  C_5 
REMARK    2  A    between atoms: N_3  and  C_9 
REMARK    3  A    between atoms: N_3  and  C_10 
REMARK    4  A    between atoms: N_4  and  C_6 
REMARK    5  A    between atoms: N_4  and  C_7 
REMARK    6  A    between atoms: C_5  and  C_6 
ROOT
HETATM    1  S   UNK N   1      23.705  20.310   2.984  0.00  0.00    -0.088 SA
HETATM    2  O   UNK N   1      23.978  16.820   5.331  0.00  0.00    -0.286 OA
HETATM    3  C   UNK N   1      21.395  17.357   4.376  0.00  0.00     0.043 A 
HETATM    4  C   UNK N   1      22.559  18.177   4.134  0.00  0.00     0.059 A 
HETATM    5  C   UNK N   1      22.374  19.334   3.315  0.00  0.00     0.028 A 
HETATM    6  C   UNK N   1      21.118  19.652   2.767  0.00  0.00    -0.044 A 
HETATM    7  C   UNK N   1      23.867  17.833   4.664  0.00  0.00     0.197 A 
HETATM    8  C   UNK N   1      20.170  17.702   3.801  0.00  0.00     0.031 A 
HETATM    9  C   UNK N   1      25.066  18.590   4.451  0.00  0.00     0.032 A 
HETATM   10  C   UNK N   1      20.028  18.835   3.015  0.00  0.00     0.010 A 
HETATM   11  C   UNK N   1      25.113  19.768   3.682  0.00  0.00     0.019 A 
HETATM   12  C   UNK N   1      20.920  20.848   1.895  0.00  0.00     0.049 C 
HETATM   13  C   UNK N   1      26.270  18.140   5.032  0.00  0.00     0.017 A 
HETATM   14  C   UNK N   1      26.308  20.468   3.493  0.00  0.00     0.020 A 
HETATM   15  C   UNK N   1      27.467  18.839   4.848  0.00  0.00     0.001 A 
HETATM   16  C   UNK N   1      27.486  20.002   4.077  0.00  0.00     0.001 A 
ENDROOT
BRANCH   3  17
HETATM   17  N   UNK N   1      21.413  16.148   5.119  0.00  0.00    -0.387 N 
HETATM   18  H   UNK N   1      22.101  15.482   4.891  0.00  0.00     0.159 HD
BRANCH  17  19
HETATM   19  C   UNK N   1      20.496  15.828   6.183  0.00  0.00     0.150 C 
BRANCH  19  20
HETATM   20  C   UNK N   1      21.304  15.470   7.428  0.00  0.00     0.292 C 
BRANCH  20  21
HETATM   21  N   UNK N   1      20.654  15.916   8.658  0.00  0.00     0.089 N 
BRANCH  21  22
HETATM   22  C   UNK N   1      19.457  16.682   8.319  0.00  0.00     0.268 C 
HETATM   23  C   UNK N   1      19.432  17.980   9.104  0.00  0.00     0.037 C 
ENDBRANCH  21  22
BRANCH  21  24
HETATM   24  C   UNK N   1      20.217  14.705   9.343  0.00  0.00     0.268 C 
HETATM   25  C   UNK N   1      21.408  13.880   9.799  0.00  0.00     0.037 C 
ENDBRANCH  21  24
ENDBRANCH  20  21
ENDBRANCH  19  20
ENDBRANCH  17  19
ENDBRANCH   3  17
TORSDOF 6
ENDMDL
MODEL 4
REMARK VINA RESULT:      -6.3      3.313      7.821
REMARK  6 active torsions:
REMARK  status: ('A' for Active; 'I' for Inactive)
REMARK    1  A    between atoms: N_3  and  C_5 
REMARK    2  A    between atoms: N_3  and  C_9 
REMARK    3  A    between atoms: N_3  and  C_10 
REMARK    4  A    between atoms: N_4  and  C_6 
REMARK    5  A    between atoms: N_4  and  C_7 
REMARK    6  A    between atoms: C_5  and  C_6 
ROOT
HETATM    1  S   UNK N   1      35.596  14.071   7.485  0.00  0.00    -0.088 SA
HETATM    2  O   UNK N   1      35.495  16.209  11.116  0.00  0.00    -0.286 OA
HETATM    3  C   UNK N   1      36.718  13.692  11.305  0.00  0.00     0.043 A 
HETATM    4  C   UNK N   1      36.141  14.248  10.105  0.00  0.00     0.059 A 
HETATM    5  C   UNK N   1      36.234  13.458   8.917  0.00  0.00     0.028 A 
HETATM    6  C   UNK N   1      36.866  12.200   8.921  0.00  0.00    -0.044 A 
HETATM    7  C   UNK N   1      35.523  15.563  10.085  0.00  0.00     0.197 A 
HETATM    8  C   UNK N   1      37.348  12.446  11.261  0.00  0.00     0.031 A 
HETATM    9  C   UNK N   1      34.944  16.182   8.929  0.00  0.00     0.032 A 
HETATM   10  C   UNK N   1      37.416  11.706  10.092  0.00  0.00     0.010 A 
HETATM   11  C   UNK N   1      34.920  15.580   7.656  0.00  0.00     0.019 A 
HETATM   12  C   UNK N   1      36.984  11.376   7.681  0.00  0.00     0.049 C 
HETATM   13  C   UNK N   1      34.372  17.465   9.055  0.00  0.00     0.017 A 
HETATM   14  C   UNK N   1      34.354  16.228   6.554  0.00  0.00     0.020 A 
HETATM   15  C   UNK N   1      33.802  18.114   7.955  0.00  0.00     0.001 A 
HETATM   16  C   UNK N   1      33.796  17.496   6.705  0.00  0.00     0.001 A 
ENDROOT
BRANCH   3  17
HETATM   17  N   UNK N   1      36.761  14.365  12.554  0.00  0.00    -0.387 N 
HETATM   18  H   UNK N   1      37.457  15.049  12.681  0.00  0.00     0.159 HD
BRANCH  17  19
HETATM   19  C   UNK N   1      35.857  14.117  13.648  0.00  0.00     0.150 C 
BRANCH  19  20
HETATM   20  C   UNK N   1      36.616  13.374  14.745  0.00  0.00     0.292 C 
BRANCH  20  21
HETATM   21  N   UNK N   1      35.802  12.340  15.380  0.00  0.00     0.089 N 
BRANCH  21  22
HETATM   22  C   UNK N   1      34.694  12.971  16.093  0.00  0.00     0.268 C 
HETATM   23  C   UNK N   1      35.093  13.244  17.533  0.00  0.00     0.037 C 
ENDBRANCH  21  22
BRANCH  21  24
HETATM   24  C   UNK N   1      35.229  11.556  14.292  0.00  0.00     0.268 C 
HETATM   25  C   UNK N   1      33.860  11.020  14.674  0.00  0.00     0.037 C 
ENDBRANCH  21  24
ENDBRANCH  20  21
ENDBRANCH  19  20
ENDBRANCH  17  19
ENDBRANCH   3  17
TORSDOF 6
ENDMDL
MODEL 5
REMARK VINA RESULT:      -6.2      1.999      2.814
REMARK  6 active torsions:
REMARK  status: ('A' for Active; 'I' for Inactive)
REMARK    1  A    between atoms: N_3  and  C_5 
REMARK    2  A    between atoms: N_3  and  C_9 
REMARK    3  A    between atoms: N_3  and  C_10 
REMARK    4  A    between atoms: N_4  and  C_6 
REMARK    5  A    between atoms: N_4  and  C_7 
REMARK    6  A    between atoms: C_5  and  C_6 
ROOT
HETATM    1  S   UNK N   1      36.533  10.307  15.190  0.00  0.00    -0.088 SA
HETATM    2  O   UNK N   1      36.262  14.413  14.280  0.00  0.00    -0.286 OA
HETATM    3  C   UNK N   1      37.178  12.828  12.154  0.00  0.00     0.043 A 
HETATM    4  C   UNK N   1      36.834  12.339  13.468  0.00  0.00     0.059 A 
HETATM    5  C   UNK N   1      36.943  10.930  13.681  0.00  0.00     0.028 A 
HETATM    6  C   UNK N   1      37.359  10.062  12.654  0.00  0.00    -0.044 A 
HETATM    7  C   UNK N   1      36.366  13.224  14.521  0.00  0.00     0.197 A 
HETATM    8  C   UNK N   1      37.572  11.931  11.159  0.00  0.00     0.031 A 
HETATM    9  C   UNK N   1      35.994  12.807  15.841  0.00  0.00     0.032 A 
HETATM   10  C   UNK N   1      37.671  10.570  11.404  0.00  0.00     0.010 A 
HETATM   11  C   UNK N   1      36.030  11.466  16.270  0.00  0.00     0.019 A 
HETATM   12  C   UNK N   1      37.457   8.587  12.862  0.00  0.00     0.049 C 
HETATM   13  C   UNK N   1      35.560  13.777  16.768  0.00  0.00     0.017 A 
HETATM   14  C   UNK N   1      35.647  11.105  17.565  0.00  0.00     0.020 A 
HETATM   15  C   UNK N   1      35.180  13.420  18.065  0.00  0.00     0.001 A 
HETATM   16  C   UNK N   1      35.222  12.083  18.462  0.00  0.00     0.001 A 
ENDROOT
BRANCH   3  17
HETATM   17  N   UNK N   1      37.074  14.187  11.757  0.00  0.00    -0.387 N 
HETATM   18  H   UNK N   1      37.190  14.875  12.451  0.00  0.00     0.159 HD
BRANCH  17  19
HETATM   19  C   UNK N   1      36.811  14.629  10.411  0.00  0.00     0.150 C 
BRANCH  19  20
HETATM   20  C   UNK N   1      35.666  15.637  10.447  0.00  0.00     0.292 C 
BRANCH  20  21
HETATM   21  N   UNK N   1      35.143  15.930   9.114  0.00  0.00     0.089 N 
BRANCH  21  22
HETATM   22  C   UNK N   1      34.277  14.834   8.686  0.00  0.00     0.268 C 
HETATM   23  C   UNK N   1      32.953  14.900   9.426  0.00  0.00     0.037 C 
ENDBRANCH  21  22
BRANCH  21  24
HETATM   24  C   UNK N   1      34.304  17.114   9.263  0.00  0.00     0.268 C 
HETATM   25  C   UNK N   1      34.407  18.008   8.039  0.00  0.00     0.037 C 
ENDBRANCH  21  24
ENDBRANCH  20  21
ENDBRANCH  19  20
ENDBRANCH  17  19
ENDBRANCH   3  17
TORSDOF 6
ENDMDL
MODEL 6
REMARK VINA RESULT:      -6.1      3.738      8.273
REMARK  6 active torsions:
REMARK  status: ('A' for Active; 'I' for Inactive)
REMARK    1  A    between atoms: N_3  and  C_5 
REMARK    2  A    between atoms: N_3  and  C_9 
REMARK    3  A    between atoms: N_3  and  C_10 
REMARK    4  A    between atoms: N_4  and  C_6 
REMARK    5  A    between atoms: N_4  and  C_7 
REMARK    6  A    between atoms: C_5  and  C_6 
ROOT
HETATM    1  S   UNK N   1      35.067  13.026  15.689  0.00  0.00    -0.088 SA
HETATM    2  O   UNK N   1      35.080   8.865  16.364  0.00  0.00    -0.286 OA
HETATM    3  C   UNK N   1      35.271  10.404  18.702  0.00  0.00     0.043 A 
HETATM    4  C   UNK N   1      35.193  10.934  17.361  0.00  0.00     0.059 A 
HETATM    5  C   UNK N   1      35.179  12.357  17.230  0.00  0.00     0.028 A 
HETATM    6  C   UNK N   1      35.234  13.199  18.356  0.00  0.00    -0.044 A 
HETATM    7  C   UNK N   1      35.096  10.072  16.196  0.00  0.00     0.197 A 
HETATM    8  C   UNK N   1      35.309  11.275  19.793  0.00  0.00     0.031 A 
HETATM    9  C   UNK N   1      35.000  10.528  14.841  0.00  0.00     0.032 A 
HETATM   10  C   UNK N   1      35.299  12.650  19.627  0.00  0.00     0.010 A 
HETATM   11  C   UNK N   1      34.976  11.889  14.480  0.00  0.00     0.019 A 
HETATM   12  C   UNK N   1      35.202  14.687  18.230  0.00  0.00     0.049 C 
HETATM   13  C   UNK N   1      34.916   9.576  13.804  0.00  0.00     0.017 A 
HETATM   14  C   UNK N   1      34.870  12.287  13.144  0.00  0.00     0.020 A 
HETATM   15  C   UNK N   1      34.814   9.971  12.466  0.00  0.00     0.001 A 
HETATM   16  C   UNK N   1      34.789  11.326  12.137  0.00  0.00     0.001 A 
ENDROOT
BRANCH   3  17
HETATM   17  N   UNK N   1      35.239   9.020  19.014  0.00  0.00    -0.387 N 
HETATM   18  H   UNK N   1      36.092   8.528  18.999  0.00  0.00     0.159 HD
BRANCH  17  19
HETATM   19  C   UNK N   1      34.047   8.284  19.352  0.00  0.00     0.150 C 
BRANCH  19  20
HETATM   20  C   UNK N   1      33.945   8.199  20.873  0.00  0.00     0.292 C 
BRANCH  20  21
HETATM   21  N   UNK N   1      32.565   8.046  21.329  0.00  0.00     0.089 N 
BRANCH  21  22
HETATM   22  C   UNK N   1      32.353   8.883  22.507  0.00  0.00     0.268 C 
HETATM   23  C   UNK N   1      32.605  10.340  22.161  0.00  0.00     0.037 C 
ENDBRANCH  21  22
BRANCH  21  24
HETATM   24  C   UNK N   1      31.729   8.580  20.260  0.00  0.00     0.268 C 
HETATM   25  C   UNK N   1      30.466   7.750  20.095  0.00  0.00     0.037 C 
ENDBRANCH  21  24
ENDBRANCH  20  21
ENDBRANCH  19  20
ENDBRANCH  17  19
ENDBRANCH   3  17
TORSDOF 6
ENDMDL
MODEL 7
REMARK VINA RESULT:      -6.0     14.644     16.137
REMARK  6 active torsions:
REMARK  status: ('A' for Active; 'I' for Inactive)
REMARK    1  A    between atoms: N_3  and  C_5 
REMARK    2  A    between atoms: N_3  and  C_9 
REMARK    3  A    between atoms: N_3  and  C_10 
REMARK    4  A    between atoms: N_4  and  C_6 
REMARK    5  A    between atoms: N_4  and  C_7 
REMARK    6  A    between atoms: C_5  and  C_6 
ROOT
HETATM    1  S   UNK N   1      24.484  13.380   8.548  0.00  0.00    -0.088 SA
HETATM    2  O   UNK N   1      20.360  14.049   7.992  0.00  0.00    -0.286 OA
HETATM    3  C   UNK N   1      21.964  14.989   5.891  0.00  0.00     0.043 A 
HETATM    4  C   UNK N   1      22.453  14.345   7.087  0.00  0.00     0.059 A 
HETATM    5  C   UNK N   1      23.865  14.147   7.182  0.00  0.00     0.028 A 
HETATM    6  C   UNK N   1      24.734  14.556   6.154  0.00  0.00    -0.044 A 
HETATM    7  C   UNK N   1      21.558  13.884   8.135  0.00  0.00     0.197 A 
HETATM    8  C   UNK N   1      22.860  15.366   4.889  0.00  0.00     0.031 A 
HETATM    9  C   UNK N   1      21.971  13.225   9.339  0.00  0.00     0.032 A 
HETATM   10  C   UNK N   1      24.224  15.162   5.018  0.00  0.00     0.010 A 
HETATM   11  C   UNK N   1      23.315  12.934   9.642  0.00  0.00     0.019 A 
HETATM   12  C   UNK N   1      26.209  14.336   6.237  0.00  0.00     0.049 C 
HETATM   13  C   UNK N   1      20.991  12.835  10.275  0.00  0.00     0.017 A 
HETATM   14  C   UNK N   1      23.670  12.279  10.825  0.00  0.00     0.020 A 
HETATM   15  C   UNK N   1      21.343  12.183  11.461  0.00  0.00     0.001 A 
HETATM   16  C   UNK N   1      22.682  11.903  11.734  0.00  0.00     0.001 A 
ENDROOT
BRANCH   3  17
HETATM   17  N   UNK N   1      20.591  15.213   5.612  0.00  0.00    -0.387 N 
HETATM   18  H   UNK N   1      19.985  14.437   5.644  0.00  0.00     0.159 HD
BRANCH  17  19
HETATM   19  C   UNK N   1      20.021  16.495   5.284  0.00  0.00     0.150 C 
BRANCH  19  20
HETATM   20  C   UNK N   1      19.515  16.447   3.844  0.00  0.00     0.292 C 
BRANCH  20  21
HETATM   21  N   UNK N   1      20.299  17.299   2.952  0.00  0.00     0.089 N 
BRANCH  21  22
HETATM   22  C   UNK N   1      20.334  16.698   1.622  0.00  0.00     0.268 C 
HETATM   23  C   UNK N   1      21.200  15.451   1.639  0.00  0.00     0.037 C 
ENDBRANCH  21  22
BRANCH  21  24
HETATM   24  C   UNK N   1      19.561  18.552   2.844  0.00  0.00     0.268 C 
HETATM   25  C   UNK N   1      20.444  19.733   3.211  0.00  0.00     0.037 C 
ENDBRANCH  21  24
ENDBRANCH  20  21
ENDBRANCH  19  20
ENDBRANCH  17  19
ENDBRANCH   3  17
TORSDOF 6
ENDMDL
MODEL 8
REMARK VINA RESULT:      -5.9      9.103     12.529
REMARK  6 active torsions:
REMARK  status: ('A' for Active; 'I' for Inactive)
REMARK    1  A    between atoms: N_3  and  C_5 
REMARK    2  A    between atoms: N_3  and  C_9 
REMARK    3  A    between atoms: N_3  and  C_10 
REMARK    4  A    between atoms: N_4  and  C_6 
REMARK    5  A    between atoms: N_4  and  C_7 
REMARK    6  A    between atoms: C_5  and  C_6 
ROOT
HETATM    1  S   UNK N   1      31.742  16.239   8.513  0.00  0.00    -0.088 SA
HETATM    2  O   UNK N   1      31.249  17.285   4.460  0.00  0.00    -0.286 OA
HETATM    3  C   UNK N   1      29.067  17.960   6.089  0.00  0.00     0.043 A 
HETATM    4  C   UNK N   1      30.267  17.296   6.539  0.00  0.00     0.059 A 
HETATM    5  C   UNK N   1      30.353  16.993   7.934  0.00  0.00     0.028 A 
HETATM    6  C   UNK N   1      29.317  17.333   8.823  0.00  0.00    -0.044 A 
HETATM    7  C   UNK N   1      31.358  16.978   5.633  0.00  0.00     0.197 A 
HETATM    8  C   UNK N   1      28.069  18.293   7.008  0.00  0.00     0.031 A 
HETATM    9  C   UNK N   1      32.581  16.335   6.013  0.00  0.00     0.032 A 
HETATM   10  C   UNK N   1      28.185  17.978   8.353  0.00  0.00     0.010 A 
HETATM   11  C   UNK N   1      32.874  15.943   7.334  0.00  0.00     0.019 A 
HETATM   12  C   UNK N   1      29.406  17.037  10.285  0.00  0.00     0.049 C 
HETATM   13  C   UNK N   1      33.555  16.082   5.025  0.00  0.00     0.017 A 
HETATM   14  C   UNK N   1      34.087  15.328   7.659  0.00  0.00     0.020 A 
HETATM   15  C   UNK N   1      34.768  15.464   5.347  0.00  0.00     0.001 A 
HETATM   16  C   UNK N   1      35.034  15.090   6.664  0.00  0.00     0.001 A 
ENDROOT
BRANCH   3  17
HETATM   17  N   UNK N   1      28.843  18.381   4.752  0.00  0.00    -0.387 N 
HETATM   18  H   UNK N   1      29.433  19.079   4.388  0.00  0.00     0.159 HD
BRANCH  17  19
HETATM   19  C   UNK N   1      27.814  17.857   3.891  0.00  0.00     0.150 C 
BRANCH  19  20
HETATM   20  C   UNK N   1      26.543  18.679   4.099  0.00  0.00     0.292 C 
BRANCH  20  21
HETATM   21  N   UNK N   1      26.799  20.117   4.049  0.00  0.00     0.089 N 
BRANCH  21  22
HETATM   22  C   UNK N   1      26.143  20.680   2.872  0.00  0.00     0.268 C 
HETATM   23  C   UNK N   1      24.649  20.418   2.935  0.00  0.00     0.037 C 
ENDBRANCH  21  22
BRANCH  21  24
HETATM   24  C   UNK N   1      26.145  20.681   5.224  0.00  0.00     0.268 C 
HETATM   25  C   UNK N   1      27.118  21.518   6.036  0.00  0.00     0.037 C 
ENDBRANCH  21  24
ENDBRANCH  20  21
ENDBRANCH  19  20
ENDBRANCH  17  19
ENDBRANCH   3  17
TORSDOF 6
ENDMDL
MODEL 9
REMARK VINA RESULT:      -5.9     20.799     24.274
REMARK  6 active torsions:
REMARK  status: ('A' for Active; 'I' for Inactive)
REMARK    1  A    between atoms: N_3  and  C_5 
REMARK    2  A    between atoms: N_3  and  C_9 
REMARK    3  A    between atoms: N_3  and  C_10 
REMARK    4  A    between atoms: N_4  and  C_6 
REMARK    5  A    between atoms: N_4  and  C_7 
REMARK    6  A    between atoms: C_5  and  C_6 
ROOT
HETATM    1  S   UNK N   1      26.151  24.505  -7.004  0.00  0.00    -0.088 SA
HETATM    2  O   UNK N   1      28.677  24.664  -3.634  0.00  0.00    -0.286 OA
HETATM    3  C   UNK N   1      29.226  22.534  -5.376  0.00  0.00     0.043 A 
HETATM    4  C   UNK N   1      28.174  23.506  -5.556  0.00  0.00     0.059 A 
HETATM    5  C   UNK N   1      27.376  23.382  -6.736  0.00  0.00     0.028 A 
HETATM    6  C   UNK N   1      27.612  22.364  -7.678  0.00  0.00    -0.044 A 
HETATM    7  C   UNK N   1      27.950  24.584  -4.608  0.00  0.00     0.197 A 
HETATM    8  C   UNK N   1      29.435  21.548  -6.342  0.00  0.00     0.031 A 
HETATM    9  C   UNK N   1      26.937  25.591  -4.731  0.00  0.00     0.032 A 
HETATM   10  C   UNK N   1      28.637  21.456  -7.472  0.00  0.00     0.010 A 
HETATM   11  C   UNK N   1      26.036  25.656  -5.811  0.00  0.00     0.019 A 
HETATM   12  C   UNK N   1      26.796  22.238  -8.922  0.00  0.00     0.049 C 
HETATM   13  C   UNK N   1      26.830  26.578  -3.731  0.00  0.00     0.017 A 
HETATM   14  C   UNK N   1      25.071  26.664  -5.894  0.00  0.00     0.020 A 
HETATM   15  C   UNK N   1      25.864  27.586  -3.809  0.00  0.00     0.001 A 
HETATM   16  C   UNK N   1      24.986  27.629  -4.892  0.00  0.00     0.001 A 
ENDROOT
BRANCH   3  17
HETATM   17  N   UNK N   1      30.142  22.544  -4.292  0.00  0.00    -0.387 N 
HETATM   18  H   UNK N   1      30.527  23.410  -4.027  0.00  0.00     0.159 HD
BRANCH  17  19
HETATM   19  C   UNK N   1      30.548  21.376  -3.553  0.00  0.00     0.150 C 
BRANCH  19  20
HETATM   20  C   UNK N   1      32.074  21.336  -3.509  0.00  0.00     0.292 C 
BRANCH  20  21
HETATM   21  N   UNK N   1      32.667  21.301  -4.844  0.00  0.00     0.089 N 
BRANCH  21  22
HETATM   22  C   UNK N   1      33.881  22.113  -4.852  0.00  0.00     0.268 C 
HETATM   23  C   UNK N   1      33.541  23.551  -5.201  0.00  0.00     0.037 C 
ENDBRANCH  21  22
BRANCH  21  24
HETATM   24  C   UNK N   1      33.067  19.917  -5.069  0.00  0.00     0.268 C 
HETATM   25  C   UNK N   1      34.054  19.460  -4.009  0.00  0.00     0.037 C 
ENDBRANCH  21  24
ENDBRANCH  20  21
ENDBRANCH  19  20
ENDBRANCH  17  19
ENDBRANCH   3  17
TORSDOF 6
ENDMDL
