MODEL 1
REMARK VINA RESULT:      -7.3      0.000      0.000
REMARK  8 active torsions:
REMARK  status: ('A' for Active; 'I' for Inactive)
REMARK    1  A    between atoms: N_5  and  C_6 
REMARK    2  A    between atoms: C_6  and  C_7 
REMARK    3  A    between atoms: C_7  and  C_8 
REMARK    4  A    between atoms: C_8  and  O_9 
REMARK    5  A    between atoms: O_9  and  C_10 
REMARK    6  A    between atoms: C_13  and  O_22 
REMARK    7  A    between atoms: C_21  and  O_24 
REMARK    8  A    between atoms: O_24  and  C_25 
ROOT
HETATM    1  C   UNK N   1      26.919  16.168   5.188  0.00  0.00     0.104 A 
HETATM    2  C   UNK N   1      29.163  16.915   6.691  0.00  0.00     0.045 A 
HETATM    3  C   UNK N   1      29.327  16.404   5.401  0.00  0.00     0.057 A 
HETATM    4  C   UNK N   1      28.203  16.047   4.633  0.00  0.00     0.102 A 
HETATM    5  C   UNK N   1      26.755  16.689   6.478  0.00  0.00     0.070 A 
HETATM    6  C   UNK N   1      27.866  17.083   7.220  0.00  0.00     0.050 A 
HETATM    7  N   UNK N   1      27.697  17.619   8.453  0.00  0.00    -0.351 N 
ATOM      8  HN  UNK N   1      26.756  17.729   8.831  1.00  0.00     0.166 HD
HETATM    9  C   UNK N   1      28.766  18.010   9.190  0.00  0.00     0.182 A 
HETATM   10  N   UNK N   1      30.024  17.838   8.708  0.00  0.00    -0.332 N 
ATOM     11  HN  UNK N   1      30.816  18.137   9.276  1.00  0.00     0.168 HD
HETATM   12  C   UNK N   1      30.256  17.276   7.489  0.00  0.00     0.161 A 
ENDROOT
BRANCH  12  13
HETATM   13  O   UNK N   1      31.532  17.092   7.041  0.00  0.00    -0.290 OA
BRANCH  13  14
HETATM   14  C   UNK N   1      32.613  16.949   7.857  0.00  0.00     0.117 A 
HETATM   15  C   UNK N   1      33.590  17.974   7.865  0.00  0.00     0.043 A 
HETATM   16  C   UNK N   1      34.668  17.936   8.768  0.00  0.00     0.033 A 
HETATM   17  C   UNK N   1      34.738  16.861   9.650  0.00  0.00     0.045 A 
HETATM   18  C   UNK N   1      33.830  15.843   9.621  0.00  0.00     0.034 A 
HETATM   19  N   UNK N   1      35.641  16.672  10.624  0.00  0.00    -0.359 N 
HETATM   20  C   UNK N   1      32.770  15.831   8.726  0.00  0.00     0.162 A 
HETATM   21  C   UNK N   1      34.161  14.950  10.613  0.00  0.00     0.041 A 
HETATM   22  F   UNK N   1      31.910  14.781   8.723  0.00  0.00    -0.202 F 
HETATM   23  C   UNK N   1      35.283  15.507  11.215  0.00  0.00     0.006 A 
HETATM   24  C   UNK N   1      35.988  14.931  12.390  0.00  0.00     0.068 C 
HETATM   25  H   UNK N   1      36.399  17.254  10.859  0.00  0.00     0.166 HD
ENDBRANCH  13  14
ENDBRANCH  12  13
BRANCH   4  26
HETATM   26  O   UNK N   1      28.333  15.565   3.374  0.00  0.00    -0.353 OA
HETATM   27  C   UNK N   1      29.278  14.633   3.012  0.00  0.00     0.210 C 
ENDBRANCH   4  26
BRANCH   1  28
HETATM   28  O   UNK N   1      25.849  15.769   4.474  0.00  0.00    -0.348 OA
BRANCH  28  29
HETATM   29  C   UNK N   1      24.839  16.653   4.165  0.00  0.00     0.177 C 
BRANCH  29  30
HETATM   30  C   UNK N   1      25.401  17.860   3.409  0.00  0.00     0.057 C 
BRANCH  30  31
HETATM   31  C   UNK N   1      24.817  19.185   3.915  0.00  0.00     0.274 C 
BRANCH  31  32
HETATM   32  N   UNK N   1      25.858  20.154   4.249  0.00  0.00     0.088 N 
HETATM   33  C   UNK N   1      27.122  19.603   3.780  0.00  0.00     0.272 C 
HETATM   34  C   UNK N   1      28.198  19.999   4.775  0.00  0.00     0.032 C 
HETATM   35  C   UNK N   1      27.461  20.593   5.951  0.00  0.00     0.032 C 
HETATM   36  C   UNK N   1      26.017  20.243   5.695  0.00  0.00     0.272 C 
ENDBRANCH  31  32
ENDBRANCH  30  31
ENDBRANCH  29  30
ENDBRANCH  28  29
ENDBRANCH   1  28
TORSDOF 8
ENDMDL
MODEL 2
REMARK VINA RESULT:      -7.3      2.186      9.552
REMARK  8 active torsions:
REMARK  status: ('A' for Active; 'I' for Inactive)
REMARK    1  A    between atoms: N_5  and  C_6 
REMARK    2  A    between atoms: C_6  and  C_7 
REMARK    3  A    between atoms: C_7  and  C_8 
REMARK    4  A    between atoms: C_8  and  O_9 
REMARK    5  A    between atoms: O_9  and  C_10 
REMARK    6  A    between atoms: C_13  and  O_22 
REMARK    7  A    between atoms: C_21  and  O_24 
REMARK    8  A    between atoms: O_24  and  C_25 
ROOT
HETATM    1  C   UNK N   1      32.635  17.380   7.463  0.00  0.00     0.104 A 
HETATM    2  C   UNK N   1      29.886  17.440   6.925  0.00  0.00     0.045 A 
HETATM    3  C   UNK N   1      30.794  17.213   5.888  0.00  0.00     0.057 A 
HETATM    4  C   UNK N   1      32.175  17.160   6.155  0.00  0.00     0.102 A 
HETATM    5  C   UNK N   1      31.724  17.599   8.503  0.00  0.00     0.070 A 
HETATM    6  C   UNK N   1      30.355  17.607   8.246  0.00  0.00     0.050 A 
HETATM    7  N   UNK N   1      29.478  17.784   9.263  0.00  0.00    -0.351 N 
ATOM      8  HN  UNK N   1      29.826  17.913  10.213  1.00  0.00     0.166 HD
HETATM    9  C   UNK N   1      28.142  17.793   9.031  0.00  0.00     0.182 A 
HETATM   10  N   UNK N   1      27.671  17.655   7.765  0.00  0.00    -0.332 N 
ATOM     11  HN  UNK N   1      26.663  17.665   7.609  1.00  0.00     0.168 HD
HETATM   12  C   UNK N   1      28.505  17.505   6.700  0.00  0.00     0.161 A 
ENDROOT
BRANCH  12  13
HETATM   13  O   UNK N   1      28.004  17.394   5.435  0.00  0.00    -0.290 OA
BRANCH  13  14
HETATM   14  C   UNK N   1      27.126  18.277   4.883  0.00  0.00     0.117 A 
HETATM   15  C   UNK N   1      27.642  19.429   4.244  0.00  0.00     0.043 A 
HETATM   16  C   UNK N   1      26.792  20.316   3.558  0.00  0.00     0.033 A 
HETATM   17  C   UNK N   1      25.433  20.020   3.529  0.00  0.00     0.045 A 
HETATM   18  C   UNK N   1      24.915  18.939   4.180  0.00  0.00     0.034 A 
HETATM   19  N   UNK N   1      24.472  20.696   2.881  0.00  0.00    -0.359 N 
HETATM   20  C   UNK N   1      25.717  18.057   4.890  0.00  0.00     0.162 A 
HETATM   21  C   UNK N   1      23.559  18.914   3.952  0.00  0.00     0.041 A 
HETATM   22  F   UNK N   1      25.148  17.011   5.541  0.00  0.00    -0.202 F 
HETATM   23  C   UNK N   1      23.329  20.014   3.135  0.00  0.00     0.006 A 
HETATM   24  C   UNK N   1      22.007  20.387   2.568  0.00  0.00     0.068 C 
HETATM   25  H   UNK N   1      24.574  21.510   2.337  0.00  0.00     0.166 HD
ENDBRANCH  13  14
ENDBRANCH  12  13
BRANCH   4  26
HETATM   26  O   UNK N   1      33.076  16.924   5.172  0.00  0.00    -0.353 OA
HETATM   27  C   UNK N   1      32.734  16.795   3.845  0.00  0.00     0.210 C 
ENDBRANCH   4  26
BRANCH   1  28
HETATM   28  O   UNK N   1      33.960  17.390   7.706  0.00  0.00    -0.348 OA
BRANCH  28  29
HETATM   29  C   UNK N   1      34.445  17.202   8.982  0.00  0.00     0.177 C 
BRANCH  29  30
HETATM   30  C   UNK N   1      34.712  15.716   9.236  0.00  0.00     0.057 C 
BRANCH  30  31
HETATM   31  C   UNK N   1      35.732  15.495  10.361  0.00  0.00     0.274 C 
BRANCH  31  32
HETATM   32  N   UNK N   1      35.136  14.841  11.523  0.00  0.00     0.088 N 
HETATM   33  C   UNK N   1      36.061  15.018  12.634  0.00  0.00     0.272 C 
HETATM   34  C   UNK N   1      36.014  13.758  13.482  0.00  0.00     0.032 C 
HETATM   35  C   UNK N   1      35.207  12.764  12.682  0.00  0.00     0.032 C 
HETATM   36  C   UNK N   1      35.087  13.398  11.319  0.00  0.00     0.272 C 
ENDBRANCH  31  32
ENDBRANCH  30  31
ENDBRANCH  29  30
ENDBRANCH  28  29
ENDBRANCH   1  28
TORSDOF 8
ENDMDL
MODEL 3
REMARK VINA RESULT:      -7.0      3.071      4.468
REMARK  8 active torsions:
REMARK  status: ('A' for Active; 'I' for Inactive)
REMARK    1  A    between atoms: N_5  and  C_6 
REMARK    2  A    between atoms: C_6  and  C_7 
REMARK    3  A    between atoms: C_7  and  C_8 
REMARK    4  A    between atoms: C_8  and  O_9 
REMARK    5  A    between atoms: O_9  and  C_10 
REMARK    6  A    between atoms: C_13  and  O_22 
REMARK    7  A    between atoms: C_21  and  O_24 
REMARK    8  A    between atoms: O_24  and  C_25 
ROOT
HETATM    1  C   UNK N   1      26.829  14.929   5.726  0.00  0.00     0.104 A 
HETATM    2  C   UNK N   1      29.008  16.459   6.599  0.00  0.00     0.045 A 
HETATM    3  C   UNK N   1      29.199  15.453   5.647  0.00  0.00     0.057 A 
HETATM    4  C   UNK N   1      28.105  14.696   5.189  0.00  0.00     0.102 A 
HETATM    5  C   UNK N   1      26.637  15.942   6.673  0.00  0.00     0.070 A 
HETATM    6  C   UNK N   1      27.712  16.722   7.093  0.00  0.00     0.050 A 
HETATM    7  N   UNK N   1      27.513  17.724   7.983  0.00  0.00    -0.351 N 
ATOM      8  HN  UNK N   1      26.574  17.900   8.341  1.00  0.00     0.166 HD
HETATM    9  C   UNK N   1      28.548  18.493   8.402  0.00  0.00     0.182 A 
HETATM   10  N   UNK N   1      29.805  18.244   7.955  0.00  0.00    -0.332 N 
ATOM     11  HN  UNK N   1      30.572  18.831   8.281  1.00  0.00     0.168 HD
HETATM   12  C   UNK N   1      30.071  17.231   7.085  0.00  0.00     0.161 A 
ENDROOT
BRANCH  12  13
HETATM   13  O   UNK N   1      31.349  16.987   6.672  0.00  0.00    -0.290 OA
BRANCH  13  14
HETATM   14  C   UNK N   1      32.424  16.943   7.506  0.00  0.00     0.117 A 
HETATM   15  C   UNK N   1      33.326  18.034   7.499  0.00  0.00     0.043 A 
HETATM   16  C   UNK N   1      34.390  18.097   8.418  0.00  0.00     0.033 A 
HETATM   17  C   UNK N   1      34.521  17.055   9.330  0.00  0.00     0.045 A 
HETATM   18  C   UNK N   1      33.688  15.975   9.318  0.00  0.00     0.034 A 
HETATM   19  N   UNK N   1      35.420  16.956  10.322  0.00  0.00    -0.359 N 
HETATM   20  C   UNK N   1      32.646  15.863   8.409  0.00  0.00     0.162 A 
HETATM   21  C   UNK N   1      34.065  15.135  10.340  0.00  0.00     0.041 A 
HETATM   22  F   UNK N   1      31.861  14.755   8.424  0.00  0.00    -0.202 F 
HETATM   23  C   UNK N   1      35.134  15.786  10.941  0.00  0.00     0.006 A 
HETATM   24  C   UNK N   1      35.860  15.294  12.142  0.00  0.00     0.068 C 
HETATM   25  H   UNK N   1      36.131  17.596  10.551  0.00  0.00     0.166 HD
ENDBRANCH  13  14
ENDBRANCH  12  13
BRANCH   4  26
HETATM   26  O   UNK N   1      28.259  13.727   4.255  0.00  0.00    -0.353 OA
HETATM   27  C   UNK N   1      28.529  13.986   2.931  0.00  0.00     0.210 C 
ENDBRANCH   4  26
BRANCH   1  28
HETATM   28  O   UNK N   1      25.794  14.163   5.331  0.00  0.00    -0.348 OA
BRANCH  28  29
HETATM   29  C   UNK N   1      24.636  14.103   6.074  0.00  0.00     0.177 C 
BRANCH  29  30
HETATM   30  C   UNK N   1      24.618  12.832   6.928  0.00  0.00     0.057 C 
BRANCH  30  31
HETATM   31  C   UNK N   1      24.835  13.132   8.417  0.00  0.00     0.274 C 
BRANCH  31  32
HETATM   32  N   UNK N   1      24.154  12.167   9.278  0.00  0.00     0.088 N 
HETATM   33  C   UNK N   1      22.755  12.567   9.345  0.00  0.00     0.272 C 
HETATM   34  C   UNK N   1      22.254  12.267  10.747  0.00  0.00     0.032 C 
HETATM   35  C   UNK N   1      23.482  11.902  11.544  0.00  0.00     0.032 C 
HETATM   36  C   UNK N   1      24.631  12.291  10.649  0.00  0.00     0.272 C 
ENDBRANCH  31  32
ENDBRANCH  30  31
ENDBRANCH  29  30
ENDBRANCH  28  29
ENDBRANCH   1  28
TORSDOF 8
ENDMDL
MODEL 4
REMARK VINA RESULT:      -6.9      4.223      7.703
REMARK  8 active torsions:
REMARK  status: ('A' for Active; 'I' for Inactive)
REMARK    1  A    between atoms: N_5  and  C_6 
REMARK    2  A    between atoms: C_6  and  C_7 
REMARK    3  A    between atoms: C_7  and  C_8 
REMARK    4  A    between atoms: C_8  and  O_9 
REMARK    5  A    between atoms: O_9  and  C_10 
REMARK    6  A    between atoms: C_13  and  O_22 
REMARK    7  A    between atoms: C_21  and  O_24 
REMARK    8  A    between atoms: O_24  and  C_25 
ROOT
HETATM    1  C   UNK N   1      21.674  16.834   5.658  0.00  0.00     0.104 A 
HETATM    2  C   UNK N   1      23.456  18.494   4.272  0.00  0.00     0.045 A 
HETATM    3  C   UNK N   1      23.942  17.408   5.006  0.00  0.00     0.057 A 
HETATM    4  C   UNK N   1      23.051  16.558   5.686  0.00  0.00     0.102 A 
HETATM    5  C   UNK N   1      21.187  17.917   4.915  0.00  0.00     0.070 A 
HETATM    6  C   UNK N   1      22.067  18.732   4.205  0.00  0.00     0.050 A 
HETATM    7  N   UNK N   1      21.585  19.756   3.460  0.00  0.00    -0.351 N 
ATOM      8  HN  UNK N   1      20.580  19.925   3.426  1.00  0.00     0.166 HD
HETATM    9  C   UNK N   1      22.426  20.558   2.762  0.00  0.00     0.182 A 
HETATM   10  N   UNK N   1      23.767  20.360   2.829  0.00  0.00    -0.332 N 
ATOM     11  HN  UNK N   1      24.385  20.973   2.298  1.00  0.00     0.168 HD
HETATM   12  C   UNK N   1      24.310  19.366   3.586  0.00  0.00     0.161 A 
ENDROOT
BRANCH  12  13
HETATM   13  O   UNK N   1      25.665  19.206   3.654  0.00  0.00    -0.290 OA
BRANCH  13  14
HETATM   14  C   UNK N   1      26.390  19.335   4.799  0.00  0.00     0.117 A 
HETATM   15  C   UNK N   1      26.330  20.563   5.500  0.00  0.00     0.043 A 
HETATM   16  C   UNK N   1      26.966  20.716   6.745  0.00  0.00     0.033 A 
HETATM   17  C   UNK N   1      27.652  19.621   7.262  0.00  0.00     0.045 A 
HETATM   18  C   UNK N   1      27.758  18.446   6.576  0.00  0.00     0.034 A 
HETATM   19  N   UNK N   1      28.265  19.539   8.452  0.00  0.00    -0.359 N 
HETATM   20  C   UNK N   1      27.169  18.267   5.333  0.00  0.00     0.162 A 
HETATM   21  C   UNK N   1      28.477  17.565   7.349  0.00  0.00     0.041 A 
HETATM   22  F   UNK N   1      27.326  17.086   4.682  0.00  0.00    -0.202 F 
HETATM   23  C   UNK N   1      28.763  18.280   8.506  0.00  0.00     0.006 A 
HETATM   24  C   UNK N   1      29.487  17.733   9.683  0.00  0.00     0.068 C 
HETATM   25  H   UNK N   1      28.337  20.241   9.138  0.00  0.00     0.166 HD
ENDBRANCH  13  14
ENDBRANCH  12  13
BRANCH   4  26
HETATM   26  O   UNK N   1      23.493  15.490   6.391  0.00  0.00    -0.353 OA
HETATM   27  C   UNK N   1      23.874  14.302   5.809  0.00  0.00     0.210 C 
ENDBRANCH   4  26
BRANCH   1  28
HETATM   28  O   UNK N   1      20.828  16.055   6.359  0.00  0.00    -0.348 OA
BRANCH  28  29
HETATM   29  C   UNK N   1      20.018  16.593   7.335  0.00  0.00     0.177 C 
BRANCH  29  30
HETATM   30  C   UNK N   1      20.332  15.962   8.694  0.00  0.00     0.057 C 
BRANCH  30  31
HETATM   31  C   UNK N   1      20.958  14.569   8.556  0.00  0.00     0.274 C 
BRANCH  31  32
HETATM   32  N   UNK N   1      21.527  14.093   9.814  0.00  0.00     0.088 N 
HETATM   33  C   UNK N   1      22.754  13.380   9.487  0.00  0.00     0.272 C 
HETATM   34  C   UNK N   1      22.881  12.209  10.447  0.00  0.00     0.032 C 
HETATM   35  C   UNK N   1      21.562  12.143  11.177  0.00  0.00     0.032 C 
HETATM   36  C   UNK N   1      20.665  13.076  10.404  0.00  0.00     0.272 C 
ENDBRANCH  31  32
ENDBRANCH  30  31
ENDBRANCH  29  30
ENDBRANCH  28  29
ENDBRANCH   1  28
TORSDOF 8
ENDMDL
MODEL 5
REMARK VINA RESULT:      -6.9      2.034      2.466
REMARK  8 active torsions:
REMARK  status: ('A' for Active; 'I' for Inactive)
REMARK    1  A    between atoms: N_5  and  C_6 
REMARK    2  A    between atoms: C_6  and  C_7 
REMARK    3  A    between atoms: C_7  and  C_8 
REMARK    4  A    between atoms: C_8  and  O_9 
REMARK    5  A    between atoms: O_9  and  C_10 
REMARK    6  A    between atoms: C_13  and  O_22 
REMARK    7  A    between atoms: C_21  and  O_24 
REMARK    8  A    between atoms: O_24  and  C_25 
ROOT
HETATM    1  C   UNK N   1      27.735  16.536   5.343  0.00  0.00     0.104 A 
HETATM    2  C   UNK N   1      29.601  17.368   7.262  0.00  0.00     0.045 A 
HETATM    3  C   UNK N   1      30.006  17.159   5.940  0.00  0.00     0.057 A 
HETATM    4  C   UNK N   1      29.069  16.762   4.967  0.00  0.00     0.102 A 
HETATM    5  C   UNK N   1      27.329  16.754   6.665  0.00  0.00     0.070 A 
HETATM    6  C   UNK N   1      28.247  17.190   7.618  0.00  0.00     0.050 A 
HETATM    7  N   UNK N   1      27.839  17.432   8.887  0.00  0.00    -0.351 N 
ATOM      8  HN  UNK N   1      26.860  17.292   9.137  1.00  0.00     0.166 HD
HETATM    9  C   UNK N   1      28.718  17.858   9.827  0.00  0.00     0.182 A 
HETATM   10  N   UNK N   1      30.028  18.016   9.511  0.00  0.00    -0.332 N 
ATOM     11  HN  UNK N   1      30.676  18.336  10.230  1.00  0.00     0.168 HD
HETATM   12  C   UNK N   1      30.502  17.757   8.260  0.00  0.00     0.161 A 
ENDROOT
BRANCH  12  13
HETATM   13  O   UNK N   1      31.830  17.901   7.977  0.00  0.00    -0.290 OA
BRANCH  13  14
HETATM   14  C   UNK N   1      32.709  16.864   7.902  0.00  0.00     0.117 A 
HETATM   15  C   UNK N   1      32.641  15.851   8.888  0.00  0.00     0.043 A 
HETATM   16  C   UNK N   1      33.446  14.700   8.798  0.00  0.00     0.033 A 
HETATM   17  C   UNK N   1      34.305  14.593   7.709  0.00  0.00     0.045 A 
HETATM   18  C   UNK N   1      34.416  15.583   6.777  0.00  0.00     0.034 A 
HETATM   19  N   UNK N   1      35.102  13.557   7.406  0.00  0.00    -0.359 N 
HETATM   20  C   UNK N   1      33.660  16.744   6.847  0.00  0.00     0.162 A 
HETATM   21  C   UNK N   1      35.328  15.177   5.831  0.00  0.00     0.041 A 
HETATM   22  F   UNK N   1      33.828  17.709   5.907  0.00  0.00    -0.202 F 
HETATM   23  C   UNK N   1      35.721  13.913   6.255  0.00  0.00     0.006 A 
HETATM   24  C   UNK N   1      36.668  13.030   5.525  0.00  0.00     0.068 C 
HETATM   25  H   UNK N   1      35.212  12.719   7.910  0.00  0.00     0.166 HD
ENDBRANCH  13  14
ENDBRANCH  12  13
BRANCH   4  26
HETATM   26  O   UNK N   1      29.431  16.570   3.677  0.00  0.00    -0.353 OA
HETATM   27  C   UNK N   1      30.533  15.837   3.299  0.00  0.00     0.210 C 
ENDBRANCH   4  26
BRANCH   1  28
HETATM   28  O   UNK N   1      26.854  16.098   4.424  0.00  0.00    -0.348 OA
BRANCH  28  29
HETATM   29  C   UNK N   1      25.593  16.646   4.338  0.00  0.00     0.177 C 
BRANCH  29  30
HETATM   30  C   UNK N   1      25.611  17.882   3.434  0.00  0.00     0.057 C 
BRANCH  30  31
HETATM   31  C   UNK N   1      24.905  19.081   4.080  0.00  0.00     0.274 C 
BRANCH  31  32
HETATM   32  N   UNK N   1      25.838  20.153   4.418  0.00  0.00     0.088 N 
HETATM   33  C   UNK N   1      27.118  19.813   3.811  0.00  0.00     0.272 C 
HETATM   34  C   UNK N   1      28.216  20.273   4.755  0.00  0.00     0.032 C 
HETATM   35  C   UNK N   1      27.511  20.673   6.028  0.00  0.00     0.032 C 
HETATM   36  C   UNK N   1      26.107  20.153   5.851  0.00  0.00     0.272 C 
ENDBRANCH  31  32
ENDBRANCH  30  31
ENDBRANCH  29  30
ENDBRANCH  28  29
ENDBRANCH   1  28
TORSDOF 8
ENDMDL
MODEL 6
REMARK VINA RESULT:      -6.9      3.644     10.479
REMARK  8 active torsions:
REMARK  status: ('A' for Active; 'I' for Inactive)
REMARK    1  A    between atoms: N_5  and  C_6 
REMARK    2  A    between atoms: C_6  and  C_7 
REMARK    3  A    between atoms: C_7  and  C_8 
REMARK    4  A    between atoms: C_8  and  O_9 
REMARK    5  A    between atoms: O_9  and  C_10 
REMARK    6  A    between atoms: C_13  and  O_22 
REMARK    7  A    between atoms: C_21  and  O_24 
REMARK    8  A    between atoms: O_24  and  C_25 
ROOT
HETATM    1  C   UNK N   1      34.787  14.344  10.886  0.00  0.00     0.104 A 
HETATM    2  C   UNK N   1      34.348  15.641   8.441  0.00  0.00     0.045 A 
HETATM    3  C   UNK N   1      34.164  14.258   8.540  0.00  0.00     0.057 A 
HETATM    4  C   UNK N   1      34.362  13.604   9.770  0.00  0.00     0.102 A 
HETATM    5  C   UNK N   1      34.962  15.729  10.788  0.00  0.00     0.070 A 
HETATM    6  C   UNK N   1      34.723  16.383   9.581  0.00  0.00     0.050 A 
HETATM    7  N   UNK N   1      34.860  17.728   9.504  0.00  0.00    -0.351 N 
ATOM      8  HN  UNK N   1      35.140  18.255  10.331  1.00  0.00     0.166 HD
HETATM    9  C   UNK N   1      34.631  18.382   8.338  0.00  0.00     0.182 A 
HETATM   10  N   UNK N   1      34.290  17.684   7.224  0.00  0.00    -0.332 N 
ATOM     11  HN  UNK N   1      34.121  18.191   6.355  1.00  0.00     0.168 HD
HETATM   12  C   UNK N   1      34.167  16.328   7.234  0.00  0.00     0.161 A 
ENDROOT
BRANCH  12  13
HETATM   13  O   UNK N   1      33.848  15.650   6.092  0.00  0.00    -0.290 OA
BRANCH  13  14
HETATM   14  C   UNK N   1      32.820  15.991   5.266  0.00  0.00     0.117 A 
HETATM   15  C   UNK N   1      33.130  16.520   3.991  0.00  0.00     0.043 A 
HETATM   16  C   UNK N   1      32.115  16.784   3.052  0.00  0.00     0.033 A 
HETATM   17  C   UNK N   1      30.803  16.504   3.421  0.00  0.00     0.045 A 
HETATM   18  C   UNK N   1      30.485  16.038   4.663  0.00  0.00     0.034 A 
HETATM   19  N   UNK N   1      29.706  16.621   2.658  0.00  0.00    -0.359 N 
HETATM   20  C   UNK N   1      31.455  15.794   5.625  0.00  0.00     0.162 A 
HETATM   21  C   UNK N   1      29.123  15.851   4.713  0.00  0.00     0.041 A 
HETATM   22  F   UNK N   1      31.083  15.355   6.854  0.00  0.00    -0.202 F 
HETATM   23  C   UNK N   1      28.682  16.215   3.447  0.00  0.00     0.006 A 
HETATM   24  C   UNK N   1      27.271  16.135   2.985  0.00  0.00     0.068 C 
HETATM   25  H   UNK N   1      29.655  16.933   1.725  0.00  0.00     0.166 HD
ENDBRANCH  13  14
ENDBRANCH  12  13
BRANCH   4  26
HETATM   26  O   UNK N   1      34.174  12.270   9.898  0.00  0.00    -0.353 OA
HETATM   27  C   UNK N   1      34.523  11.358   8.927  0.00  0.00     0.210 C 
ENDBRANCH   4  26
BRANCH   1  28
HETATM   28  O   UNK N   1      35.034  13.707  12.047  0.00  0.00    -0.348 OA
BRANCH  28  29
HETATM   29  C   UNK N   1      36.009  14.160  12.907  0.00  0.00     0.177 C 
BRANCH  29  30
HETATM   30  C   UNK N   1      36.361  13.078  13.931  0.00  0.00     0.057 C 
BRANCH  30  31
HETATM   31  C   UNK N   1      36.387  13.623  15.365  0.00  0.00     0.274 C 
BRANCH  31  32
HETATM   32  N   UNK N   1      35.399  12.970  16.220  0.00  0.00     0.088 N 
HETATM   33  C   UNK N   1      35.355  13.717  17.470  0.00  0.00     0.272 C 
HETATM   34  C   UNK N   1      35.127  12.724  18.596  0.00  0.00     0.032 C 
HETATM   35  C   UNK N   1      35.280  11.360  17.967  0.00  0.00     0.032 C 
HETATM   36  C   UNK N   1      35.865  11.645  16.607  0.00  0.00     0.272 C 
ENDBRANCH  31  32
ENDBRANCH  30  31
ENDBRANCH  29  30
ENDBRANCH  28  29
ENDBRANCH   1  28
TORSDOF 8
ENDMDL
MODEL 7
REMARK VINA RESULT:      -6.8      1.613      2.345
REMARK  8 active torsions:
REMARK  status: ('A' for Active; 'I' for Inactive)
REMARK    1  A    between atoms: N_5  and  C_6 
REMARK    2  A    between atoms: C_6  and  C_7 
REMARK    3  A    between atoms: C_7  and  C_8 
REMARK    4  A    between atoms: C_8  and  O_9 
REMARK    5  A    between atoms: O_9  and  C_10 
REMARK    6  A    between atoms: C_13  and  O_22 
REMARK    7  A    between atoms: C_21  and  O_24 
REMARK    8  A    between atoms: O_24  and  C_25 
ROOT
HETATM    1  C   UNK N   1      27.285  16.312   4.313  0.00  0.00     0.104 A 
HETATM    2  C   UNK N   1      29.801  16.946   5.370  0.00  0.00     0.045 A 
HETATM    3  C   UNK N   1      28.707  16.785   6.224  0.00  0.00     0.057 A 
HETATM    4  C   UNK N   1      27.445  16.445   5.701  0.00  0.00     0.102 A 
HETATM    5  C   UNK N   1      28.383  16.465   3.458  0.00  0.00     0.070 A 
HETATM    6  C   UNK N   1      29.642  16.757   3.980  0.00  0.00     0.050 A 
HETATM    7  N   UNK N   1      30.707  16.868   3.150  0.00  0.00    -0.351 N 
ATOM      8  HN  UNK N   1      30.580  16.739   2.147  1.00  0.00     0.166 HD
HETATM    9  C   UNK N   1      31.939  17.151   3.640  0.00  0.00     0.182 A 
HETATM   10  N   UNK N   1      32.111  17.358   4.971  0.00  0.00    -0.332 N 
ATOM     11  HN  UNK N   1      33.044  17.570   5.323  1.00  0.00     0.168 HD
HETATM   12  C   UNK N   1      31.072  17.289   5.849  0.00  0.00     0.161 A 
ENDROOT
BRANCH  12  13
HETATM   13  O   UNK N   1      31.269  17.526   7.179  0.00  0.00    -0.290 OA
BRANCH  13  14
HETATM   14  C   UNK N   1      32.406  17.195   7.852  0.00  0.00     0.117 A 
HETATM   15  C   UNK N   1      33.433  18.163   7.954  0.00  0.00     0.043 A 
HETATM   16  C   UNK N   1      34.580  17.919   8.732  0.00  0.00     0.033 A 
HETATM   17  C   UNK N   1      34.667  16.699   9.395  0.00  0.00     0.045 A 
HETATM   18  C   UNK N   1      33.707  15.738   9.267  0.00  0.00     0.034 A 
HETATM   19  N   UNK N   1      35.637  16.300  10.231  0.00  0.00    -0.359 N 
HETATM   20  C   UNK N   1      32.576  15.931   8.487  0.00  0.00     0.162 A 
HETATM   21  C   UNK N   1      34.072  14.666  10.047  0.00  0.00     0.041 A 
HETATM   22  F   UNK N   1      31.663  14.932   8.374  0.00  0.00    -0.202 F 
HETATM   23  C   UNK N   1      35.268  15.060  10.633  0.00  0.00     0.006 A 
HETATM   24  C   UNK N   1      36.038  14.252  11.614  0.00  0.00     0.068 C 
HETATM   25  H   UNK N   1      36.443  16.800  10.495  0.00  0.00     0.166 HD
ENDBRANCH  13  14
ENDBRANCH  12  13
BRANCH   4  26
HETATM   26  O   UNK N   1      26.372  16.266   6.508  0.00  0.00    -0.353 OA
HETATM   27  C   UNK N   1      26.004  15.044   7.020  0.00  0.00     0.210 C 
ENDBRANCH   4  26
BRANCH   1  28
HETATM   28  O   UNK N   1      26.064  16.046   3.810  0.00  0.00    -0.348 OA
BRANCH  28  29
HETATM   29  C   UNK N   1      25.387  16.987   3.065  0.00  0.00     0.177 C 
BRANCH  29  30
HETATM   30  C   UNK N   1      24.764  18.043   3.982  0.00  0.00     0.057 C 
BRANCH  30  31
HETATM   31  C   UNK N   1      24.854  19.454   3.386  0.00  0.00     0.274 C 
BRANCH  31  32
HETATM   32  N   UNK N   1      25.772  20.310   4.133  0.00  0.00     0.088 N 
HETATM   33  C   UNK N   1      27.107  20.074   3.600  0.00  0.00     0.272 C 
HETATM   34  C   UNK N   1      28.089  20.159   4.756  0.00  0.00     0.032 C 
HETATM   35  C   UNK N   1      27.239  20.217   6.003  0.00  0.00     0.032 C 
HETATM   36  C   UNK N   1      25.853  19.872   5.521  0.00  0.00     0.272 C 
ENDBRANCH  31  32
ENDBRANCH  30  31
ENDBRANCH  29  30
ENDBRANCH  28  29
ENDBRANCH   1  28
TORSDOF 8
ENDMDL
MODEL 8
REMARK VINA RESULT:      -6.8      2.843      4.883
REMARK  8 active torsions:
REMARK  status: ('A' for Active; 'I' for Inactive)
REMARK    1  A    between atoms: N_5  and  C_6 
REMARK    2  A    between atoms: C_6  and  C_7 
REMARK    3  A    between atoms: C_7  and  C_8 
REMARK    4  A    between atoms: C_8  and  O_9 
REMARK    5  A    between atoms: O_9  and  C_10 
REMARK    6  A    between atoms: C_13  and  O_22 
REMARK    7  A    between atoms: C_21  and  O_24 
REMARK    8  A    between atoms: O_24  and  C_25 
ROOT
HETATM    1  C   UNK N   1      23.664  17.012   4.103  0.00  0.00     0.104 A 
HETATM    2  C   UNK N   1      26.372  17.729   4.173  0.00  0.00     0.045 A 
HETATM    3  C   UNK N   1      25.994  16.408   4.429  0.00  0.00     0.057 A 
HETATM    4  C   UNK N   1      24.638  16.037   4.374  0.00  0.00     0.102 A 
HETATM    5  C   UNK N   1      24.044  18.333   3.838  0.00  0.00     0.070 A 
HETATM    6  C   UNK N   1      25.391  18.691   3.849  0.00  0.00     0.050 A 
HETATM    7  N   UNK N   1      25.754  19.963   3.557  0.00  0.00    -0.351 N 
ATOM      8  HN  UNK N   1      25.037  20.653   3.333  1.00  0.00     0.166 HD
HETATM    9  C   UNK N   1      27.060  20.328   3.561  0.00  0.00     0.182 A 
HETATM   10  N   UNK N   1      28.018  19.424   3.891  0.00  0.00    -0.332 N 
ATOM     11  HN  UNK N   1      28.995  19.716   3.889  1.00  0.00     0.168 HD
HETATM   12  C   UNK N   1      27.710  18.140   4.223  0.00  0.00     0.161 A 
ENDROOT
BRANCH  12  13
HETATM   13  O   UNK N   1      28.692  17.259   4.575  0.00  0.00    -0.290 OA
BRANCH  13  14
HETATM   14  C   UNK N   1      29.478  17.394   5.679  0.00  0.00     0.117 A 
HETATM   15  C   UNK N   1      28.848  17.559   6.936  0.00  0.00     0.043 A 
HETATM   16  C   UNK N   1      29.604  17.589   8.123  0.00  0.00     0.033 A 
HETATM   17  C   UNK N   1      30.984  17.450   8.017  0.00  0.00     0.045 A 
HETATM   18  C   UNK N   1      31.608  17.338   6.809  0.00  0.00     0.034 A 
HETATM   19  N   UNK N   1      31.870  17.388   9.022  0.00  0.00    -0.359 N 
HETATM   20  C   UNK N   1      30.900  17.333   5.616  0.00  0.00     0.162 A 
HETATM   21  C   UNK N   1      32.958  17.205   7.038  0.00  0.00     0.041 A 
HETATM   22  F   UNK N   1      31.572  17.245   4.440  0.00  0.00    -0.202 F 
HETATM   23  C   UNK N   1      33.074  17.231   8.422  0.00  0.00     0.006 A 
HETATM   24  C   UNK N   1      34.349  17.067   9.168  0.00  0.00     0.068 C 
HETATM   25  H   UNK N   1      31.685  17.443   9.988  0.00  0.00     0.166 HD
ENDBRANCH  13  14
ENDBRANCH  12  13
BRANCH   4  26
HETATM   26  O   UNK N   1      24.245  14.761   4.600  0.00  0.00    -0.353 OA
HETATM   27  C   UNK N   1      25.054  13.669   4.383  0.00  0.00     0.210 C 
ENDBRANCH   4  26
BRANCH   1  28
HETATM   28  O   UNK N   1      22.362  16.668   4.111  0.00  0.00    -0.348 OA
BRANCH  28  29
HETATM   29  C   UNK N   1      21.832  15.890   3.104  0.00  0.00     0.177 C 
BRANCH  29  30
HETATM   30  C   UNK N   1      20.603  16.572   2.497  0.00  0.00     0.057 C 
BRANCH  30  31
HETATM   31  C   UNK N   1      19.931  17.538   3.481  0.00  0.00     0.274 C 
BRANCH  31  32
HETATM   32  N   UNK N   1      19.791  18.881   2.924  0.00  0.00     0.088 N 
HETATM   33  C   UNK N   1      20.332  18.843   1.572  0.00  0.00     0.272 C 
HETATM   34  C   UNK N   1      21.017  20.173   1.309  0.00  0.00     0.032 C 
HETATM   35  C   UNK N   1      21.052  20.879   2.643  0.00  0.00     0.032 C 
HETATM   36  C   UNK N   1      20.658  19.814   3.634  0.00  0.00     0.272 C 
ENDBRANCH  31  32
ENDBRANCH  30  31
ENDBRANCH  29  30
ENDBRANCH  28  29
ENDBRANCH   1  28
TORSDOF 8
ENDMDL
MODEL 9
REMARK VINA RESULT:      -6.6      4.021      7.211
REMARK  8 active torsions:
REMARK  status: ('A' for Active; 'I' for Inactive)
REMARK    1  A    between atoms: N_5  and  C_6 
REMARK    2  A    between atoms: C_6  and  C_7 
REMARK    3  A    between atoms: C_7  and  C_8 
REMARK    4  A    between atoms: C_8  and  O_9 
REMARK    5  A    between atoms: O_9  and  C_10 
REMARK    6  A    between atoms: C_13  and  O_22 
REMARK    7  A    between atoms: C_21  and  O_24 
REMARK    8  A    between atoms: O_24  and  C_25 
ROOT
HETATM    1  C   UNK N   1      32.826  14.250   8.303  0.00  0.00     0.104 A 
HETATM    2  C   UNK N   1      34.829  13.738  10.195  0.00  0.00     0.045 A 
HETATM    3  C   UNK N   1      34.351  12.702   9.388  0.00  0.00     0.057 A 
HETATM    4  C   UNK N   1      33.360  12.957   8.421  0.00  0.00     0.102 A 
HETATM    5  C   UNK N   1      33.311  15.290   9.106  0.00  0.00     0.070 A 
HETATM    6  C   UNK N   1      34.323  15.046  10.032  0.00  0.00     0.050 A 
HETATM    7  N   UNK N   1      34.813  16.064  10.780  0.00  0.00    -0.351 N 
ATOM      8  HN  UNK N   1      34.435  17.004  10.661  1.00  0.00     0.166 HD
HETATM    9  C   UNK N   1      35.798  15.846  11.686  0.00  0.00     0.182 A 
HETATM   10  N   UNK N   1      36.284  14.592  11.873  0.00  0.00    -0.332 N 
ATOM     11  HN  UNK N   1      37.024  14.445  12.558  1.00  0.00     0.168 HD
HETATM   12  C   UNK N   1      35.809  13.525  11.172  0.00  0.00     0.161 A 
ENDROOT
BRANCH  12  13
HETATM   13  O   UNK N   1      36.298  12.271  11.400  0.00  0.00    -0.290 OA
BRANCH  13  14
HETATM   14  C   UNK N   1      36.370  11.693  12.631  0.00  0.00     0.117 A 
HETATM   15  C   UNK N   1      37.628  11.644  13.278  0.00  0.00     0.043 A 
HETATM   16  C   UNK N   1      37.744  11.162  14.595  0.00  0.00     0.033 A 
HETATM   17  C   UNK N   1      36.583  10.741  15.236  0.00  0.00     0.045 A 
HETATM   18  C   UNK N   1      35.372  10.738  14.608  0.00  0.00     0.034 A 
HETATM   19  N   UNK N   1      36.468  10.313  16.503  0.00  0.00    -0.359 N 
HETATM   20  C   UNK N   1      35.222  11.178  13.301  0.00  0.00     0.162 A 
HETATM   21  C   UNK N   1      34.430  10.282  15.501  0.00  0.00     0.041 A 
HETATM   22  F   UNK N   1      33.999  11.131  12.715  0.00  0.00    -0.202 F 
HETATM   23  C   UNK N   1      35.151  10.040  16.664  0.00  0.00     0.006 A 
HETATM   24  C   UNK N   1      34.559   9.579  17.947  0.00  0.00     0.068 C 
HETATM   25  H   UNK N   1      37.185  10.219  17.170  0.00  0.00     0.166 HD
ENDBRANCH  13  14
ENDBRANCH  12  13
BRANCH   4  26
HETATM   26  O   UNK N   1      32.892  11.975   7.615  0.00  0.00    -0.353 OA
HETATM   27  C   UNK N   1      33.540  11.555   6.476  0.00  0.00     0.210 C 
ENDBRANCH   4  26
BRANCH   1  28
HETATM   28  O   UNK N   1      31.836  14.479   7.419  0.00  0.00    -0.348 OA
BRANCH  28  29
HETATM   29  C   UNK N   1      32.103  15.044   6.192  0.00  0.00     0.177 C 
BRANCH  29  30
HETATM   30  C   UNK N   1      31.365  16.378   6.049  0.00  0.00     0.057 C 
BRANCH  30  31
HETATM   31  C   UNK N   1      29.961  16.333   6.668  0.00  0.00     0.274 C 
BRANCH  31  32
HETATM   32  N   UNK N   1      29.600  17.596   7.306  0.00  0.00     0.088 N 
HETATM   33  C   UNK N   1      30.494  17.773   8.442  0.00  0.00     0.272 C 
HETATM   34  C   UNK N   1      29.703  18.439   9.555  0.00  0.00     0.032 C 
HETATM   35  C   UNK N   1      28.266  18.419   9.095  0.00  0.00     0.032 C 
HETATM   36  C   UNK N   1      28.273  17.499   7.901  0.00  0.00     0.272 C 
ENDBRANCH  31  32
ENDBRANCH  30  31
ENDBRANCH  29  30
ENDBRANCH  28  29
ENDBRANCH   1  28
TORSDOF 8
ENDMDL
