MODEL 1
REMARK VINA RESULT:      -6.2      0.000      0.000
REMARK  3 active torsions:
REMARK  status: ('A' for Active; 'I' for Inactive)
REMARK    1  A    between atoms: S_1  and  C_14 
REMARK    2  A    between atoms: C_6  and  C_8 
REMARK    3  A    between atoms: C_8  and  C_9 
ROOT
HETATM    1  O   UNK N   1      34.868  18.947   8.349  0.00  0.00    -0.285 OA
HETATM    2  C   UNK N   1      34.392  17.824   8.242  0.00  0.00     0.210 C 
ENDROOT
BRANCH   2   3
HETATM    3  C   UNK N   1      34.916  16.787   9.201  0.00  0.00     0.110 A 
HETATM    4  N   UNK N   1      35.088  17.118  10.499  0.00  0.00    -0.303 N 
HETATM    5  C   UNK N   1      35.542  15.991  11.098  0.00  0.00     0.325 A 
HETATM    6  H   UNK N   1      34.919  17.992  10.921  0.00  0.00     0.171 HD
HETATM    7  O   UNK N   1      35.802  15.920  12.284  0.00  0.00    -0.247 OA
HETATM    8  N   UNK N   1      35.674  14.952  10.244  0.00  0.00    -0.310 N 
HETATM    9  C   UNK N   1      35.284  15.437   9.053  0.00  0.00     0.040 A 
HETATM   10  H   UNK N   1      35.986  14.040  10.450  0.00  0.00     0.170 HD
HETATM   11  C   UNK N   1      35.294  14.570   7.849  0.00  0.00     0.071 C 
ENDBRANCH   2   3
BRANCH   2  12
HETATM   12  C   UNK N   1      33.326  17.642   7.207  0.00  0.00     0.016 A 
HETATM   13  C   UNK N   1      33.596  17.590   5.840  0.00  0.00     0.017 A 
HETATM   14  C   UNK N   1      32.581  17.368   4.906  0.00  0.00     0.019 A 
HETATM   15  C   UNK N   1      31.266  17.187   5.333  0.00  0.00    -0.000 A 
HETATM   16  C   UNK N   1      30.972  17.241   6.699  0.00  0.00     0.019 A 
HETATM   17  C   UNK N   1      31.992  17.477   7.627  0.00  0.00     0.017 A 
BRANCH  15  18
HETATM   18  S   UNK N   1      29.994  16.797   4.130  0.00  0.00    -0.134 SA
HETATM   19  C   UNK N   1      28.731  17.859   4.885  0.00  0.00     0.095 C 
ENDBRANCH  15  18
ENDBRANCH   2  12
TORSDOF 3
ENDMDL
MODEL 2
REMARK VINA RESULT:      -5.9      2.352      3.587
REMARK  3 active torsions:
REMARK  status: ('A' for Active; 'I' for Inactive)
REMARK    1  A    between atoms: S_1  and  C_14 
REMARK    2  A    between atoms: C_6  and  C_8 
REMARK    3  A    between atoms: C_8  and  C_9 
ROOT
HETATM    1  O   UNK N   1      31.779  15.110   7.123  0.00  0.00    -0.285 OA
HETATM    2  C   UNK N   1      31.749  16.303   7.397  0.00  0.00     0.210 C 
ENDROOT
BRANCH   2   3
HETATM    3  C   UNK N   1      32.968  16.856   8.087  0.00  0.00     0.110 A 
HETATM    4  N   UNK N   1      33.490  18.028   7.663  0.00  0.00    -0.303 N 
HETATM    5  C   UNK N   1      34.545  18.265   8.478  0.00  0.00     0.325 A 
HETATM    6  H   UNK N   1      33.170  18.590   6.920  0.00  0.00     0.171 HD
HETATM    7  O   UNK N   1      35.254  19.249   8.389  0.00  0.00    -0.247 OA
HETATM    8  N   UNK N   1      34.729  17.298   9.405  0.00  0.00    -0.310 N 
HETATM    9  C   UNK N   1      33.747  16.410   9.170  0.00  0.00     0.040 A 
HETATM   10  H   UNK N   1      35.428  17.255  10.098  0.00  0.00     0.170 HD
HETATM   11  C   UNK N   1      33.625  15.189  10.005  0.00  0.00     0.071 C 
ENDBRANCH   2   3
BRANCH   2  12
HETATM   12  C   UNK N   1      30.529  17.059   6.972  0.00  0.00     0.016 A 
HETATM   13  C   UNK N   1      29.693  17.720   7.872  0.00  0.00     0.017 A 
HETATM   14  C   UNK N   1      28.593  18.459   7.433  0.00  0.00     0.019 A 
HETATM   15  C   UNK N   1      28.311  18.553   6.071  0.00  0.00    -0.000 A 
HETATM   16  C   UNK N   1      29.133  17.894   5.151  0.00  0.00     0.019 A 
HETATM   17  C   UNK N   1      30.227  17.146   5.599  0.00  0.00     0.017 A 
BRANCH  15  18
HETATM   18  S   UNK N   1      26.958  19.593   5.520  0.00  0.00    -0.134 SA
HETATM   19  C   UNK N   1      27.584  21.101   6.313  0.00  0.00     0.095 C 
ENDBRANCH  15  18
ENDBRANCH   2  12
TORSDOF 3
ENDMDL
MODEL 3
REMARK VINA RESULT:      -5.7     10.665     13.614
REMARK  3 active torsions:
REMARK  status: ('A' for Active; 'I' for Inactive)
REMARK    1  A    between atoms: S_1  and  C_14 
REMARK    2  A    between atoms: C_6  and  C_8 
REMARK    3  A    between atoms: C_8  and  C_9 
ROOT
HETATM    1  O   UNK N   1      20.584  20.369   3.565  0.00  0.00    -0.285 OA
HETATM    2  C   UNK N   1      21.291  19.426   3.232  0.00  0.00     0.210 C 
ENDROOT
BRANCH   2   3
HETATM    3  C   UNK N   1      20.593  18.285   2.540  0.00  0.00     0.110 A 
HETATM    4  N   UNK N   1      20.521  18.278   1.191  0.00  0.00    -0.303 N 
HETATM    5  C   UNK N   1      19.865  17.136   0.875  0.00  0.00     0.325 A 
HETATM    6  H   UNK N   1      20.871  18.957   0.570  0.00  0.00     0.171 HD
HETATM    7  O   UNK N   1      19.624  16.795  -0.267  0.00  0.00    -0.247 OA
HETATM    8  N   UNK N   1      19.508  16.410   1.958  0.00  0.00    -0.310 N 
HETATM    9  C   UNK N   1      19.959  17.119   3.007  0.00  0.00     0.040 A 
HETATM   10  H   UNK N   1      19.025  15.552   1.974  0.00  0.00     0.170 HD
HETATM   11  C   UNK N   1      19.748  16.628   4.392  0.00  0.00     0.071 C 
ENDBRANCH   2   3
BRANCH   2  12
HETATM   12  C   UNK N   1      22.756  19.553   3.514  0.00  0.00     0.016 A 
HETATM   13  C   UNK N   1      23.436  18.707   4.390  0.00  0.00     0.017 A 
HETATM   14  C   UNK N   1      24.814  18.823   4.589  0.00  0.00     0.019 A 
HETATM   15  C   UNK N   1      25.540  19.795   3.902  0.00  0.00    -0.000 A 
HETATM   16  C   UNK N   1      24.878  20.657   3.023  0.00  0.00     0.019 A 
HETATM   17  C   UNK N   1      23.495  20.543   2.838  0.00  0.00     0.017 A 
BRANCH  15  18
HETATM   18  S   UNK N   1      27.323  19.860   4.089  0.00  0.00    -0.134 SA
HETATM   19  C   UNK N   1      27.287  20.862   5.602  0.00  0.00     0.095 C 
ENDBRANCH  15  18
ENDBRANCH   2  12
TORSDOF 3
ENDMDL
MODEL 4
REMARK VINA RESULT:      -5.7     12.635     14.016
REMARK  3 active torsions:
REMARK  status: ('A' for Active; 'I' for Inactive)
REMARK    1  A    between atoms: S_1  and  C_14 
REMARK    2  A    between atoms: C_6  and  C_8 
REMARK    3  A    between atoms: C_8  and  C_9 
ROOT
HETATM    1  O   UNK N   1      30.539  22.928  -1.335  0.00  0.00    -0.285 OA
HETATM    2  C   UNK N   1      30.376  22.919  -2.548  0.00  0.00     0.210 C 
ENDROOT
BRANCH   2   3
HETATM    3  C   UNK N   1      31.209  21.932  -3.323  0.00  0.00     0.110 A 
HETATM    4  N   UNK N   1      32.374  21.497  -2.796  0.00  0.00    -0.303 N 
HETATM    5  C   UNK N   1      32.870  20.621  -3.701  0.00  0.00     0.325 A 
HETATM    6  H   UNK N   1      32.777  21.761  -1.936  0.00  0.00     0.171 HD
HETATM    7  O   UNK N   1      33.919  20.022  -3.551  0.00  0.00    -0.247 OA
HETATM    8  N   UNK N   1      32.080  20.474  -4.788  0.00  0.00    -0.310 N 
HETATM    9  C   UNK N   1      31.036  21.290  -4.563  0.00  0.00     0.040 A 
HETATM   10  H   UNK N   1      32.235  19.897  -5.571  0.00  0.00     0.170 HD
HETATM   11  C   UNK N   1      29.940  21.399  -5.557  0.00  0.00     0.071 C 
ENDBRANCH   2   3
BRANCH   2  12
HETATM   12  C   UNK N   1      29.344  23.857  -3.094  0.00  0.00     0.016 A 
HETATM   13  C   UNK N   1      29.662  24.951  -3.899  0.00  0.00     0.017 A 
HETATM   14  C   UNK N   1      28.668  25.774  -4.433  0.00  0.00     0.019 A 
HETATM   15  C   UNK N   1      27.324  25.507  -4.170  0.00  0.00    -0.000 A 
HETATM   16  C   UNK N   1      26.983  24.419  -3.361  0.00  0.00     0.019 A 
HETATM   17  C   UNK N   1      27.986  23.607  -2.820  0.00  0.00     0.017 A 
BRANCH  15  18
HETATM   18  S   UNK N   1      26.058  26.510  -4.950  0.00  0.00    -0.134 SA
HETATM   19  C   UNK N   1      25.839  27.620  -3.530  0.00  0.00     0.095 C 
ENDBRANCH  15  18
ENDBRANCH   2  12
TORSDOF 3
ENDMDL
MODEL 5
REMARK VINA RESULT:      -5.7      2.079      2.667
REMARK  3 active torsions:
REMARK  status: ('A' for Active; 'I' for Inactive)
REMARK    1  A    between atoms: S_1  and  C_14 
REMARK    2  A    between atoms: C_6  and  C_8 
REMARK    3  A    between atoms: C_8  and  C_9 
ROOT
HETATM    1  O   UNK N   1      32.244  14.254   8.525  0.00  0.00    -0.285 OA
HETATM    2  C   UNK N   1      32.345  15.474   8.561  0.00  0.00     0.210 C 
ENDROOT
BRANCH   2   3
HETATM    3  C   UNK N   1      33.513  16.020   9.340  0.00  0.00     0.110 A 
HETATM    4  N   UNK N   1      33.939  15.358  10.438  0.00  0.00    -0.303 N 
HETATM    5  C   UNK N   1      34.994  16.072  10.897  0.00  0.00     0.325 A 
HETATM    6  H   UNK N   1      33.564  14.533  10.822  0.00  0.00     0.171 HD
HETATM    7  O   UNK N   1      35.637  15.761  11.882  0.00  0.00    -0.247 OA
HETATM    8  N   UNK N   1      35.265  17.164  10.148  0.00  0.00    -0.310 N 
HETATM    9  C   UNK N   1      34.344  17.142   9.169  0.00  0.00     0.040 A 
HETATM   10  H   UNK N   1      35.978  17.829  10.289  0.00  0.00     0.170 HD
HETATM   11  C   UNK N   1      34.323  18.205   8.134  0.00  0.00     0.071 C 
ENDBRANCH   2   3
BRANCH   2  12
HETATM   12  C   UNK N   1      31.325  16.255   7.794  0.00  0.00     0.016 A 
HETATM   13  C   UNK N   1      31.172  16.152   6.411  0.00  0.00     0.017 A 
HETATM   14  C   UNK N   1      30.174  16.858   5.735  0.00  0.00     0.019 A 
HETATM   15  C   UNK N   1      29.302  17.685   6.442  0.00  0.00    -0.000 A 
HETATM   16  C   UNK N   1      29.441  17.808   7.828  0.00  0.00     0.019 A 
HETATM   17  C   UNK N   1      30.451  17.107   8.496  0.00  0.00     0.017 A 
BRANCH  15  18
HETATM   18  S   UNK N   1      27.962  18.501   5.573  0.00  0.00    -0.134 SA
HETATM   19  C   UNK N   1      27.695  19.767   6.847  0.00  0.00     0.095 C 
ENDBRANCH  15  18
ENDBRANCH   2  12
TORSDOF 3
ENDMDL
MODEL 6
REMARK VINA RESULT:      -5.7     11.327     12.527
REMARK  3 active torsions:
REMARK  status: ('A' for Active; 'I' for Inactive)
REMARK    1  A    between atoms: S_1  and  C_14 
REMARK    2  A    between atoms: C_6  and  C_8 
REMARK    3  A    between atoms: C_8  and  C_9 
ROOT
HETATM    1  O   UNK N   1      19.395  14.168   9.809  0.00  0.00    -0.285 OA
HETATM    2  C   UNK N   1      20.581  14.243   9.513  0.00  0.00     0.210 C 
ENDROOT
BRANCH   2   3
HETATM    3  C   UNK N   1      21.504  13.286  10.221  0.00  0.00     0.110 A 
HETATM    4  N   UNK N   1      22.822  13.304   9.927  0.00  0.00    -0.303 N 
HETATM    5  C   UNK N   1      23.379  12.362  10.726  0.00  0.00     0.325 A 
HETATM    6  H   UNK N   1      23.281  13.879   9.273  0.00  0.00     0.171 HD
HETATM    7  O   UNK N   1      24.568  12.107  10.734  0.00  0.00    -0.247 OA
HETATM    8  N   UNK N   1      22.479  11.737  11.518  0.00  0.00    -0.310 N 
HETATM    9  C   UNK N   1      21.301  12.307  11.211  0.00  0.00     0.040 A 
HETATM   10  H   UNK N   1      22.650  11.022  12.173  0.00  0.00     0.170 HD
HETATM   11  C   UNK N   1      20.056  11.870  11.891  0.00  0.00     0.071 C 
ENDBRANCH   2   3
BRANCH   2  12
HETATM   12  C   UNK N   1      20.949  15.241   8.459  0.00  0.00     0.016 A 
HETATM   13  C   UNK N   1      21.856  14.964   7.435  0.00  0.00     0.017 A 
HETATM   14  C   UNK N   1      22.135  15.902   6.439  0.00  0.00     0.019 A 
HETATM   15  C   UNK N   1      21.500  17.144   6.450  0.00  0.00    -0.000 A 
HETATM   16  C   UNK N   1      20.592  17.444   7.470  0.00  0.00     0.019 A 
HETATM   17  C   UNK N   1      20.327  16.503   8.471  0.00  0.00     0.017 A 
BRANCH  15  18
HETATM   18  S   UNK N   1      21.791  18.294   5.105  0.00  0.00    -0.134 SA
HETATM   19  C   UNK N   1      21.872  17.016   3.819  0.00  0.00     0.095 C 
ENDBRANCH  15  18
ENDBRANCH   2  12
TORSDOF 3
ENDMDL
MODEL 7
REMARK VINA RESULT:      -5.6      7.844     11.349
REMARK  3 active torsions:
REMARK  status: ('A' for Active; 'I' for Inactive)
REMARK    1  A    between atoms: S_1  and  C_14 
REMARK    2  A    between atoms: C_6  and  C_8 
REMARK    3  A    between atoms: C_8  and  C_9 
ROOT
HETATM    1  O   UNK N   1      33.770  11.943  14.775  0.00  0.00    -0.285 OA
HETATM    2  C   UNK N   1      34.849  12.366  15.170  0.00  0.00     0.210 C 
ENDROOT
BRANCH   2   3
HETATM    3  C   UNK N   1      35.540  13.361  14.276  0.00  0.00     0.110 A 
HETATM    4  N   UNK N   1      35.235  13.388  12.961  0.00  0.00    -0.303 N 
HETATM    5  C   UNK N   1      35.991  14.382  12.438  0.00  0.00     0.325 A 
HETATM    6  H   UNK N   1      34.598  12.808  12.483  0.00  0.00     0.171 HD
HETATM    7  O   UNK N   1      35.967  14.697  11.263  0.00  0.00    -0.247 OA
HETATM    8  N   UNK N   1      36.771  14.995  13.356  0.00  0.00    -0.310 N 
HETATM    9  C   UNK N   1      36.498  14.365  14.511  0.00  0.00     0.040 A 
HETATM   10  H   UNK N   1      37.401  15.739  13.210  0.00  0.00     0.170 HD
HETATM   11  C   UNK N   1      37.179  14.769  15.767  0.00  0.00     0.071 C 
ENDBRANCH   2   3
BRANCH   2  12
HETATM   12  C   UNK N   1      35.316  11.873  16.505  0.00  0.00     0.016 A 
HETATM   13  C   UNK N   1      35.019  12.526  17.702  0.00  0.00     0.017 A 
HETATM   14  C   UNK N   1      35.427  12.009  18.933  0.00  0.00     0.019 A 
HETATM   15  C   UNK N   1      36.143  10.813  18.986  0.00  0.00    -0.000 A 
HETATM   16  C   UNK N   1      36.456  10.145  17.799  0.00  0.00     0.019 A 
HETATM   17  C   UNK N   1      36.054  10.676  16.568  0.00  0.00     0.017 A 
BRANCH  15  18
HETATM   18  S   UNK N   1      36.566  10.110  20.581  0.00  0.00    -0.134 SA
HETATM   19  C   UNK N   1      34.854  10.036  21.180  0.00  0.00     0.095 C 
ENDBRANCH  15  18
ENDBRANCH   2  12
TORSDOF 3
ENDMDL
MODEL 8
REMARK VINA RESULT:      -5.6      4.853      7.398
REMARK  3 active torsions:
REMARK  status: ('A' for Active; 'I' for Inactive)
REMARK    1  A    between atoms: S_1  and  C_14 
REMARK    2  A    between atoms: C_6  and  C_8 
REMARK    3  A    between atoms: C_8  and  C_9 
ROOT
HETATM    1  O   UNK N   1      27.881  17.499   8.828  0.00  0.00    -0.285 OA
HETATM    2  C   UNK N   1      28.553  18.078   7.984  0.00  0.00     0.210 C 
ENDROOT
BRANCH   2   3
HETATM    3  C   UNK N   1      27.854  19.165   7.210  0.00  0.00     0.110 A 
HETATM    4  N   UNK N   1      27.120  20.081   7.879  0.00  0.00    -0.303 N 
HETATM    5  C   UNK N   1      26.644  20.920   6.928  0.00  0.00     0.325 A 
HETATM    6  H   UNK N   1      26.965  20.129   8.850  0.00  0.00     0.171 HD
HETATM    7  O   UNK N   1      25.940  21.881   7.173  0.00  0.00    -0.247 OA
HETATM    8  N   UNK N   1      27.035  20.584   5.678  0.00  0.00    -0.310 N 
HETATM    9  C   UNK N   1      27.794  19.486   5.842  0.00  0.00     0.040 A 
HETATM   10  H   UNK N   1      26.813  21.042   4.835  0.00  0.00     0.170 HD
HETATM   11  C   UNK N   1      28.410  18.818   4.669  0.00  0.00     0.071 C 
ENDBRANCH   2   3
BRANCH   2  12
HETATM   12  C   UNK N   1      29.986  17.662   7.865  0.00  0.00     0.016 A 
HETATM   13  C   UNK N   1      31.002  18.200   8.656  0.00  0.00     0.017 A 
HETATM   14  C   UNK N   1      32.320  17.749   8.553  0.00  0.00     0.019 A 
HETATM   15  C   UNK N   1      32.644  16.738   7.649  0.00  0.00    -0.000 A 
HETATM   16  C   UNK N   1      31.643  16.189   6.841  0.00  0.00     0.019 A 
HETATM   17  C   UNK N   1      30.328  16.654   6.943  0.00  0.00     0.017 A 
BRANCH  15  18
HETATM   18  S   UNK N   1      34.320  16.099   7.605  0.00  0.00    -0.134 SA
HETATM   19  C   UNK N   1      34.781  16.754   9.234  0.00  0.00     0.095 C 
ENDBRANCH  15  18
ENDBRANCH   2  12
TORSDOF 3
ENDMDL
MODEL 9
REMARK VINA RESULT:      -5.5     12.179     14.004
REMARK  3 active torsions:
REMARK  status: ('A' for Active; 'I' for Inactive)
REMARK    1  A    between atoms: S_1  and  C_14 
REMARK    2  A    between atoms: C_6  and  C_8 
REMARK    3  A    between atoms: C_8  and  C_9 
ROOT
HETATM    1  O   UNK N   1      21.454  18.419   6.838  0.00  0.00    -0.285 OA
HETATM    2  C   UNK N   1      21.140  17.328   6.381  0.00  0.00     0.210 C 
ENDROOT
BRANCH   2   3
HETATM    3  C   UNK N   1      20.539  17.335   5.000  0.00  0.00     0.110 A 
HETATM    4  N   UNK N   1      20.932  18.277   4.116  0.00  0.00    -0.303 N 
HETATM    5  C   UNK N   1      20.241  18.012   2.982  0.00  0.00     0.325 A 
HETATM    6  H   UNK N   1      21.583  19.001   4.263  0.00  0.00     0.171 HD
HETATM    7  O   UNK N   1      20.351  18.665   1.961  0.00  0.00    -0.247 OA
HETATM    8  N   UNK N   1      19.418  16.946   3.096  0.00  0.00    -0.310 N 
HETATM    9  C   UNK N   1      19.596  16.513   4.356  0.00  0.00     0.040 A 
HETATM   10  H   UNK N   1      18.821  16.570   2.409  0.00  0.00     0.170 HD
HETATM   11  C   UNK N   1      18.844  15.335   4.858  0.00  0.00     0.071 C 
ENDBRANCH   2   3
BRANCH   2  12
HETATM   12  C   UNK N   1      21.436  16.132   7.233  0.00  0.00     0.016 A 
HETATM   13  C   UNK N   1      22.451  15.222   6.937  0.00  0.00     0.017 A 
HETATM   14  C   UNK N   1      22.732  14.147   7.783  0.00  0.00     0.019 A 
HETATM   15  C   UNK N   1      21.995  13.967   8.953  0.00  0.00    -0.000 A 
HETATM   16  C   UNK N   1      20.969  14.864   9.266  0.00  0.00     0.019 A 
HETATM   17  C   UNK N   1      20.686  15.931   8.407  0.00  0.00     0.017 A 
BRANCH  15  18
HETATM   18  S   UNK N   1      22.439  12.643  10.080  0.00  0.00    -0.134 SA
HETATM   19  C   UNK N   1      20.802  12.544  10.859  0.00  0.00     0.095 C 
ENDBRANCH  15  18
ENDBRANCH   2  12
TORSDOF 3
ENDMDL
