MODEL 1
REMARK VINA RESULT:      -5.6      0.000      0.000
REMARK  6 active torsions:
REMARK  status: ('A' for Active; 'I' for Inactive)
REMARK    1  A    between atoms: O_1  and  C_6 
REMARK    2  A    between atoms: O_1  and  C_11 
REMARK    3  A    between atoms: C_3  and  N_2 
REMARK    4  A    between atoms: C_3  and  C_4 
REMARK    5  A    between atoms: C_3  and  C_5 
REMARK    6  A    between atoms: C_4  and  C_6 
ROOT
HETATM    1  C   UNK N   1      31.149  25.534  -5.014  0.00  0.00     0.178 C 
ENDROOT
BRANCH   1   2
HETATM    2  O   UNK N   1      30.453  26.713  -5.106  0.00  0.00    -0.350 OA
BRANCH   2   3
HETATM    3  C   UNK N   1      29.277  26.867  -5.765  0.00  0.00     0.079 A 
HETATM    4  C   UNK N   1      28.084  27.312  -5.136  0.00  0.00     0.007 A 
HETATM    5  C   UNK N   1      26.906  27.452  -5.920  0.00  0.00    -0.023 A 
HETATM    6  C   UNK N   1      28.022  27.591  -3.764  0.00  0.00     0.015 A 
HETATM    7  C   UNK N   1      26.930  27.163  -7.282  0.00  0.00     0.012 A 
HETATM    8  C   UNK N   1      25.715  27.873  -5.323  0.00  0.00     0.012 A 
HETATM    9  C   UNK N   1      28.105  26.716  -7.884  0.00  0.00     0.004 A 
HETATM   10  C   UNK N   1      29.265  26.562  -7.126  0.00  0.00     0.037 A 
HETATM   11  C   UNK N   1      25.672  28.147  -3.956  0.00  0.00     0.001 A 
HETATM   12  C   UNK N   1      26.823  28.005  -3.176  0.00  0.00     0.001 A 
ENDBRANCH   2   3
ENDBRANCH   1   2
BRANCH   1  13
HETATM   13  C   UNK N   1      30.535  24.719  -3.887  0.00  0.00     0.067 C 
BRANCH  13  14
HETATM   14  C   UNK N   1      29.944  23.424  -4.461  0.00  0.00     0.257 C 
BRANCH  14  15
HETATM   15  N   UNK N   1      30.237  22.266  -3.591  0.00  0.00     0.088 N 
HETATM   16  C   UNK N   1      30.473  21.091  -4.419  0.00  0.00     0.310 C 
HETATM   17  C   UNK N   1      31.503  22.486  -2.903  0.00  0.00     0.310 C 
ENDBRANCH  14  15
BRANCH  14  18
HETATM   18  C   UNK N   1      28.468  23.648  -4.714  0.00  0.00    -0.025 A 
HETATM   19  C   UNK N   1      27.949  23.402  -5.995  0.00  0.00     0.009 A 
HETATM   20  C   UNK N   1      26.593  23.607  -6.262  0.00  0.00     0.001 A 
HETATM   21  C   UNK N   1      25.740  24.048  -5.248  0.00  0.00     0.000 A 
HETATM   22  C   UNK N   1      26.244  24.292  -3.968  0.00  0.00     0.001 A 
HETATM   23  C   UNK N   1      27.602  24.098  -3.702  0.00  0.00     0.009 A 
ENDBRANCH  14  18
ENDBRANCH  13  14
ENDBRANCH   1  13
TORSDOF 6
ENDMDL
MODEL 2
REMARK VINA RESULT:      -5.5     20.699     24.829
REMARK  6 active torsions:
REMARK  status: ('A' for Active; 'I' for Inactive)
REMARK    1  A    between atoms: O_1  and  C_6 
REMARK    2  A    between atoms: O_1  and  C_11 
REMARK    3  A    between atoms: C_3  and  N_2 
REMARK    4  A    between atoms: C_3  and  C_4 
REMARK    5  A    between atoms: C_3  and  C_5 
REMARK    6  A    between atoms: C_4  and  C_6 
ROOT
HETATM    1  C   UNK N   1      36.212  14.601  13.582  0.00  0.00     0.178 C 
ENDROOT
BRANCH   1   2
HETATM    2  O   UNK N   1      36.974  14.031  14.572  0.00  0.00    -0.350 OA
BRANCH   2   3
HETATM    3  C   UNK N   1      36.550  13.044  15.400  0.00  0.00     0.079 A 
HETATM    4  C   UNK N   1      37.055  11.717  15.353  0.00  0.00     0.007 A 
HETATM    5  C   UNK N   1      36.552  10.759  16.276  0.00  0.00    -0.023 A 
HETATM    6  C   UNK N   1      38.009  11.315  14.410  0.00  0.00     0.015 A 
HETATM    7  C   UNK N   1      35.587  11.123  17.212  0.00  0.00     0.012 A 
HETATM    8  C   UNK N   1      37.019   9.442  16.241  0.00  0.00     0.012 A 
HETATM    9  C   UNK N   1      35.092  12.425  17.239  0.00  0.00     0.004 A 
HETATM   10  C   UNK N   1      35.566  13.373  16.332  0.00  0.00     0.037 A 
HETATM   11  C   UNK N   1      37.972   9.059  15.295  0.00  0.00     0.001 A 
HETATM   12  C   UNK N   1      38.465   9.993  14.380  0.00  0.00     0.001 A 
ENDBRANCH   2   3
ENDBRANCH   1   2
BRANCH   1  13
HETATM   13  C   UNK N   1      36.495  13.853  12.289  0.00  0.00     0.067 C 
BRANCH  13  14
HETATM   14  C   UNK N   1      35.184  13.268  11.745  0.00  0.00     0.257 C 
BRANCH  14  15
HETATM   15  N   UNK N   1      35.072  13.463  10.285  0.00  0.00     0.088 N 
HETATM   16  C   UNK N   1      33.958  14.359  10.004  0.00  0.00     0.310 C 
HETATM   17  C   UNK N   1      36.246  14.179   9.801  0.00  0.00     0.310 C 
ENDBRANCH  14  15
BRANCH  14  18
HETATM   18  C   UNK N   1      35.094  11.821  12.183  0.00  0.00    -0.025 A 
HETATM   19  C   UNK N   1      35.860  10.855  11.511  0.00  0.00     0.009 A 
HETATM   20  C   UNK N   1      35.793   9.511  11.887  0.00  0.00     0.001 A 
HETATM   21  C   UNK N   1      34.969   9.121  12.945  0.00  0.00     0.000 A 
HETATM   22  C   UNK N   1      34.205  10.074  13.624  0.00  0.00     0.001 A 
HETATM   23  C   UNK N   1      34.263  11.416  13.242  0.00  0.00     0.009 A 
ENDBRANCH  14  18
ENDBRANCH  13  14
ENDBRANCH   1  13
TORSDOF 6
ENDMDL
MODEL 3
REMARK VINA RESULT:      -5.4      2.063      4.051
REMARK  6 active torsions:
REMARK  status: ('A' for Active; 'I' for Inactive)
REMARK    1  A    between atoms: O_1  and  C_6 
REMARK    2  A    between atoms: O_1  and  C_11 
REMARK    3  A    between atoms: C_3  and  N_2 
REMARK    4  A    between atoms: C_3  and  C_4 
REMARK    5  A    between atoms: C_3  and  C_5 
REMARK    6  A    between atoms: C_4  and  C_6 
ROOT
HETATM    1  C   UNK N   1      26.202  25.361  -8.691  0.00  0.00     0.178 C 
ENDROOT
BRANCH   1   2
HETATM    2  O   UNK N   1      26.740  26.501  -8.146  0.00  0.00    -0.350 OA
BRANCH   2   3
HETATM    3  C   UNK N   1      26.547  26.911  -6.868  0.00  0.00     0.079 A 
HETATM    4  C   UNK N   1      27.611  27.196  -5.972  0.00  0.00     0.007 A 
HETATM    5  C   UNK N   1      27.300  27.633  -4.655  0.00  0.00    -0.023 A 
HETATM    6  C   UNK N   1      28.954  27.034  -6.333  0.00  0.00     0.015 A 
HETATM    7  C   UNK N   1      25.973  27.785  -4.259  0.00  0.00     0.012 A 
HETATM    8  C   UNK N   1      28.327  27.905  -3.747  0.00  0.00     0.012 A 
HETATM    9  C   UNK N   1      24.939  27.490  -5.145  0.00  0.00     0.004 A 
HETATM   10  C   UNK N   1      25.228  27.049  -6.436  0.00  0.00     0.037 A 
HETATM   11  C   UNK N   1      29.661  27.739  -4.124  0.00  0.00     0.001 A 
HETATM   12  C   UNK N   1      29.975  27.302  -5.414  0.00  0.00     0.001 A 
ENDBRANCH   2   3
ENDBRANCH   1   2
BRANCH   1  13
HETATM   13  C   UNK N   1      27.062  24.186  -8.253  0.00  0.00     0.067 C 
BRANCH  13  14
HETATM   14  C   UNK N   1      26.308  23.374  -7.191  0.00  0.00     0.257 C 
BRANCH  14  15
HETATM   15  N   UNK N   1      26.230  21.946  -7.560  0.00  0.00     0.088 N 
HETATM   16  C   UNK N   1      24.836  21.577  -7.762  0.00  0.00     0.310 C 
HETATM   17  C   UNK N   1      26.852  21.747  -8.863  0.00  0.00     0.310 C 
ENDBRANCH  14  15
BRANCH  14  18
HETATM   18  C   UNK N   1      26.960  23.631  -5.848  0.00  0.00    -0.025 A 
HETATM   19  C   UNK N   1      28.354  23.514  -5.733  0.00  0.00     0.009 A 
HETATM   20  C   UNK N   1      28.984  23.737  -4.506  0.00  0.00     0.001 A 
HETATM   21  C   UNK N   1      28.229  24.091  -3.386  0.00  0.00     0.000 A 
HETATM   22  C   UNK N   1      26.841  24.214  -3.490  0.00  0.00     0.001 A 
HETATM   23  C   UNK N   1      26.208  23.980  -4.713  0.00  0.00     0.009 A 
ENDBRANCH  14  18
ENDBRANCH  13  14
ENDBRANCH   1  13
TORSDOF 6
ENDMDL
MODEL 4
REMARK VINA RESULT:      -5.3     11.577     13.995
REMARK  6 active torsions:
REMARK  status: ('A' for Active; 'I' for Inactive)
REMARK    1  A    between atoms: O_1  and  C_6 
REMARK    2  A    between atoms: O_1  and  C_11 
REMARK    3  A    between atoms: C_3  and  N_2 
REMARK    4  A    between atoms: C_3  and  C_4 
REMARK    5  A    between atoms: C_3  and  C_5 
REMARK    6  A    between atoms: C_4  and  C_6 
ROOT
HETATM    1  C   UNK N   1      30.579  17.613   8.224  0.00  0.00     0.178 C 
ENDROOT
BRANCH   1   2
HETATM    2  O   UNK N   1      29.440  17.041   7.716  0.00  0.00    -0.350 OA
BRANCH   2   3
HETATM    3  C   UNK N   1      29.013  17.176   6.436  0.00  0.00     0.079 A 
HETATM    4  C   UNK N   1      28.389  18.352   5.942  0.00  0.00     0.007 A 
HETATM    5  C   UNK N   1      27.990  18.397   4.578  0.00  0.00    -0.023 A 
HETATM    6  C   UNK N   1      28.129  19.459   6.761  0.00  0.00     0.015 A 
HETATM    7  C   UNK N   1      28.216  17.305   3.743  0.00  0.00     0.012 A 
HETATM    8  C   UNK N   1      27.359  19.536   4.071  0.00  0.00     0.012 A 
HETATM    9  C   UNK N   1      28.819  16.152   4.244  0.00  0.00     0.004 A 
HETATM   10  C   UNK N   1      29.205  16.089   5.582  0.00  0.00     0.037 A 
HETATM   11  C   UNK N   1      27.109  20.630   4.901  0.00  0.00     0.001 A 
HETATM   12  C   UNK N   1      27.491  20.591   6.245  0.00  0.00     0.001 A 
ENDBRANCH   2   3
ENDBRANCH   1   2
BRANCH   1  13
HETATM   13  C   UNK N   1      31.727  16.643   7.999  0.00  0.00     0.067 C 
BRANCH  13  14
HETATM   14  C   UNK N   1      32.811  17.326   7.154  0.00  0.00     0.257 C 
BRANCH  14  15
HETATM   15  N   UNK N   1      34.148  17.172   7.764  0.00  0.00     0.088 N 
HETATM   16  C   UNK N   1      34.624  18.474   8.211  0.00  0.00     0.310 C 
HETATM   17  C   UNK N   1      34.034  16.388   8.987  0.00  0.00     0.310 C 
ENDBRANCH  14  15
BRANCH  14  18
HETATM   18  C   UNK N   1      32.713  16.795   5.739  0.00  0.00    -0.025 A 
HETATM   19  C   UNK N   1      32.418  17.685   4.694  0.00  0.00     0.009 A 
HETATM   20  C   UNK N   1      32.314  17.224   3.379  0.00  0.00     0.001 A 
HETATM   21  C   UNK N   1      32.514  15.872   3.094  0.00  0.00     0.000 A 
HETATM   22  C   UNK N   1      32.813  14.977   4.125  0.00  0.00     0.001 A 
HETATM   23  C   UNK N   1      32.907  15.435   5.442  0.00  0.00     0.009 A 
ENDBRANCH  14  18
ENDBRANCH  13  14
ENDBRANCH   1  13
TORSDOF 6
ENDMDL
MODEL 5
REMARK VINA RESULT:      -5.2      1.602      3.815
REMARK  6 active torsions:
REMARK  status: ('A' for Active; 'I' for Inactive)
REMARK    1  A    between atoms: O_1  and  C_6 
REMARK    2  A    between atoms: O_1  and  C_11 
REMARK    3  A    between atoms: C_3  and  N_2 
REMARK    4  A    between atoms: C_3  and  C_4 
REMARK    5  A    between atoms: C_3  and  C_5 
REMARK    6  A    between atoms: C_4  and  C_6 
ROOT
HETATM    1  C   UNK N   1      27.573  23.916  -2.607  0.00  0.00     0.178 C 
ENDROOT
BRANCH   1   2
HETATM    2  O   UNK N   1      26.409  24.295  -3.229  0.00  0.00    -0.350 OA
BRANCH   2   3
HETATM    3  C   UNK N   1      26.267  25.408  -3.990  0.00  0.00     0.079 A 
HETATM    4  C   UNK N   1      26.097  25.372  -5.400  0.00  0.00     0.007 A 
HETATM    5  C   UNK N   1      25.944  26.598  -6.104  0.00  0.00    -0.023 A 
HETATM    6  C   UNK N   1      26.104  24.172  -6.121  0.00  0.00     0.015 A 
HETATM    7  C   UNK N   1      25.954  27.809  -5.417  0.00  0.00     0.012 A 
HETATM    8  C   UNK N   1      25.792  26.592  -7.493  0.00  0.00     0.012 A 
HETATM    9  C   UNK N   1      26.134  27.831  -4.035  0.00  0.00     0.004 A 
HETATM   10  C   UNK N   1      26.298  26.638  -3.332  0.00  0.00     0.037 A 
HETATM   11  C   UNK N   1      25.799  25.386  -8.196  0.00  0.00     0.001 A 
HETATM   12  C   UNK N   1      25.957  24.178  -7.513  0.00  0.00     0.001 A 
ENDBRANCH   2   3
ENDBRANCH   1   2
BRANCH   1  13
HETATM   13  C   UNK N   1      28.462  23.256  -3.649  0.00  0.00     0.067 C 
BRANCH  13  14
HETATM   14  C   UNK N   1      29.843  23.927  -3.635  0.00  0.00     0.257 C 
BRANCH  14  15
HETATM   15  N   UNK N   1      30.908  22.976  -4.015  0.00  0.00     0.088 N 
HETATM   16  C   UNK N   1      31.497  22.408  -2.810  0.00  0.00     0.310 C 
HETATM   17  C   UNK N   1      30.315  21.835  -4.702  0.00  0.00     0.310 C 
ENDBRANCH  14  15
BRANCH  14  18
HETATM   18  C   UNK N   1      29.778  25.163  -4.508  0.00  0.00    -0.025 A 
HETATM   19  C   UNK N   1      29.883  26.428  -3.909  0.00  0.00     0.009 A 
HETATM   20  C   UNK N   1      29.819  27.587  -4.685  0.00  0.00     0.001 A 
HETATM   21  C   UNK N   1      29.661  27.494  -6.070  0.00  0.00     0.000 A 
HETATM   22  C   UNK N   1      29.560  26.239  -6.678  0.00  0.00     0.001 A 
HETATM   23  C   UNK N   1      29.612  25.080  -5.901  0.00  0.00     0.009 A 
ENDBRANCH  14  18
ENDBRANCH  13  14
ENDBRANCH   1  13
TORSDOF 6
ENDMDL
MODEL 6
REMARK VINA RESULT:      -5.2      2.010      3.912
REMARK  6 active torsions:
REMARK  status: ('A' for Active; 'I' for Inactive)
REMARK    1  A    between atoms: O_1  and  C_6 
REMARK    2  A    between atoms: O_1  and  C_11 
REMARK    3  A    between atoms: C_3  and  N_2 
REMARK    4  A    between atoms: C_3  and  C_4 
REMARK    5  A    between atoms: C_3  and  C_5 
REMARK    6  A    between atoms: C_4  and  C_6 
ROOT
HETATM    1  C   UNK N   1      26.191  23.909  -6.949  0.00  0.00     0.178 C 
ENDROOT
BRANCH   1   2
HETATM    2  O   UNK N   1      25.844  25.188  -7.308  0.00  0.00    -0.350 OA
BRANCH   2   3
HETATM    3  C   UNK N   1      26.072  26.291  -6.552  0.00  0.00     0.079 A 
HETATM    4  C   UNK N   1      27.012  27.296  -6.904  0.00  0.00     0.007 A 
HETATM    5  C   UNK N   1      27.166  28.421  -6.048  0.00  0.00    -0.023 A 
HETATM    6  C   UNK N   1      27.813  27.201  -8.049  0.00  0.00     0.015 A 
HETATM    7  C   UNK N   1      26.400  28.534  -4.890  0.00  0.00     0.012 A 
HETATM    8  C   UNK N   1      28.096  29.416  -6.361  0.00  0.00     0.012 A 
HETATM    9  C   UNK N   1      25.489  27.534  -4.551  0.00  0.00     0.004 A 
HETATM   10  C   UNK N   1      25.336  26.419  -5.374  0.00  0.00     0.037 A 
HETATM   11  C   UNK N   1      28.884  29.306  -7.508  0.00  0.00     0.001 A 
HETATM   12  C   UNK N   1      28.745  28.200  -8.350  0.00  0.00     0.001 A 
ENDBRANCH   2   3
ENDBRANCH   1   2
BRANCH   1  13
HETATM   13  C   UNK N   1      27.610  23.659  -7.434  0.00  0.00     0.067 C 
BRANCH  13  14
HETATM   14  C   UNK N   1      28.492  23.269  -6.240  0.00  0.00     0.257 C 
BRANCH  14  15
HETATM   15  N   UNK N   1      29.469  22.224  -6.610  0.00  0.00     0.088 N 
HETATM   16  C   UNK N   1      29.852  21.480  -5.418  0.00  0.00     0.310 C 
HETATM   17  C   UNK N   1      28.820  21.236  -7.463  0.00  0.00     0.310 C 
ENDBRANCH  14  15
BRANCH  14  18
HETATM   18  C   UNK N   1      29.119  24.530  -5.683  0.00  0.00    -0.025 A 
HETATM   19  C   UNK N   1      30.156  25.150  -6.397  0.00  0.00     0.009 A 
HETATM   20  C   UNK N   1      30.760  26.311  -5.906  0.00  0.00     0.001 A 
HETATM   21  C   UNK N   1      30.326  26.869  -4.702  0.00  0.00     0.000 A 
HETATM   22  C   UNK N   1      29.291  26.262  -3.984  0.00  0.00     0.001 A 
HETATM   23  C   UNK N   1      28.694  25.096  -4.468  0.00  0.00     0.009 A 
ENDBRANCH  14  18
ENDBRANCH  13  14
ENDBRANCH   1  13
TORSDOF 6
ENDMDL
MODEL 7
REMARK VINA RESULT:      -5.1      1.053      2.749
REMARK  6 active torsions:
REMARK  status: ('A' for Active; 'I' for Inactive)
REMARK    1  A    between atoms: O_1  and  C_6 
REMARK    2  A    between atoms: O_1  and  C_11 
REMARK    3  A    between atoms: C_3  and  N_2 
REMARK    4  A    between atoms: C_3  and  C_4 
REMARK    5  A    between atoms: C_3  and  C_5 
REMARK    6  A    between atoms: C_4  and  C_6 
ROOT
HETATM    1  C   UNK N   1      30.048  26.347  -4.611  0.00  0.00     0.178 C 
ENDROOT
BRANCH   1   2
HETATM    2  O   UNK N   1      29.182  27.409  -4.531  0.00  0.00    -0.350 OA
BRANCH   2   3
HETATM    3  C   UNK N   1      27.872  27.366  -4.879  0.00  0.00     0.079 A 
HETATM    4  C   UNK N   1      27.421  26.961  -6.164  0.00  0.00     0.007 A 
HETATM    5  C   UNK N   1      26.023  26.938  -6.424  0.00  0.00    -0.023 A 
HETATM    6  C   UNK N   1      28.307  26.612  -7.191  0.00  0.00     0.015 A 
HETATM    7  C   UNK N   1      25.117  27.300  -5.430  0.00  0.00     0.012 A 
HETATM    8  C   UNK N   1      25.552  26.560  -7.684  0.00  0.00     0.012 A 
HETATM    9  C   UNK N   1      25.574  27.706  -4.177  0.00  0.00     0.004 A 
HETATM   10  C   UNK N   1      26.942  27.746  -3.911  0.00  0.00     0.037 A 
HETATM   11  C   UNK N   1      26.450  26.214  -8.695  0.00  0.00     0.001 A 
HETATM   12  C   UNK N   1      27.825  26.241  -8.450  0.00  0.00     0.001 A 
ENDBRANCH   2   3
ENDBRANCH   1   2
BRANCH   1  13
HETATM   13  C   UNK N   1      29.500  25.234  -3.731  0.00  0.00     0.067 C 
BRANCH  13  14
HETATM   14  C   UNK N   1      29.634  23.894  -4.467  0.00  0.00     0.257 C 
BRANCH  14  15
HETATM   15  N   UNK N   1      30.083  22.821  -3.556  0.00  0.00     0.088 N 
HETATM   16  C   UNK N   1      31.537  22.743  -3.585  0.00  0.00     0.310 C 
HETATM   17  C   UNK N   1      29.765  23.190  -2.182  0.00  0.00     0.310 C 
ENDBRANCH  14  15
BRANCH  14  18
HETATM   18  C   UNK N   1      28.321  23.604  -5.164  0.00  0.00    -0.025 A 
HETATM   19  C   UNK N   1      27.119  23.935  -4.521  0.00  0.00     0.009 A 
HETATM   20  C   UNK N   1      25.891  23.674  -5.134  0.00  0.00     0.001 A 
HETATM   21  C   UNK N   1      25.853  23.088  -6.401  0.00  0.00     0.000 A 
HETATM   22  C   UNK N   1      27.044  22.757  -7.054  0.00  0.00     0.001 A 
HETATM   23  C   UNK N   1      28.272  23.008  -6.437  0.00  0.00     0.009 A 
ENDBRANCH  14  18
ENDBRANCH  13  14
ENDBRANCH   1  13
TORSDOF 6
ENDMDL
MODEL 8
REMARK VINA RESULT:      -5.1     16.749     18.898
REMARK  6 active torsions:
REMARK  status: ('A' for Active; 'I' for Inactive)
REMARK    1  A    between atoms: O_1  and  C_6 
REMARK    2  A    between atoms: O_1  and  C_11 
REMARK    3  A    between atoms: C_3  and  N_2 
REMARK    4  A    between atoms: C_3  and  C_4 
REMARK    5  A    between atoms: C_3  and  C_5 
REMARK    6  A    between atoms: C_4  and  C_6 
ROOT
HETATM    1  C   UNK N   1      20.709  13.933   9.788  0.00  0.00     0.178 C 
ENDROOT
BRANCH   1   2
HETATM    2  O   UNK N   1      20.164  14.089   8.538  0.00  0.00    -0.350 OA
BRANCH   2   3
HETATM    3  C   UNK N   1      20.845  14.517   7.446  0.00  0.00     0.079 A 
HETATM    4  C   UNK N   1      21.032  13.723   6.283  0.00  0.00     0.007 A 
HETATM    5  C   UNK N   1      21.752  14.272   5.187  0.00  0.00    -0.023 A 
HETATM    6  C   UNK N   1      20.554  12.410   6.192  0.00  0.00     0.015 A 
HETATM    7  C   UNK N   1      22.257  15.568   5.255  0.00  0.00     0.012 A 
HETATM    8  C   UNK N   1      21.964  13.507   4.037  0.00  0.00     0.012 A 
HETATM    9  C   UNK N   1      22.078  16.331   6.407  0.00  0.00     0.004 A 
HETATM   10  C   UNK N   1      21.384  15.803   7.495  0.00  0.00     0.037 A 
HETATM   11  C   UNK N   1      21.480  12.200   3.962  0.00  0.00     0.001 A 
HETATM   12  C   UNK N   1      20.778  11.651   5.038  0.00  0.00     0.001 A 
ENDBRANCH   2   3
ENDBRANCH   1   2
BRANCH   1  13
HETATM   13  C   UNK N   1      21.325  12.544   9.856  0.00  0.00     0.067 C 
BRANCH  13  14
HETATM   14  C   UNK N   1      22.841  12.672  10.057  0.00  0.00     0.257 C 
BRANCH  14  15
HETATM   15  N   UNK N   1      23.327  11.742  11.097  0.00  0.00     0.088 N 
HETATM   16  C   UNK N   1      24.729  12.024  11.376  0.00  0.00     0.310 C 
HETATM   17  C   UNK N   1      22.644  12.022  12.354  0.00  0.00     0.310 C 
ENDBRANCH  14  15
BRANCH  14  18
HETATM   18  C   UNK N   1      23.513  12.498   8.711  0.00  0.00    -0.025 A 
HETATM   19  C   UNK N   1      24.265  13.558   8.181  0.00  0.00     0.009 A 
HETATM   20  C   UNK N   1      24.891  13.432   6.938  0.00  0.00     0.001 A 
HETATM   21  C   UNK N   1      24.781  12.241   6.218  0.00  0.00     0.000 A 
HETATM   22  C   UNK N   1      24.038  11.176   6.737  0.00  0.00     0.001 A 
HETATM   23  C   UNK N   1      23.403  11.306   7.974  0.00  0.00     0.009 A 
ENDBRANCH  14  18
ENDBRANCH  13  14
ENDBRANCH   1  13
TORSDOF 6
ENDMDL
MODEL 9
REMARK VINA RESULT:      -5.1     11.824     13.518
REMARK  6 active torsions:
REMARK  status: ('A' for Active; 'I' for Inactive)
REMARK    1  A    between atoms: O_1  and  C_6 
REMARK    2  A    between atoms: O_1  and  C_11 
REMARK    3  A    between atoms: C_3  and  N_2 
REMARK    4  A    between atoms: C_3  and  C_4 
REMARK    5  A    between atoms: C_3  and  C_5 
REMARK    6  A    between atoms: C_4  and  C_6 
ROOT
HETATM    1  C   UNK N   1      30.361  16.344   4.115  0.00  0.00     0.178 C 
ENDROOT
BRANCH   1   2
HETATM    2  O   UNK N   1      29.500  17.135   3.395  0.00  0.00    -0.350 OA
BRANCH   2   3
HETATM    3  C   UNK N   1      28.167  17.232   3.625  0.00  0.00     0.079 A 
HETATM    4  C   UNK N   1      27.565  18.355   4.254  0.00  0.00     0.007 A 
HETATM    5  C   UNK N   1      26.155  18.363   4.437  0.00  0.00    -0.023 A 
HETATM    6  C   UNK N   1      28.316  19.438   4.725  0.00  0.00     0.015 A 
HETATM    7  C   UNK N   1      25.382  17.291   3.999  0.00  0.00     0.012 A 
HETATM    8  C   UNK N   1      25.538  19.448   5.068  0.00  0.00     0.012 A 
HETATM    9  C   UNK N   1      25.987  16.191   3.394  0.00  0.00     0.004 A 
HETATM   10  C   UNK N   1      27.370  16.162   3.218  0.00  0.00     0.037 A 
HETATM   11  C   UNK N   1      26.303  20.520   5.530  0.00  0.00     0.001 A 
HETATM   12  C   UNK N   1      27.690  20.516   5.361  0.00  0.00     0.001 A 
ENDBRANCH   2   3
ENDBRANCH   1   2
BRANCH   1  13
HETATM   13  C   UNK N   1      31.151  17.248   5.048  0.00  0.00     0.067 C 
BRANCH  13  14
HETATM   14  C   UNK N   1      31.315  16.554   6.407  0.00  0.00     0.257 C 
BRANCH  14  15
HETATM   15  N   UNK N   1      32.729  16.534   6.835  0.00  0.00     0.088 N 
HETATM   16  C   UNK N   1      33.281  15.205   6.609  0.00  0.00     0.310 C 
HETATM   17  C   UNK N   1      33.510  17.404   5.965  0.00  0.00     0.310 C 
ENDBRANCH  14  15
BRANCH  14  18
HETATM   18  C   UNK N   1      30.381  17.221   7.395  0.00  0.00    -0.025 A 
HETATM   19  C   UNK N   1      28.996  17.041   7.252  0.00  0.00     0.009 A 
HETATM   20  C   UNK N   1      28.107  17.649   8.143  0.00  0.00     0.001 A 
HETATM   21  C   UNK N   1      28.594  18.433   9.191  0.00  0.00     0.000 A 
HETATM   22  C   UNK N   1      29.971  18.616   9.345  0.00  0.00     0.001 A 
HETATM   23  C   UNK N   1      30.860  18.018   8.449  0.00  0.00     0.009 A 
ENDBRANCH  14  18
ENDBRANCH  13  14
ENDBRANCH   1  13
TORSDOF 6
ENDMDL
