MODEL 1
REMARK VINA RESULT:      -7.9      0.000      0.000
REMARK  3 active torsions:
REMARK  status: ('A' for Active; 'I' for Inactive)
REMARK    1  A    between atoms: C_7  and  O_3 
REMARK    2  A    between atoms: C_18  and  C_21 
REMARK    3  A    between atoms: C_21  and  C_26 
ROOT
HETATM    1  O   UNK N   1      27.031  23.867  -7.401  0.00  0.00    -0.344 OA
HETATM    2  O   UNK N   1      30.145  20.294  -6.882  0.00  0.00    -0.335 OA
HETATM    3  O   UNK N   1      29.367  23.356  -3.269  0.00  0.00    -0.274 OA
HETATM    4  O   UNK N   1      30.404  23.174  -1.336  0.00  0.00    -0.260 OA
HETATM    5  C   UNK N   1      26.914  25.739  -5.920  0.00  0.00     0.044 C 
HETATM    6  C   UNK N   1      27.509  24.898  -4.786  0.00  0.00     0.163 C 
HETATM    7  C   UNK N   1      26.187  24.852  -6.926  0.00  0.00     0.131 C 
HETATM    8  C   UNK N   1      28.209  23.658  -5.315  0.00  0.00     0.040 A 
HETATM    9  C   UNK N   1      27.932  23.211  -6.623  0.00  0.00     0.094 A 
HETATM   10  C   UNK N   1      28.584  22.080  -7.130  0.00  0.00     0.032 A 
HETATM   11  C   UNK N   1      29.131  22.949  -4.517  0.00  0.00     0.104 A 
HETATM   12  C   UNK N   1      29.826  21.829  -5.044  0.00  0.00     0.040 A 
HETATM   13  C   UNK N   1      29.533  21.391  -6.360  0.00  0.00     0.097 A 
HETATM   14  C   UNK N   1      25.989  26.799  -5.341  0.00  0.00     0.015 C 
HETATM   15  C   UNK N   1      29.895  19.734  -8.131  0.00  0.00     0.078 A 
HETATM   16  C   UNK N   1      25.689  25.669  -8.106  0.00  0.00     0.040 C 
HETATM   17  C   UNK N   1      30.800  21.206  -4.219  0.00  0.00    -0.036 A 
HETATM   18  C   UNK N   1      28.274  21.587  -8.478  0.00  0.00     0.016 A 
HETATM   19  C   UNK N   1      28.872  20.490  -8.946  0.00  0.00     0.012 A 
HETATM   20  C   UNK N   1      31.189  19.692  -8.915  0.00  0.00     0.051 C 
HETATM   21  C   UNK N   1      29.406  18.314  -7.933  0.00  0.00     0.051 C 
HETATM   22  C   UNK N   1      31.000  21.689  -2.927  0.00  0.00     0.090 A 
HETATM   23  C   UNK N   1      30.246  22.764  -2.471  0.00  0.00     0.288 A 
ENDROOT
BRANCH  17  24
HETATM   24  C   UNK N   1      31.686  20.095  -4.703  0.00  0.00     0.039 C 
BRANCH  24  25
HETATM   25  C   UNK N   1      33.125  20.528  -4.887  0.00  0.00     0.000 C 
HETATM   26  C   UNK N   1      33.996  19.726  -3.942  0.00  0.00     0.005 C 
ENDBRANCH  24  25
ENDBRANCH  17  24
BRANCH   6  27
HETATM   27  O   UNK N   1      28.406  25.708  -4.084  0.00  0.00    -0.390 OA
HETATM   28  H   UNK N   1      29.183  25.527  -3.533  0.00  0.00     0.210 HD
ENDBRANCH   6  27
TORSDOF 3
ENDMDL
MODEL 2
REMARK VINA RESULT:      -7.5      1.697      4.458
REMARK  3 active torsions:
REMARK  status: ('A' for Active; 'I' for Inactive)
REMARK    1  A    between atoms: C_7  and  O_3 
REMARK    2  A    between atoms: C_18  and  C_21 
REMARK    3  A    between atoms: C_21  and  C_26 
ROOT
HETATM    1  O   UNK N   1      28.041  25.771  -4.303  0.00  0.00    -0.344 OA
HETATM    2  O   UNK N   1      30.940  22.048  -4.983  0.00  0.00    -0.335 OA
HETATM    3  O   UNK N   1      27.030  22.588  -7.714  0.00  0.00    -0.274 OA
HETATM    4  O   UNK N   1      26.510  21.163  -9.308  0.00  0.00    -0.260 OA
HETATM    5  C   UNK N   1      25.833  25.904  -5.206  0.00  0.00     0.044 C 
HETATM    6  C   UNK N   1      26.224  24.954  -6.343  0.00  0.00     0.163 C 
HETATM    7  C   UNK N   1      27.054  26.657  -4.688  0.00  0.00     0.131 C 
HETATM    8  C   UNK N   1      27.484  24.174  -6.012  0.00  0.00     0.040 A 
HETATM    9  C   UNK N   1      28.332  24.631  -4.983  0.00  0.00     0.094 A 
HETATM   10  C   UNK N   1      29.487  23.911  -4.655  0.00  0.00     0.032 A 
HETATM   11  C   UNK N   1      27.817  23.000  -6.720  0.00  0.00     0.104 A 
HETATM   12  C   UNK N   1      28.965  22.244  -6.360  0.00  0.00     0.040 A 
HETATM   13  C   UNK N   1      29.808  22.720  -5.324  0.00  0.00     0.097 A 
HETATM   14  C   UNK N   1      24.751  26.861  -5.687  0.00  0.00     0.015 C 
HETATM   15  C   UNK N   1      31.875  22.448  -4.033  0.00  0.00     0.078 A 
HETATM   16  C   UNK N   1      26.688  27.520  -3.490  0.00  0.00     0.040 C 
HETATM   17  C   UNK N   1      29.203  21.030  -7.057  0.00  0.00    -0.036 A 
HETATM   18  C   UNK N   1      30.395  24.400  -3.609  0.00  0.00     0.016 A 
HETATM   19  C   UNK N   1      31.512  23.730  -3.322  0.00  0.00     0.012 A 
HETATM   20  C   UNK N   1      32.014  21.353  -2.996  0.00  0.00     0.051 C 
HETATM   21  C   UNK N   1      33.212  22.633  -4.721  0.00  0.00     0.051 C 
HETATM   22  C   UNK N   1      28.333  20.657  -8.081  0.00  0.00     0.090 A 
HETATM   23  C   UNK N   1      27.257  21.476  -8.401  0.00  0.00     0.288 A 
ENDROOT
BRANCH  17  24
HETATM   24  C   UNK N   1      30.307  20.084  -6.688  0.00  0.00     0.039 C 
BRANCH  24  25
HETATM   25  C   UNK N   1      31.333  19.919  -7.790  0.00  0.00     0.000 C 
HETATM   26  C   UNK N   1      32.707  19.819  -7.160  0.00  0.00     0.005 C 
ENDBRANCH  24  25
ENDBRANCH  17  24
BRANCH   6  27
HETATM   27  O   UNK N   1      25.149  24.087  -6.558  0.00  0.00    -0.390 OA
HETATM   28  H   UNK N   1      24.691  23.771  -7.352  0.00  0.00     0.210 HD
ENDBRANCH   6  27
TORSDOF 3
ENDMDL
MODEL 3
REMARK VINA RESULT:      -7.2     22.648     26.285
REMARK  3 active torsions:
REMARK  status: ('A' for Active; 'I' for Inactive)
REMARK    1  A    between atoms: C_7  and  O_3 
REMARK    2  A    between atoms: C_18  and  C_21 
REMARK    3  A    between atoms: C_21  and  C_26 
ROOT
HETATM    1  O   UNK N   1      36.472  10.287  13.553  0.00  0.00    -0.344 OA
HETATM    2  O   UNK N   1      35.815   8.719  18.007  0.00  0.00    -0.335 OA
HETATM    3  O   UNK N   1      35.531  13.411  17.038  0.00  0.00    -0.274 OA
HETATM    4  O   UNK N   1      35.093  14.904  18.595  0.00  0.00    -0.260 OA
HETATM    5  C   UNK N   1      36.868  12.579  13.008  0.00  0.00     0.044 C 
HETATM    6  C   UNK N   1      36.137  13.024  14.279  0.00  0.00     0.163 C 
HETATM    7  C   UNK N   1      36.360  11.219  12.540  0.00  0.00     0.131 C 
HETATM    8  C   UNK N   1      36.027  11.893  15.286  0.00  0.00     0.040 A 
HETATM    9  C   UNK N   1      36.215  10.563  14.859  0.00  0.00     0.094 A 
HETATM   10  C   UNK N   1      36.135   9.512  15.781  0.00  0.00     0.032 A 
HETATM   11  C   UNK N   1      35.740  12.155  16.642  0.00  0.00     0.104 A 
HETATM   12  C   UNK N   1      35.701  11.095  17.587  0.00  0.00     0.040 A 
HETATM   13  C   UNK N   1      35.890   9.763  17.139  0.00  0.00     0.097 A 
HETATM   14  C   UNK N   1      36.705  13.637  11.926  0.00  0.00     0.015 C 
HETATM   15  C   UNK N   1      35.918   7.371  17.677  0.00  0.00     0.078 A 
HETATM   16  C   UNK N   1      37.157  10.727  11.343  0.00  0.00     0.040 C 
HETATM   17  C   UNK N   1      35.487  11.431  18.950  0.00  0.00    -0.036 A 
HETATM   18  C   UNK N   1      36.293   8.121  15.336  0.00  0.00     0.016 A 
HETATM   19  C   UNK N   1      36.183   7.120  16.212  0.00  0.00     0.012 A 
HETATM   20  C   UNK N   1      37.049   6.759  18.476  0.00  0.00     0.051 C 
HETATM   21  C   UNK N   1      34.626   6.680  18.063  0.00  0.00     0.051 C 
HETATM   22  C   UNK N   1      35.284  12.767  19.293  0.00  0.00     0.090 A 
HETATM   23  C   UNK N   1      35.292  13.739  18.301  0.00  0.00     0.288 A 
ENDROOT
BRANCH  17  24
HETATM   24  C   UNK N   1      35.548  10.419  20.057  0.00  0.00     0.039 C 
BRANCH  24  25
HETATM   25  C   UNK N   1      34.316  10.435  20.937  0.00  0.00     0.000 C 
HETATM   26  C   UNK N   1      33.407   9.299  20.518  0.00  0.00     0.005 C 
ENDBRANCH  24  25
ENDBRANCH  17  24
BRANCH   6  27
HETATM   27  O   UNK N   1      36.847  14.099  14.821  0.00  0.00    -0.390 OA
HETATM   28  H   UNK N   1      36.911  15.041  14.597  0.00  0.00     0.210 HD
ENDBRANCH   6  27
TORSDOF 3
ENDMDL
MODEL 4
REMARK VINA RESULT:      -7.1      2.372      7.332
REMARK  3 active torsions:
REMARK  status: ('A' for Active; 'I' for Inactive)
REMARK    1  A    between atoms: C_7  and  O_3 
REMARK    2  A    between atoms: C_18  and  C_21 
REMARK    3  A    between atoms: C_21  and  C_26 
ROOT
HETATM    1  O   UNK N   1      31.679  23.570  -4.244  0.00  0.00    -0.344 OA
HETATM    2  O   UNK N   1      28.898  27.427  -4.592  0.00  0.00    -0.335 OA
HETATM    3  O   UNK N   1      27.248  23.135  -5.968  0.00  0.00    -0.274 OA
HETATM    4  O   UNK N   1      25.215  22.863  -6.764  0.00  0.00    -0.260 OA
HETATM    5  C   UNK N   1      31.205  21.501  -5.341  0.00  0.00     0.044 C 
HETATM    6  C   UNK N   1      29.710  21.833  -5.355  0.00  0.00     0.163 C 
HETATM    7  C   UNK N   1      31.905  22.209  -4.185  0.00  0.00     0.131 C 
HETATM    8  C   UNK N   1      29.463  23.316  -5.143  0.00  0.00     0.040 A 
HETATM    9  C   UNK N   1      30.487  24.118  -4.599  0.00  0.00     0.094 A 
HETATM   10  C   UNK N   1      30.279  25.491  -4.415  0.00  0.00     0.032 A 
HETATM   11  C   UNK N   1      28.226  23.902  -5.483  0.00  0.00     0.104 A 
HETATM   12  C   UNK N   1      28.028  25.301  -5.339  0.00  0.00     0.040 A 
HETATM   13  C   UNK N   1      29.068  26.092  -4.787  0.00  0.00     0.097 A 
HETATM   14  C   UNK N   1      31.395  19.993  -5.267  0.00  0.00     0.015 C 
HETATM   15  C   UNK N   1      29.816  28.291  -4.003  0.00  0.00     0.078 A 
HETATM   16  C   UNK N   1      33.405  21.968  -4.232  0.00  0.00     0.040 C 
HETATM   17  C   UNK N   1      26.790  25.842  -5.774  0.00  0.00    -0.036 A 
HETATM   18  C   UNK N   1      31.327  26.326  -3.814  0.00  0.00     0.016 A 
HETATM   19  C   UNK N   1      31.114  27.627  -3.610  0.00  0.00     0.012 A 
HETATM   20  C   UNK N   1      30.129  29.407  -4.976  0.00  0.00     0.051 C 
HETATM   21  C   UNK N   1      29.184  28.894  -2.765  0.00  0.00     0.051 C 
HETATM   22  C   UNK N   1      25.815  24.982  -6.278  0.00  0.00     0.090 A 
HETATM   23  C   UNK N   1      26.072  23.618  -6.345  0.00  0.00     0.288 A 
ENDROOT
BRANCH  17  24
HETATM   24  C   UNK N   1      26.507  27.316  -5.790  0.00  0.00     0.039 C 
BRANCH  24  25
HETATM   25  C   UNK N   1      25.272  27.687  -4.996  0.00  0.00     0.000 C 
HETATM   26  C   UNK N   1      25.660  27.835  -3.539  0.00  0.00     0.005 C 
ENDBRANCH  24  25
ENDBRANCH  17  24
BRANCH   6  27
HETATM   27  O   UNK N   1      29.196  21.419  -6.587  0.00  0.00    -0.390 OA
HETATM   28  H   UNK N   1      28.349  21.554  -7.040  0.00  0.00     0.210 HD
ENDBRANCH   6  27
TORSDOF 3
ENDMDL
MODEL 5
REMARK VINA RESULT:      -7.0     11.340     15.486
REMARK  3 active torsions:
REMARK  status: ('A' for Active; 'I' for Inactive)
REMARK    1  A    between atoms: C_7  and  O_3 
REMARK    2  A    between atoms: C_18  and  C_21 
REMARK    3  A    between atoms: C_21  and  C_26 
ROOT
HETATM    1  O   UNK N   1      32.991  15.658   9.336  0.00  0.00    -0.344 OA
HETATM    2  O   UNK N   1      29.471  17.399   6.632  0.00  0.00    -0.335 OA
HETATM    3  O   UNK N   1      33.433  15.628   4.582  0.00  0.00    -0.274 OA
HETATM    4  O   UNK N   1      33.698  15.577   2.398  0.00  0.00    -0.260 OA
HETATM    5  C   UNK N   1      35.193  15.226   8.514  0.00  0.00     0.044 C 
HETATM    6  C   UNK N   1      34.645  15.041   7.096  0.00  0.00     0.163 C 
HETATM    7  C   UNK N   1      34.125  14.900   9.553  0.00  0.00     0.131 C 
HETATM    8  C   UNK N   1      33.262  15.651   6.946  0.00  0.00     0.040 A 
HETATM    9  C   UNK N   1      32.503  15.941   8.099  0.00  0.00     0.094 A 
HETATM   10  C   UNK N   1      31.234  16.520   7.976  0.00  0.00     0.032 A 
HETATM   11  C   UNK N   1      32.727  15.932   5.672  0.00  0.00     0.104 A 
HETATM   12  C   UNK N   1      31.459  16.560   5.546  0.00  0.00     0.040 A 
HETATM   13  C   UNK N   1      30.708  16.841   6.716  0.00  0.00     0.097 A 
HETATM   14  C   UNK N   1      36.433  14.364   8.700  0.00  0.00     0.015 C 
HETATM   15  C   UNK N   1      28.618  17.662   7.700  0.00  0.00     0.078 A 
HETATM   16  C   UNK N   1      34.632  15.185  10.957  0.00  0.00     0.040 C 
HETATM   17  C   UNK N   1      31.010  16.889   4.240  0.00  0.00    -0.036 A 
HETATM   18  C   UNK N   1      30.423  16.790   9.170  0.00  0.00     0.016 A 
HETATM   19  C   UNK N   1      29.201  17.311   9.048  0.00  0.00     0.012 A 
HETATM   20  C   UNK N   1      28.275  19.136   7.699  0.00  0.00     0.051 C 
HETATM   21  C   UNK N   1      27.341  16.870   7.501  0.00  0.00     0.051 C 
HETATM   22  C   UNK N   1      31.804  16.548   3.146  0.00  0.00     0.090 A 
HETATM   23  C   UNK N   1      33.013  15.894   3.352  0.00  0.00     0.288 A 
ENDROOT
BRANCH  17  24
HETATM   24  C   UNK N   1      29.750  17.663   3.983  0.00  0.00     0.039 C 
BRANCH  24  25
HETATM   25  C   UNK N   1      28.646  16.810   3.393  0.00  0.00     0.000 C 
HETATM   26  C   UNK N   1      27.311  17.407   3.788  0.00  0.00     0.005 C 
ENDBRANCH  24  25
ENDBRANCH  17  24
BRANCH   6  27
HETATM   27  O   UNK N   1      35.546  15.641   6.212  0.00  0.00    -0.390 OA
HETATM   28  H   UNK N   1      36.426  16.035   6.317  0.00  0.00     0.210 HD
ENDBRANCH   6  27
TORSDOF 3
ENDMDL
MODEL 6
REMARK VINA RESULT:      -7.0     10.966     13.625
REMARK  3 active torsions:
REMARK  status: ('A' for Active; 'I' for Inactive)
REMARK    1  A    between atoms: C_7  and  O_3 
REMARK    2  A    between atoms: C_18  and  C_21 
REMARK    3  A    between atoms: C_21  and  C_26 
ROOT
HETATM    1  O   UNK N   1      26.599  16.487   5.105  0.00  0.00    -0.344 OA
HETATM    2  O   UNK N   1      30.351  17.260   7.943  0.00  0.00    -0.335 OA
HETATM    3  O   UNK N   1      31.008  16.314   3.283  0.00  0.00    -0.274 OA
HETATM    4  O   UNK N   1      33.012  16.228   2.377  0.00  0.00    -0.260 OA
HETATM    5  C   UNK N   1      26.770  15.516   2.928  0.00  0.00     0.044 C 
HETATM    6  C   UNK N   1      28.213  16.015   2.803  0.00  0.00     0.163 C 
HETATM    7  C   UNK N   1      25.972  16.405   3.877  0.00  0.00     0.131 C 
HETATM    8  C   UNK N   1      28.805  16.364   4.157  0.00  0.00     0.040 A 
HETATM    9  C   UNK N   1      27.947  16.574   5.256  0.00  0.00     0.094 A 
HETATM   10  C   UNK N   1      28.480  16.879   6.514  0.00  0.00     0.032 A 
HETATM   11  C   UNK N   1      30.200  16.482   4.331  0.00  0.00     0.104 A 
HETATM   12  C   UNK N   1      30.745  16.747   5.615  0.00  0.00     0.040 A 
HETATM   13  C   UNK N   1      29.867  16.958   6.708  0.00  0.00     0.097 A 
HETATM   14  C   UNK N   1      26.128  15.454   1.551  0.00  0.00     0.015 C 
HETATM   15  C   UNK N   1      29.591  17.549   9.072  0.00  0.00     0.078 A 
HETATM   16  C   UNK N   1      24.572  15.851   4.087  0.00  0.00     0.040 C 
HETATM   17  C   UNK N   1      32.159  16.774   5.741  0.00  0.00    -0.036 A 
HETATM   18  C   UNK N   1      27.591  17.135   7.654  0.00  0.00     0.016 A 
HETATM   19  C   UNK N   1      28.101  17.457   8.845  0.00  0.00     0.012 A 
HETATM   20  C   UNK N   1      29.964  16.579  10.173  0.00  0.00     0.051 C 
HETATM   21  C   UNK N   1      29.927  18.953   9.532  0.00  0.00     0.051 C 
HETATM   22  C   UNK N   1      32.943  16.583   4.604  0.00  0.00     0.090 A 
HETATM   23  C   UNK N   1      32.330  16.373   3.375  0.00  0.00     0.288 A 
ENDROOT
BRANCH  17  24
HETATM   24  C   UNK N   1      32.856  16.921   7.062  0.00  0.00     0.039 C 
BRANCH  24  25
HETATM   25  C   UNK N   1      34.039  17.863   7.002  0.00  0.00     0.000 C 
HETATM   26  C   UNK N   1      34.484  18.172   8.417  0.00  0.00     0.005 C 
ENDBRANCH  24  25
ENDBRANCH  17  24
BRANCH   6  27
HETATM   27  O   UNK N   1      28.957  15.006   2.185  0.00  0.00    -0.390 OA
HETATM   28  H   UNK N   1      29.066  14.721   1.265  0.00  0.00     0.210 HD
ENDBRANCH   6  27
TORSDOF 3
ENDMDL
MODEL 7
REMARK VINA RESULT:      -7.0      1.562      5.651
REMARK  3 active torsions:
REMARK  status: ('A' for Active; 'I' for Inactive)
REMARK    1  A    between atoms: C_7  and  O_3 
REMARK    2  A    between atoms: C_18  and  C_21 
REMARK    3  A    between atoms: C_21  and  C_26 
ROOT
HETATM    1  O   UNK N   1      31.095  20.931  -7.865  0.00  0.00    -0.344 OA
HETATM    2  O   UNK N   1      27.305  23.586  -6.719  0.00  0.00    -0.335 OA
HETATM    3  O   UNK N   1      30.521  22.400  -3.359  0.00  0.00    -0.274 OA
HETATM    4  O   UNK N   1      30.320  23.050  -1.266  0.00  0.00    -0.260 OA
HETATM    5  C   UNK N   1      32.481  19.845  -6.248  0.00  0.00     0.044 C 
HETATM    6  C   UNK N   1      32.093  20.886  -5.194  0.00  0.00     0.163 C 
HETATM    7  C   UNK N   1      32.365  20.430  -7.653  0.00  0.00     0.131 C 
HETATM    8  C   UNK N   1      30.826  21.629  -5.579  0.00  0.00     0.040 A 
HETATM    9  C   UNK N   1      30.385  21.599  -6.918  0.00  0.00     0.094 A 
HETATM   10  C   UNK N   1      29.208  22.264  -7.284  0.00  0.00     0.032 A 
HETATM   11  C   UNK N   1      30.084  22.347  -4.618  0.00  0.00     0.104 A 
HETATM   12  C   UNK N   1      28.867  22.985  -4.977  0.00  0.00     0.040 A 
HETATM   13  C   UNK N   1      28.441  22.948  -6.329  0.00  0.00     0.097 A 
HETATM   14  C   UNK N   1      33.887  19.335  -5.972  0.00  0.00     0.015 C 
HETATM   15  C   UNK N   1      26.821  23.674  -8.021  0.00  0.00     0.078 A 
HETATM   16  C   UNK N   1      32.646  19.369  -8.705  0.00  0.00     0.040 C 
HETATM   17  C   UNK N   1      28.126  23.624  -3.948  0.00  0.00    -0.036 A 
HETATM   18  C   UNK N   1      28.763  22.269  -8.683  0.00  0.00     0.016 A 
HETATM   19  C   UNK N   1      27.659  22.931  -9.035  0.00  0.00     0.012 A 
HETATM   20  C   UNK N   1      25.418  23.108  -8.059  0.00  0.00     0.051 C 
HETATM   21  C   UNK N   1      26.762  25.136  -8.416  0.00  0.00     0.051 C 
HETATM   22  C   UNK N   1      28.639  23.634  -2.652  0.00  0.00     0.090 A 
HETATM   23  C   UNK N   1      29.860  23.023  -2.392  0.00  0.00     0.288 A 
ENDROOT
BRANCH  17  24
HETATM   24  C   UNK N   1      26.770  24.225  -4.176  0.00  0.00     0.039 C 
BRANCH  24  25
HETATM   25  C   UNK N   1      26.735  25.716  -3.913  0.00  0.00     0.000 C 
HETATM   26  C   UNK N   1      25.827  26.366  -4.936  0.00  0.00     0.005 C 
ENDBRANCH  24  25
ENDBRANCH  17  24
BRANCH   6  27
HETATM   27  O   UNK N   1      31.920  20.214  -3.980  0.00  0.00    -0.390 OA
HETATM   28  H   UNK N   1      31.509  19.371  -3.733  0.00  0.00     0.210 HD
ENDBRANCH   6  27
TORSDOF 3
ENDMDL
MODEL 8
REMARK VINA RESULT:      -6.9     11.427     13.155
REMARK  3 active torsions:
REMARK  status: ('A' for Active; 'I' for Inactive)
REMARK    1  A    between atoms: C_7  and  O_3 
REMARK    2  A    between atoms: C_18  and  C_21 
REMARK    3  A    between atoms: C_21  and  C_26 
ROOT
HETATM    1  O   UNK N   1      27.800  15.506   3.454  0.00  0.00    -0.344 OA
HETATM    2  O   UNK N   1      32.145  15.277   5.402  0.00  0.00    -0.335 OA
HETATM    3  O   UNK N   1      28.626  17.657   7.635  0.00  0.00    -0.274 OA
HETATM    4  O   UNK N   1      28.936  18.664   9.567  0.00  0.00    -0.260 OA
HETATM    5  C   UNK N   1      26.117  17.047   4.163  0.00  0.00     0.044 C 
HETATM    6  C   UNK N   1      26.749  17.120   5.556  0.00  0.00     0.163 C 
HETATM    7  C   UNK N   1      26.435  15.713   3.495  0.00  0.00     0.131 C 
HETATM    8  C   UNK N   1      28.185  16.625   5.547  0.00  0.00     0.040 A 
HETATM    9  C   UNK N   1      28.640  15.839   4.469  0.00  0.00     0.094 A 
HETATM   10  C   UNK N   1      29.967  15.391   4.439  0.00  0.00     0.032 A 
HETATM   11  C   UNK N   1      29.068  16.940   6.601  0.00  0.00     0.104 A 
HETATM   12  C   UNK N   1      30.425  16.525   6.551  0.00  0.00     0.040 A 
HETATM   13  C   UNK N   1      30.865  15.732   5.461  0.00  0.00     0.097 A 
HETATM   14  C   UNK N   1      24.617  17.274   4.268  0.00  0.00     0.015 C 
HETATM   15  C   UNK N   1      32.674  14.444   4.420  0.00  0.00     0.078 A 
HETATM   16  C   UNK N   1      25.901  15.681   2.072  0.00  0.00     0.040 C 
HETATM   17  C   UNK N   1      31.284  16.941   7.603  0.00  0.00    -0.036 A 
HETATM   18  C   UNK N   1      30.438  14.541   3.338  0.00  0.00     0.016 A 
HETATM   19  C   UNK N   1      31.693  14.089   3.328  0.00  0.00     0.012 A 
HETATM   20  C   UNK N   1      33.863  15.132   3.785  0.00  0.00     0.051 C 
HETATM   21  C   UNK N   1      33.152  13.166   5.080  0.00  0.00     0.051 C 
HETATM   22  C   UNK N   1      30.755  17.696   8.649  0.00  0.00     0.090 A 
HETATM   23  C   UNK N   1      29.405  18.023   8.644  0.00  0.00     0.288 A 
ENDROOT
BRANCH  17  24
HETATM   24  C   UNK N   1      32.760  16.672   7.602  0.00  0.00     0.039 C 
BRANCH  24  25
HETATM   25  C   UNK N   1      33.571  17.843   7.086  0.00  0.00     0.000 C 
HETATM   26  C   UNK N   1      34.489  18.320   8.192  0.00  0.00     0.005 C 
ENDBRANCH  24  25
ENDBRANCH  17  24
BRANCH   6  27
HETATM   27  O   UNK N   1      26.690  18.451   5.979  0.00  0.00    -0.390 OA
HETATM   28  H   UNK N   1      27.018  18.921   6.761  0.00  0.00     0.210 HD
ENDBRANCH   6  27
TORSDOF 3
ENDMDL
MODEL 9
REMARK VINA RESULT:      -6.9      1.576      6.606
REMARK  3 active torsions:
REMARK  status: ('A' for Active; 'I' for Inactive)
REMARK    1  A    between atoms: C_7  and  O_3 
REMARK    2  A    between atoms: C_18  and  C_21 
REMARK    3  A    between atoms: C_21  and  C_26 
ROOT
HETATM    1  O   UNK N   1      30.811  20.307  -7.461  0.00  0.00    -0.344 OA
HETATM    2  O   UNK N   1      29.107  23.490  -4.347  0.00  0.00    -0.335 OA
HETATM    3  O   UNK N   1      26.501  22.231  -8.177  0.00  0.00    -0.274 OA
HETATM    4  O   UNK N   1      24.505  23.074  -8.563  0.00  0.00    -0.260 OA
HETATM    5  C   UNK N   1      29.886  19.967  -9.638  0.00  0.00     0.044 C 
HETATM    6  C   UNK N   1      28.524  20.477  -9.156  0.00  0.00     0.163 C 
HETATM    7  C   UNK N   1      30.685  19.381  -8.478  0.00  0.00     0.131 C 
HETATM    8  C   UNK N   1      28.648  21.275  -7.870  0.00  0.00     0.040 A 
HETATM    9  C   UNK N   1      29.813  21.150  -7.085  0.00  0.00     0.094 A 
HETATM   10  C   UNK N   1      29.948  21.893  -5.907  0.00  0.00     0.032 A 
HETATM   11  C   UNK N   1      27.615  22.139  -7.450  0.00  0.00     0.104 A 
HETATM   12  C   UNK N   1      27.768  22.927  -6.278  0.00  0.00     0.040 A 
HETATM   13  C   UNK N   1      28.945  22.786  -5.500  0.00  0.00     0.097 A 
HETATM   14  C   UNK N   1      29.688  18.947 -10.749  0.00  0.00     0.015 C 
HETATM   15  C   UNK N   1      30.183  23.389  -3.471  0.00  0.00     0.078 A 
HETATM   16  C   UNK N   1      32.077  18.973  -8.932  0.00  0.00     0.040 C 
HETATM   17  C   UNK N   1      26.728  23.836  -5.951  0.00  0.00    -0.036 A 
HETATM   18  C   UNK N   1      31.142  21.740  -5.065  0.00  0.00     0.016 A 
HETATM   19  C   UNK N   1      31.253  22.425  -3.926  0.00  0.00     0.012 A 
HETATM   20  C   UNK N   1      30.812  24.757  -3.312  0.00  0.00     0.051 C 
HETATM   21  C   UNK N   1      29.664  22.939  -2.121  0.00  0.00     0.051 C 
HETATM   22  C   UNK N   1      25.594  23.886  -6.761  0.00  0.00     0.090 A 
HETATM   23  C   UNK N   1      25.503  23.048  -7.866  0.00  0.00     0.288 A 
ENDROOT
BRANCH  17  24
HETATM   24  C   UNK N   1      26.825  24.809  -4.813  0.00  0.00     0.039 C 
BRANCH  24  25
HETATM   25  C   UNK N   1      25.892  25.991  -4.968  0.00  0.00     0.000 C 
HETATM   26  C   UNK N   1      26.068  26.906  -3.773  0.00  0.00     0.005 C 
ENDBRANCH  24  25
ENDBRANCH  17  24
BRANCH   6  27
HETATM   27  O   UNK N   1      27.983  21.266 -10.175  0.00  0.00    -0.390 OA
HETATM   28  H   UNK N   1      27.927  22.222 -10.324  0.00  0.00     0.210 HD
ENDBRANCH   6  27
TORSDOF 3
ENDMDL
