MODEL 1
REMARK VINA RESULT:      -5.8      0.000      0.000
REMARK  3 active torsions:
REMARK  status: ('A' for Active; 'I' for Inactive)
REMARK    1  A    between atoms: O_3  and  C_7 
REMARK    2  A    between atoms: O_3  and  C_12 
REMARK    3  A    between atoms: C_7  and  C_8 
ROOT
HETATM    1  O   UNK N   1      34.807  13.178  14.804  0.00  0.00    -0.335 OA
ENDROOT
BRANCH   1   2
HETATM    2  C   UNK N   1      35.951  13.666  14.203  0.00  0.00     0.191 C 
HETATM    3  C   UNK N   1      36.964  12.548  13.993  0.00  0.00     0.048 C 
BRANCH   2   4
HETATM    4  C   UNK N   1      35.614  14.280  12.878  0.00  0.00     0.102 A 
HETATM    5  N   UNK N   1      34.620  13.781  12.044  0.00  0.00    -0.376 N 
HETATM    6  C   UNK N   1      34.546  14.613  10.871  0.00  0.00     0.140 A 
HETATM    7  H   UNK N   1      34.060  12.992  12.224  0.00  0.00     0.160 HD
HETATM    8  C   UNK N   1      35.646  15.675  11.127  0.00  0.00     0.140 A 
HETATM    9  N   UNK N   1      36.193  15.310  12.415  0.00  0.00    -0.376 N 
ATOM     10  HN  UNK N   1      36.944  15.812  12.888  1.00  0.00     0.160 HD
ENDBRANCH   2   4
ENDBRANCH   1   2
BRANCH   1  11
HETATM   11  C   UNK N   1      34.853  12.220  15.760  0.00  0.00     0.113 A 
HETATM   12  C   UNK N   1      34.502  10.897  15.438  0.00  0.00     0.069 A 
HETATM   13 Cl   UNK N   1      34.005  10.468  13.810  0.00  0.00    -0.081 Cl
HETATM   14  C   UNK N   1      34.551   9.902  16.417  0.00  0.00     0.027 A 
HETATM   15  C   UNK N   1      34.940  10.216  17.721  0.00  0.00     0.003 A 
HETATM   16  C   UNK N   1      35.278  11.529  18.052  0.00  0.00     0.027 A 
HETATM   17  C   UNK N   1      35.239  12.533  17.078  0.00  0.00     0.069 A 
HETATM   18 Cl   UNK N   1      35.652  14.177  17.539  0.00  0.00    -0.081 Cl
ENDBRANCH   1  11
TORSDOF 3
ENDMDL
MODEL 2
REMARK VINA RESULT:      -5.8      0.184      2.301
REMARK  3 active torsions:
REMARK  status: ('A' for Active; 'I' for Inactive)
REMARK    1  A    between atoms: O_3  and  C_7 
REMARK    2  A    between atoms: O_3  and  C_12 
REMARK    3  A    between atoms: C_7  and  C_8 
ROOT
HETATM    1  O   UNK N   1      34.804  13.179  14.977  0.00  0.00    -0.335 OA
ENDROOT
BRANCH   1   2
HETATM    2  C   UNK N   1      35.950  13.678  14.391  0.00  0.00     0.191 C 
HETATM    3  C   UNK N   1      37.012  12.592  14.277  0.00  0.00     0.048 C 
BRANCH   2   4
HETATM    4  C   UNK N   1      35.640  14.209  13.025  0.00  0.00     0.102 A 
HETATM    5  N   UNK N   1      34.669  13.653  12.200  0.00  0.00    -0.376 N 
HETATM    6  C   UNK N   1      34.616  14.411  10.978  0.00  0.00     0.140 A 
HETATM    7  H   UNK N   1      34.109  12.872  12.415  0.00  0.00     0.160 HD
HETATM    8  C   UNK N   1      35.703  15.495  11.193  0.00  0.00     0.140 A 
HETATM    9  N   UNK N   1      36.224  15.213  12.512  0.00  0.00    -0.376 N 
ATOM     10  HN  UNK N   1      36.961  15.748  12.971  1.00  0.00     0.160 HD
ENDBRANCH   2   4
ENDBRANCH   1   2
BRANCH   1  11
HETATM   11  C   UNK N   1      34.846  12.196  15.907  0.00  0.00     0.113 A 
HETATM   12  C   UNK N   1      35.194  12.505  17.234  0.00  0.00     0.069 A 
HETATM   13 Cl   UNK N   1      35.572  14.154  17.705  0.00  0.00    -0.081 Cl
HETATM   14  C   UNK N   1      35.236  11.497  18.201  0.00  0.00     0.027 A 
HETATM   15  C   UNK N   1      34.943  10.177  17.854  0.00  0.00     0.003 A 
HETATM   16  C   UNK N   1      34.610   9.859  16.536  0.00  0.00     0.027 A 
HETATM   17  C   UNK N   1      34.558  10.860  15.561  0.00  0.00     0.069 A 
HETATM   18 Cl   UNK N   1      34.155  10.417  13.910  0.00  0.00    -0.081 Cl
ENDBRANCH   1  11
TORSDOF 3
ENDMDL
MODEL 3
REMARK VINA RESULT:      -5.5      6.180      9.677
REMARK  3 active torsions:
REMARK  status: ('A' for Active; 'I' for Inactive)
REMARK    1  A    between atoms: O_3  and  C_7 
REMARK    2  A    between atoms: O_3  and  C_12 
REMARK    3  A    between atoms: C_7  and  C_8 
ROOT
HETATM    1  O   UNK N   1      31.519  16.550   8.679  0.00  0.00    -0.335 OA
ENDROOT
BRANCH   1   2
HETATM    2  C   UNK N   1      32.845  16.778   8.366  0.00  0.00     0.191 C 
HETATM    3  C   UNK N   1      33.075  18.250   8.047  0.00  0.00     0.048 C 
BRANCH   2   4
HETATM    4  C   UNK N   1      33.721  16.380   9.515  0.00  0.00     0.102 A 
HETATM    5  N   UNK N   1      33.561  15.187  10.210  0.00  0.00    -0.376 N 
HETATM    6  C   UNK N   1      34.572  15.112  11.231  0.00  0.00     0.140 A 
HETATM    7  H   UNK N   1      32.872  14.506  10.034  0.00  0.00     0.160 HD
HETATM    8  C   UNK N   1      35.353  16.439  11.046  0.00  0.00     0.140 A 
HETATM    9  N   UNK N   1      34.686  17.087   9.939  0.00  0.00    -0.376 N 
ATOM     10  HN  UNK N   1      34.953  17.991   9.551  1.00  0.00     0.160 HD
ENDBRANCH   2   4
ENDBRANCH   1   2
BRANCH   1  11
HETATM   11  C   UNK N   1      30.513  16.937   7.860  0.00  0.00     0.113 A 
HETATM   12  C   UNK N   1      29.663  17.988   8.247  0.00  0.00     0.069 A 
HETATM   13 Cl   UNK N   1      29.890  18.810   9.783  0.00  0.00    -0.081 Cl
HETATM   14  C   UNK N   1      28.626  18.397   7.406  0.00  0.00     0.027 A 
HETATM   15  C   UNK N   1      28.421  17.759   6.181  0.00  0.00     0.003 A 
HETATM   16  C   UNK N   1      29.252  16.706   5.794  0.00  0.00     0.027 A 
HETATM   17  C   UNK N   1      30.298  16.292   6.625  0.00  0.00     0.069 A 
HETATM   18 Cl   UNK N   1      31.309  14.951   6.112  0.00  0.00    -0.081 Cl
ENDBRANCH   1  11
TORSDOF 3
ENDMDL
MODEL 4
REMARK VINA RESULT:      -5.5      6.168      9.434
REMARK  3 active torsions:
REMARK  status: ('A' for Active; 'I' for Inactive)
REMARK    1  A    between atoms: O_3  and  C_7 
REMARK    2  A    between atoms: O_3  and  C_12 
REMARK    3  A    between atoms: C_7  and  C_8 
ROOT
HETATM    1  O   UNK N   1      31.538  16.548   8.693  0.00  0.00    -0.335 OA
ENDROOT
BRANCH   1   2
HETATM    2  C   UNK N   1      32.863  16.782   8.381  0.00  0.00     0.191 C 
HETATM    3  C   UNK N   1      33.089  18.256   8.070  0.00  0.00     0.048 C 
BRANCH   2   4
HETATM    4  C   UNK N   1      33.740  16.380   9.526  0.00  0.00     0.102 A 
HETATM    5  N   UNK N   1      33.585  15.182  10.214  0.00  0.00    -0.376 N 
HETATM    6  C   UNK N   1      34.597  15.104  11.234  0.00  0.00     0.140 A 
HETATM    7  H   UNK N   1      32.898  14.499  10.033  0.00  0.00     0.160 HD
HETATM    8  C   UNK N   1      35.373  16.434  11.057  0.00  0.00     0.140 A 
HETATM    9  N   UNK N   1      34.703  17.087   9.955  0.00  0.00    -0.376 N 
ATOM     10  HN  UNK N   1      34.967  17.995   9.573  1.00  0.00     0.160 HD
ENDBRANCH   2   4
ENDBRANCH   1   2
BRANCH   1  11
HETATM   11  C   UNK N   1      30.530  16.941   7.879  0.00  0.00     0.113 A 
HETATM   12  C   UNK N   1      30.344  16.302   6.641  0.00  0.00     0.069 A 
HETATM   13 Cl   UNK N   1      31.401  14.993   6.135  0.00  0.00    -0.081 Cl
HETATM   14  C   UNK N   1      29.304  16.698   5.796  0.00  0.00     0.027 A 
HETATM   15  C   UNK N   1      28.451  17.738   6.171  0.00  0.00     0.003 A 
HETATM   16  C   UNK N   1      28.637  18.387   7.393  0.00  0.00     0.027 A 
HETATM   17  C   UNK N   1      29.670  17.994   8.250  0.00  0.00     0.069 A 
HETATM   18 Cl   UNK N   1      29.884  18.849   9.769  0.00  0.00    -0.081 Cl
ENDBRANCH   1  11
TORSDOF 3
ENDMDL
MODEL 5
REMARK VINA RESULT:      -5.2      6.784     10.368
REMARK  3 active torsions:
REMARK  status: ('A' for Active; 'I' for Inactive)
REMARK    1  A    between atoms: O_3  and  C_7 
REMARK    2  A    between atoms: O_3  and  C_12 
REMARK    3  A    between atoms: C_7  and  C_8 
ROOT
HETATM    1  O   UNK N   1      32.149  16.406   7.146  0.00  0.00    -0.335 OA
ENDROOT
BRANCH   1   2
HETATM    2  C   UNK N   1      32.594  17.417   7.975  0.00  0.00     0.191 C 
HETATM    3  C   UNK N   1      31.421  18.096   8.670  0.00  0.00     0.048 C 
BRANCH   2   4
HETATM    4  C   UNK N   1      33.525  16.862   9.009  0.00  0.00     0.102 A 
HETATM    5  N   UNK N   1      33.299  15.654   9.660  0.00  0.00    -0.376 N 
HETATM    6  C   UNK N   1      34.388  15.412  10.569  0.00  0.00     0.140 A 
HETATM    7  H   UNK N   1      32.525  15.062   9.521  0.00  0.00     0.160 HD
HETATM    8  C   UNK N   1      35.291  16.657  10.370  0.00  0.00     0.140 A 
HETATM    9  N   UNK N   1      34.598  17.436   9.368  0.00  0.00    -0.376 N 
ATOM     10  HN  UNK N   1      34.927  18.327   8.999  1.00  0.00     0.160 HD
ENDBRANCH   2   4
ENDBRANCH   1   2
BRANCH   1  11
HETATM   11  C   UNK N   1      32.174  16.523   5.797  0.00  0.00     0.113 A 
HETATM   12  C   UNK N   1      31.018  16.934   5.111  0.00  0.00     0.069 A 
HETATM   13 Cl   UNK N   1      29.538  17.302   5.981  0.00  0.00    -0.081 Cl
HETATM   14  C   UNK N   1      31.036  17.061   3.720  0.00  0.00     0.027 A 
HETATM   15  C   UNK N   1      32.199  16.772   3.003  0.00  0.00     0.003 A 
HETATM   16  C   UNK N   1      33.347  16.350   3.675  0.00  0.00     0.027 A 
HETATM   17  C   UNK N   1      33.343  16.226   5.068  0.00  0.00     0.069 A 
HETATM   18 Cl   UNK N   1      34.801  15.673   5.875  0.00  0.00    -0.081 Cl
ENDBRANCH   1  11
TORSDOF 3
ENDMDL
MODEL 6
REMARK VINA RESULT:      -5.2      6.787     10.425
REMARK  3 active torsions:
REMARK  status: ('A' for Active; 'I' for Inactive)
REMARK    1  A    between atoms: O_3  and  C_7 
REMARK    2  A    between atoms: O_3  and  C_12 
REMARK    3  A    between atoms: C_7  and  C_8 
ROOT
HETATM    1  O   UNK N   1      32.158  16.382   7.142  0.00  0.00    -0.335 OA
ENDROOT
BRANCH   1   2
HETATM    2  C   UNK N   1      32.609  17.384   7.979  0.00  0.00     0.191 C 
HETATM    3  C   UNK N   1      31.440  18.070   8.674  0.00  0.00     0.048 C 
BRANCH   2   4
HETATM    4  C   UNK N   1      33.532  16.814   9.013  0.00  0.00     0.102 A 
HETATM    5  N   UNK N   1      34.699  17.452   9.419  0.00  0.00    -0.376 N 
HETATM    6  C   UNK N   1      35.332  16.648  10.430  0.00  0.00     0.140 A 
HETATM    7  H   UNK N   1      35.036  18.310   9.073  0.00  0.00     0.160 HD
HETATM    8  C   UNK N   1      34.375  15.436  10.562  0.00  0.00     0.140 A 
HETATM    9  N   UNK N   1      33.321  15.716   9.613  0.00  0.00    -0.376 N 
ATOM     10  HN  UNK N   1      32.516  15.113   9.447  1.00  0.00     0.160 HD
ENDBRANCH   2   4
ENDBRANCH   1   2
BRANCH   1  11
HETATM   11  C   UNK N   1      32.174  16.513   5.795  0.00  0.00     0.113 A 
HETATM   12  C   UNK N   1      33.346  16.209   5.079  0.00  0.00     0.069 A 
HETATM   13 Cl   UNK N   1      34.791  15.657   5.910  0.00  0.00    -0.081 Cl
HETATM   14  C   UNK N   1      33.370  16.337   3.688  0.00  0.00     0.027 A 
HETATM   15  C   UNK N   1      32.236  16.776   3.002  0.00  0.00     0.003 A 
HETATM   16  C   UNK N   1      31.073  17.093   3.706  0.00  0.00     0.027 A 
HETATM   17  C   UNK N   1      31.035  16.962   5.099  0.00  0.00     0.069 A 
HETATM   18 Cl   UNK N   1      29.559  17.390   5.950  0.00  0.00    -0.081 Cl
ENDBRANCH   1  11
TORSDOF 3
ENDMDL
MODEL 7
REMARK VINA RESULT:      -5.1     16.257     18.510
REMARK  3 active torsions:
REMARK  status: ('A' for Active; 'I' for Inactive)
REMARK    1  A    between atoms: O_3  and  C_7 
REMARK    2  A    between atoms: O_3  and  C_12 
REMARK    3  A    between atoms: C_7  and  C_8 
ROOT
HETATM    1  O   UNK N   1      43.222  23.461   2.034  0.00  0.00    -0.335 OA
ENDROOT
BRANCH   1   2
HETATM    2  C   UNK N   1      44.340  23.242   1.252  0.00  0.00     0.191 C 
HETATM    3  C   UNK N   1      43.961  23.183  -0.222  0.00  0.00     0.048 C 
BRANCH   2   4
HETATM    4  C   UNK N   1      45.337  24.340   1.461  0.00  0.00     0.102 A 
HETATM    5  N   UNK N   1      45.209  25.298   2.461  0.00  0.00    -0.376 N 
HETATM    6  C   UNK N   1      46.341  26.184   2.393  0.00  0.00     0.140 A 
HETATM    7  H   UNK N   1      44.469  25.359   3.107  0.00  0.00     0.160 HD
HETATM    8  C   UNK N   1      47.157  25.619   1.203  0.00  0.00     0.140 A 
HETATM    9  N   UNK N   1      46.384  24.481   0.757  0.00  0.00    -0.376 N 
ATOM     10  HN  UNK N   1      46.644  23.872  -0.018  1.00  0.00     0.160 HD
ENDBRANCH   2   4
ENDBRANCH   1   2
BRANCH   1  11
HETATM   11  C   UNK N   1      42.364  22.463   2.351  0.00  0.00     0.113 A 
HETATM   12  C   UNK N   1      41.068  22.457   1.805  0.00  0.00     0.069 A 
HETATM   13 Cl   UNK N   1      40.546  23.729   0.712  0.00  0.00    -0.081 Cl
HETATM   14  C   UNK N   1      40.177  21.429   2.124  0.00  0.00     0.027 A 
HETATM   15  C   UNK N   1      40.565  20.407   2.993  0.00  0.00     0.003 A 
HETATM   16  C   UNK N   1      41.845  20.412   3.550  0.00  0.00     0.027 A 
HETATM   17  C   UNK N   1      42.748  21.433   3.232  0.00  0.00     0.069 A 
HETATM   18 Cl   UNK N   1      44.342  21.414   3.969  0.00  0.00    -0.081 Cl
ENDBRANCH   1  11
TORSDOF 3
ENDMDL
MODEL 8
REMARK VINA RESULT:      -5.0     16.116     17.946
REMARK  3 active torsions:
REMARK  status: ('A' for Active; 'I' for Inactive)
REMARK    1  A    between atoms: O_3  and  C_7 
REMARK    2  A    between atoms: O_3  and  C_12 
REMARK    3  A    between atoms: C_7  and  C_8 
ROOT
HETATM    1  O   UNK N   1      43.686  22.223   2.065  0.00  0.00    -0.335 OA
ENDROOT
BRANCH   1   2
HETATM    2  C   UNK N   1      44.210  23.078   3.015  0.00  0.00     0.191 C 
HETATM    3  C   UNK N   1      45.124  22.323   3.971  0.00  0.00     0.048 C 
BRANCH   2   4
HETATM    4  C   UNK N   1      44.988  24.172   2.350  0.00  0.00     0.102 A 
HETATM    5  N   UNK N   1      44.466  24.960   1.331  0.00  0.00    -0.376 N 
HETATM    6  C   UNK N   1      45.464  25.918   0.935  0.00  0.00     0.140 A 
HETATM    7  H   UNK N   1      43.564  24.878   0.945  0.00  0.00     0.160 HD
HETATM    8  C   UNK N   1      46.659  25.580   1.862  0.00  0.00     0.140 A 
HETATM    9  N   UNK N   1      46.178  24.479   2.667  0.00  0.00    -0.376 N 
ATOM     10  HN  UNK N   1      46.721  24.012   3.393  1.00  0.00     0.160 HD
ENDBRANCH   2   4
ENDBRANCH   1   2
BRANCH   1  11
HETATM   11  C   UNK N   1      42.528  21.551   2.268  0.00  0.00     0.113 A 
HETATM   12  C   UNK N   1      42.564  20.209   2.684  0.00  0.00     0.069 A 
HETATM   13 Cl   UNK N   1      44.094  19.389   2.949  0.00  0.00    -0.081 Cl
HETATM   14  C   UNK N   1      41.373  19.510   2.899  0.00  0.00     0.027 A 
HETATM   15  C   UNK N   1      40.143  20.136   2.693  0.00  0.00     0.003 A 
HETATM   16  C   UNK N   1      40.098  21.465   2.267  0.00  0.00     0.027 A 
HETATM   17  C   UNK N   1      41.283  22.177   2.055  0.00  0.00     0.069 A 
HETATM   18 Cl   UNK N   1      41.185  23.840   1.500  0.00  0.00    -0.081 Cl
ENDBRANCH   1  11
TORSDOF 3
ENDMDL
MODEL 9
REMARK VINA RESULT:      -5.0     24.389     26.342
REMARK  3 active torsions:
REMARK  status: ('A' for Active; 'I' for Inactive)
REMARK    1  A    between atoms: O_3  and  C_7 
REMARK    2  A    between atoms: O_3  and  C_12 
REMARK    3  A    between atoms: C_7  and  C_8 
ROOT
HETATM    1  O   UNK N   1      26.043  25.764  -5.921  0.00  0.00    -0.335 OA
ENDROOT
BRANCH   1   2
HETATM    2  C   UNK N   1      26.695  24.637  -5.457  0.00  0.00     0.191 C 
HETATM    3  C   UNK N   1      26.277  24.327  -4.026  0.00  0.00     0.048 C 
BRANCH   2   4
HETATM    4  C   UNK N   1      26.375  23.462  -6.329  0.00  0.00     0.102 A 
HETATM    5  N   UNK N   1      25.088  22.957  -6.476  0.00  0.00    -0.376 N 
HETATM    6  C   UNK N   1      25.131  21.849  -7.392  0.00  0.00     0.140 A 
HETATM    7  H   UNK N   1      24.281  23.300  -6.028  0.00  0.00     0.160 HD
HETATM    8  C   UNK N   1      26.634  21.763  -7.764  0.00  0.00     0.140 A 
HETATM    9  N   UNK N   1      27.242  22.840  -7.015  0.00  0.00    -0.376 N 
ATOM     10  HN  UNK N   1      28.236  23.069  -7.034  1.00  0.00     0.160 HD
ENDBRANCH   2   4
ENDBRANCH   1   2
BRANCH   1  11
HETATM   11  C   UNK N   1      26.670  26.959  -6.028  0.00  0.00     0.113 A 
HETATM   12  C   UNK N   1      27.457  27.235  -7.159  0.00  0.00     0.069 A 
HETATM   13 Cl   UNK N   1      27.638  26.049  -8.441  0.00  0.00    -0.081 Cl
HETATM   14  C   UNK N   1      28.103  28.468  -7.279  0.00  0.00     0.027 A 
HETATM   15  C   UNK N   1      27.979  29.429  -6.274  0.00  0.00     0.003 A 
HETATM   16  C   UNK N   1      27.210  29.158  -5.140  0.00  0.00     0.027 A 
HETATM   17  C   UNK N   1      26.553  27.929  -5.012  0.00  0.00     0.069 A 
HETATM   18 Cl   UNK N   1      25.611  27.619  -3.563  0.00  0.00    -0.081 Cl
ENDBRANCH   1  11
TORSDOF 3
ENDMDL
