MODEL 1
REMARK VINA RESULT:      -6.2      0.000      0.000
REMARK  15 active torsions:
REMARK  status: ('A' for Active; 'I' for Inactive)
REMARK    1  A    between atoms: O_4  and  C_20 
REMARK    2  A    between atoms: O_6  and  C_23 
REMARK    3  A    between atoms: N_8  and  C_10 
REMARK    4  A    between atoms: N_8  and  C_13 
REMARK       I    between atoms: N_8  and  C_14 
REMARK    5  A    between atoms: C_11  and  N_9 
REMARK       I    between atoms: N_9  and  C_22 
REMARK    6  A    between atoms: C_10  and  C_12 
REMARK    7  A    between atoms: C_11  and  C_14 
REMARK    8  A    between atoms: C_11  and  C_15 
REMARK    9  A    between atoms: C_12  and  C_16 
REMARK   10  A    between atoms: C_13  and  C_17 
REMARK   11  A    between atoms: C_15  and  C_19 
REMARK   12  A    between atoms: C_16  and  C_18 
REMARK   13  A    between atoms: C_17  and  C_20 
REMARK   14  A    between atoms: C_19  and  C_23 
REMARK   15  A    between atoms: C_22  and  C_24 
ROOT
HETATM    1  C   UNK N   1      21.523  18.078   4.679  0.00  0.00     0.177 C 
ENDROOT
BRANCH   1   2
HETATM    2  N   UNK N   1      22.968  18.072   4.715  0.00  0.00    -0.344 N 
HETATM    3  C   UNK N   1      23.796  17.208   4.083  0.00  0.00     0.252 C 
HETATM    4  O   UNK N   1      23.351  16.278   3.427  0.00  0.00    -0.268 OA
HETATM    5  H   UNK N   1      23.396  18.773   5.257  0.00  0.00     0.163 HD
BRANCH   3   6
HETATM    6  C   UNK N   1      25.250  17.429   4.196  0.00  0.00     0.033 A 
HETATM    7  C   UNK N   1      25.777  18.665   4.594  0.00  0.00     0.042 A 
HETATM    8  C   UNK N   1      27.163  18.829   4.728  0.00  0.00     0.056 A 
HETATM    9 Cl   UNK N   1      27.790  20.385   5.245  0.00  0.00    -0.083 Cl
HETATM   10  C   UNK N   1      28.026  17.751   4.459  0.00  0.00     0.055 A 
HETATM   11 Cl   UNK N   1      29.767  17.905   4.624  0.00  0.00    -0.083 Cl
HETATM   12  C   UNK N   1      27.499  16.524   4.058  0.00  0.00     0.026 A 
HETATM   13  C   UNK N   1      26.123  16.362   3.930  0.00  0.00     0.019 A 
ENDBRANCH   3   6
ENDBRANCH   1   2
BRANCH   1  14
HETATM   14  C   UNK N   1      21.047  17.835   6.110  0.00  0.00     0.242 C 
HETATM   15  O   UNK N   1      21.085  18.778   6.895  0.00  0.00    -0.271 OA
HETATM   16  N   UNK N   1      20.612  16.621   6.568  0.00  0.00    -0.350 N 
BRANCH  16  17
HETATM   17  C   UNK N   1      20.223  16.515   7.970  0.00  0.00     0.126 C 
BRANCH  17  18
HETATM   18  C   UNK N   1      20.987  15.465   8.762  0.00  0.00     0.020 C 
BRANCH  18  19
HETATM   19  C   UNK N   1      20.021  14.551   9.488  0.00  0.00     0.001 C 
BRANCH  19  20
HETATM   20  C   UNK N   1      20.771  13.388  10.114  0.00  0.00    -0.004 C 
HETATM   21  C   UNK N   1      22.261  13.496   9.847  0.00  0.00     0.005 C 
ENDBRANCH  19  20
ENDBRANCH  18  19
ENDBRANCH  17  18
ENDBRANCH  16  17
BRANCH  16  22
HETATM   22  C   UNK N   1      20.514  15.462   5.699  0.00  0.00     0.128 C 
BRANCH  22  23
HETATM   23  C   UNK N   1      19.117  15.294   5.126  0.00  0.00     0.046 C 
BRANCH  23  24
HETATM   24  C   UNK N   1      18.935  13.862   4.643  0.00  0.00     0.168 C 
BRANCH  24  25
HETATM   25  O   UNK N   1      18.700  13.827   3.265  0.00  0.00    -0.396 OA
HETATM   26  C   UNK N   1      19.689  12.987   2.754  0.00  0.00     0.201 C 
ENDBRANCH  24  25
ENDBRANCH  23  24
ENDBRANCH  22  23
ENDBRANCH  16  22
ENDBRANCH   1  14
BRANCH   1  27
HETATM   27  C   UNK N   1      21.052  19.432   4.137  0.00  0.00     0.045 C 
BRANCH  27  28
HETATM   28  C   UNK N   1      20.757  19.383   2.642  0.00  0.00     0.112 C 
BRANCH  28  29
HETATM   29  C   UNK N   1      21.285  20.583   1.921  0.00  0.00     0.139 C 
HETATM   30  O   UNK N   1      21.377  20.578   0.704  0.00  0.00    -0.650 OA
BRANCH  29  31
HETATM   31  O   UNK N   1      21.675  21.665   2.617  0.00  0.00    -0.776 OA
HETATM   32  H   UNK N   1      22.192  22.439   2.734  0.00  0.00     0.167 HD
ENDBRANCH  29  31
ENDBRANCH  28  29
ENDBRANCH  27  28
ENDBRANCH   1  27
TORSDOF 15
ENDMDL
MODEL 2
REMARK VINA RESULT:      -6.2      2.001      3.078
REMARK  15 active torsions:
REMARK  status: ('A' for Active; 'I' for Inactive)
REMARK    1  A    between atoms: O_4  and  C_20 
REMARK    2  A    between atoms: O_6  and  C_23 
REMARK    3  A    between atoms: N_8  and  C_10 
REMARK    4  A    between atoms: N_8  and  C_13 
REMARK       I    between atoms: N_8  and  C_14 
REMARK    5  A    between atoms: C_11  and  N_9 
REMARK       I    between atoms: N_9  and  C_22 
REMARK    6  A    between atoms: C_10  and  C_12 
REMARK    7  A    between atoms: C_11  and  C_14 
REMARK    8  A    between atoms: C_11  and  C_15 
REMARK    9  A    between atoms: C_12  and  C_16 
REMARK   10  A    between atoms: C_13  and  C_17 
REMARK   11  A    between atoms: C_15  and  C_19 
REMARK   12  A    between atoms: C_16  and  C_18 
REMARK   13  A    between atoms: C_17  and  C_20 
REMARK   14  A    between atoms: C_19  and  C_23 
REMARK   15  A    between atoms: C_22  and  C_24 
ROOT
HETATM    1  C   UNK N   1      21.604  17.876   5.350  0.00  0.00     0.177 C 
ENDROOT
BRANCH   1   2
HETATM    2  N   UNK N   1      23.039  17.827   5.515  0.00  0.00    -0.344 N 
HETATM    3  C   UNK N   1      23.881  16.877   5.048  0.00  0.00     0.252 C 
HETATM    4  O   UNK N   1      23.455  15.900   4.449  0.00  0.00    -0.268 OA
HETATM    5  H   UNK N   1      23.447  18.565   6.022  0.00  0.00     0.163 HD
BRANCH   3   6
HETATM    6  C   UNK N   1      25.328  17.061   5.268  0.00  0.00     0.033 A 
HETATM    7  C   UNK N   1      25.985  18.239   4.889  0.00  0.00     0.042 A 
HETATM    8  C   UNK N   1      27.354  18.396   5.148  0.00  0.00     0.056 A 
HETATM    9 Cl   UNK N   1      28.143  19.892   4.677  0.00  0.00    -0.083 Cl
HETATM   10  C   UNK N   1      28.070  17.366   5.786  0.00  0.00     0.055 A 
HETATM   11 Cl   UNK N   1      29.782  17.521   6.141  0.00  0.00    -0.083 Cl
HETATM   12  C   UNK N   1      27.415  16.192   6.156  0.00  0.00     0.026 A 
HETATM   13  C   UNK N   1      26.054  16.041   5.902  0.00  0.00     0.019 A 
ENDBRANCH   3   6
ENDBRANCH   1   2
BRANCH   1  14
HETATM   14  C   UNK N   1      20.999  17.871   6.753  0.00  0.00     0.242 C 
HETATM   15  O   UNK N   1      20.823  18.953   7.306  0.00  0.00    -0.271 OA
HETATM   16  N   UNK N   1      20.675  16.729   7.433  0.00  0.00    -0.350 N 
BRANCH  16  17
HETATM   17  C   UNK N   1      20.142  16.863   8.785  0.00  0.00     0.126 C 
BRANCH  17  18
HETATM   18  C   UNK N   1      18.757  16.265   8.982  0.00  0.00     0.020 C 
BRANCH  18  19
HETATM   19  C   UNK N   1      17.764  17.351   9.343  0.00  0.00     0.001 C 
BRANCH  19  20
HETATM   20  C   UNK N   1      18.453  18.445  10.140  0.00  0.00    -0.004 C 
HETATM   21  C   UNK N   1      17.563  18.941  11.265  0.00  0.00     0.005 C 
ENDBRANCH  19  20
ENDBRANCH  18  19
ENDBRANCH  17  18
ENDBRANCH  16  17
BRANCH  16  22
HETATM   22  C   UNK N   1      20.829  15.412   6.842  0.00  0.00     0.128 C 
BRANCH  22  23
HETATM   23  C   UNK N   1      21.976  14.635   7.466  0.00  0.00     0.046 C 
BRANCH  23  24
HETATM   24  C   UNK N   1      21.418  13.506   8.322  0.00  0.00     0.168 C 
BRANCH  24  25
HETATM   25  O   UNK N   1      22.227  13.282   9.439  0.00  0.00    -0.396 OA
HETATM   26  C   UNK N   1      21.370  12.753  10.403  0.00  0.00     0.201 C 
ENDBRANCH  24  25
ENDBRANCH  23  24
ENDBRANCH  22  23
ENDBRANCH  16  22
ENDBRANCH   1  14
BRANCH   1  27
HETATM   27  C   UNK N   1      21.243  19.147   4.573  0.00  0.00     0.045 C 
BRANCH  27  28
HETATM   28  C   UNK N   1      21.617  19.046   3.097  0.00  0.00     0.112 C 
BRANCH  28  29
HETATM   29  C   UNK N   1      21.980  20.375   2.512  0.00  0.00     0.139 C 
HETATM   30  O   UNK N   1      22.907  21.018   2.976  0.00  0.00    -0.650 OA
BRANCH  29  31
HETATM   31  O   UNK N   1      21.270  20.869   1.483  0.00  0.00    -0.776 OA
HETATM   32  H   UNK N   1      21.126  21.484   0.790  0.00  0.00     0.167 HD
ENDBRANCH  29  31
ENDBRANCH  28  29
ENDBRANCH  27  28
ENDBRANCH   1  27
TORSDOF 15
ENDMDL
MODEL 3
REMARK VINA RESULT:      -6.0      9.527     12.855
REMARK  15 active torsions:
REMARK  status: ('A' for Active; 'I' for Inactive)
REMARK    1  A    between atoms: O_4  and  C_20 
REMARK    2  A    between atoms: O_6  and  C_23 
REMARK    3  A    between atoms: N_8  and  C_10 
REMARK    4  A    between atoms: N_8  and  C_13 
REMARK       I    between atoms: N_8  and  C_14 
REMARK    5  A    between atoms: C_11  and  N_9 
REMARK       I    between atoms: N_9  and  C_22 
REMARK    6  A    between atoms: C_10  and  C_12 
REMARK    7  A    between atoms: C_11  and  C_14 
REMARK    8  A    between atoms: C_11  and  C_15 
REMARK    9  A    between atoms: C_12  and  C_16 
REMARK   10  A    between atoms: C_13  and  C_17 
REMARK   11  A    between atoms: C_15  and  C_19 
REMARK   12  A    between atoms: C_16  and  C_18 
REMARK   13  A    between atoms: C_17  and  C_20 
REMARK   14  A    between atoms: C_19  and  C_23 
REMARK   15  A    between atoms: C_22  and  C_24 
ROOT
HETATM    1  C   UNK N   1      33.171  17.362   8.642  0.00  0.00     0.177 C 
ENDROOT
BRANCH   1   2
HETATM    2  N   UNK N   1      33.983  16.383   9.330  0.00  0.00    -0.344 N 
HETATM    3  C   UNK N   1      35.096  16.616  10.061  0.00  0.00     0.252 C 
HETATM    4  O   UNK N   1      35.555  17.744  10.165  0.00  0.00    -0.268 OA
HETATM    5  H   UNK N   1      33.693  15.445   9.258  0.00  0.00     0.163 HD
BRANCH   3   6
HETATM    6  C   UNK N   1      35.733  15.473  10.744  0.00  0.00     0.033 A 
HETATM    7  C   UNK N   1      35.377  15.105  12.048  0.00  0.00     0.042 A 
HETATM    8  C   UNK N   1      35.975  13.990  12.652  0.00  0.00     0.056 A 
HETATM    9 Cl   UNK N   1      35.494  13.545  14.281  0.00  0.00    -0.083 Cl
HETATM   10  C   UNK N   1      36.936  13.242  11.948  0.00  0.00     0.055 A 
HETATM   11 Cl   UNK N   1      37.702  11.832  12.659  0.00  0.00    -0.083 Cl
HETATM   12  C   UNK N   1      37.292  13.613  10.653  0.00  0.00     0.026 A 
HETATM   13  C   UNK N   1      36.693  14.718  10.053  0.00  0.00     0.019 A 
ENDBRANCH   3   6
ENDBRANCH   1   2
BRANCH   1  14
HETATM   14  C   UNK N   1      33.626  17.364   7.184  0.00  0.00     0.242 C 
HETATM   15  O   UNK N   1      34.457  18.202   6.843  0.00  0.00    -0.271 OA
HETATM   16  N   UNK N   1      33.137  16.506   6.237  0.00  0.00    -0.350 N 
BRANCH  16  17
HETATM   17  C   UNK N   1      33.627  16.641   4.869  0.00  0.00     0.126 C 
BRANCH  17  18
HETATM   18  C   UNK N   1      32.769  17.520   3.973  0.00  0.00     0.020 C 
BRANCH  18  19
HETATM   19  C   UNK N   1      32.155  16.693   2.861  0.00  0.00     0.001 C 
BRANCH  19  20
HETATM   20  C   UNK N   1      30.682  16.453   3.141  0.00  0.00    -0.004 C 
HETATM   21  C   UNK N   1      30.365  14.968   3.152  0.00  0.00     0.005 C 
ENDBRANCH  19  20
ENDBRANCH  18  19
ENDBRANCH  17  18
ENDBRANCH  16  17
BRANCH  16  22
HETATM   22  C   UNK N   1      32.173  15.471   6.562  0.00  0.00     0.128 C 
BRANCH  22  23
HETATM   23  C   UNK N   1      32.624  14.099   6.091  0.00  0.00     0.046 C 
BRANCH  23  24
HETATM   24  C   UNK N   1      33.603  13.512   7.098  0.00  0.00     0.168 C 
BRANCH  24  25
HETATM   25  O   UNK N   1      33.154  13.718   8.406  0.00  0.00    -0.396 OA
HETATM   26  C   UNK N   1      33.749  12.703   9.154  0.00  0.00     0.201 C 
ENDBRANCH  24  25
ENDBRANCH  23  24
ENDBRANCH  22  23
ENDBRANCH  16  22
ENDBRANCH   1  14
BRANCH   1  27
HETATM   27  C   UNK N   1      31.698  16.965   8.786  0.00  0.00     0.045 C 
BRANCH  27  28
HETATM   28  C   UNK N   1      30.756  18.131   8.505  0.00  0.00     0.112 C 
BRANCH  28  29
HETATM   29  C   UNK N   1      29.617  18.185   9.473  0.00  0.00     0.139 C 
HETATM   30  O   UNK N   1      28.583  17.581   9.239  0.00  0.00    -0.650 OA
BRANCH  29  31
HETATM   31  O   UNK N   1      29.725  18.917  10.596  0.00  0.00    -0.776 OA
HETATM   32  H   UNK N   1      29.830  19.728  11.054  0.00  0.00     0.167 HD
ENDBRANCH  29  31
ENDBRANCH  28  29
ENDBRANCH  27  28
ENDBRANCH   1  27
TORSDOF 15
ENDMDL
MODEL 4
REMARK VINA RESULT:      -5.9      6.359     10.851
REMARK  15 active torsions:
REMARK  status: ('A' for Active; 'I' for Inactive)
REMARK    1  A    between atoms: O_4  and  C_20 
REMARK    2  A    between atoms: O_6  and  C_23 
REMARK    3  A    between atoms: N_8  and  C_10 
REMARK    4  A    between atoms: N_8  and  C_13 
REMARK       I    between atoms: N_8  and  C_14 
REMARK    5  A    between atoms: C_11  and  N_9 
REMARK       I    between atoms: N_9  and  C_22 
REMARK    6  A    between atoms: C_10  and  C_12 
REMARK    7  A    between atoms: C_11  and  C_14 
REMARK    8  A    between atoms: C_11  and  C_15 
REMARK    9  A    between atoms: C_12  and  C_16 
REMARK   10  A    between atoms: C_13  and  C_17 
REMARK   11  A    between atoms: C_15  and  C_19 
REMARK   12  A    between atoms: C_16  and  C_18 
REMARK   13  A    between atoms: C_17  and  C_20 
REMARK   14  A    between atoms: C_19  and  C_23 
REMARK   15  A    between atoms: C_22  and  C_24 
ROOT
HETATM    1  C   UNK N   1      30.526  17.182   7.623  0.00  0.00     0.177 C 
ENDROOT
BRANCH   1   2
HETATM    2  N   UNK N   1      29.585  17.755   6.686  0.00  0.00    -0.344 N 
HETATM    3  C   UNK N   1      28.454  17.183   6.214  0.00  0.00     0.252 C 
HETATM    4  O   UNK N   1      28.146  16.044   6.531  0.00  0.00    -0.268 OA
HETATM    5  H   UNK N   1      29.790  18.660   6.357  0.00  0.00     0.163 HD
BRANCH   3   6
HETATM    6  C   UNK N   1      27.594  17.978   5.316  0.00  0.00     0.033 A 
HETATM    7  C   UNK N   1      26.267  17.612   5.055  0.00  0.00     0.042 A 
HETATM    8  C   UNK N   1      25.466  18.411   4.228  0.00  0.00     0.056 A 
HETATM    9 Cl   UNK N   1      23.803  17.933   3.934  0.00  0.00    -0.083 Cl
HETATM   10  C   UNK N   1      25.997  19.582   3.657  0.00  0.00     0.055 A 
HETATM   11 Cl   UNK N   1      25.030  20.621   2.624  0.00  0.00    -0.083 Cl
HETATM   12  C   UNK N   1      27.319  19.942   3.915  0.00  0.00     0.026 A 
HETATM   13  C   UNK N   1      28.111  19.149   4.740  0.00  0.00     0.019 A 
ENDBRANCH   3   6
ENDBRANCH   1   2
BRANCH   1  14
HETATM   14  C   UNK N   1      31.794  16.864   6.833  0.00  0.00     0.242 C 
HETATM   15  O   UNK N   1      32.111  17.628   5.925  0.00  0.00    -0.271 OA
HETATM   16  N   UNK N   1      32.573  15.763   7.063  0.00  0.00    -0.350 N 
BRANCH  16  17
HETATM   17  C   UNK N   1      33.738  15.555   6.209  0.00  0.00     0.126 C 
BRANCH  17  18
HETATM   18  C   UNK N   1      33.669  14.311   5.336  0.00  0.00     0.020 C 
BRANCH  18  19
HETATM   19  C   UNK N   1      32.798  14.570   4.123  0.00  0.00     0.001 C 
BRANCH  19  20
HETATM   20  C   UNK N   1      33.492  15.535   3.178  0.00  0.00    -0.004 C 
HETATM   21  C   UNK N   1      32.583  16.698   2.825  0.00  0.00     0.005 C 
ENDBRANCH  19  20
ENDBRANCH  18  19
ENDBRANCH  17  18
ENDBRANCH  16  17
BRANCH  16  22
HETATM   22  C   UNK N   1      32.282  14.825   8.132  0.00  0.00     0.128 C 
BRANCH  22  23
HETATM   23  C   UNK N   1      32.954  15.218   9.437  0.00  0.00     0.046 C 
BRANCH  23  24
HETATM   24  C   UNK N   1      34.238  14.418   9.608  0.00  0.00     0.168 C 
BRANCH  24  25
HETATM   25  O   UNK N   1      35.358  15.248   9.509  0.00  0.00    -0.396 OA
HETATM   26  C   UNK N   1      35.101  16.302  10.385  0.00  0.00     0.201 C 
ENDBRANCH  24  25
ENDBRANCH  23  24
ENDBRANCH  22  23
ENDBRANCH  16  22
ENDBRANCH   1  14
BRANCH   1  27
HETATM   27  C   UNK N   1      30.783  18.197   8.742  0.00  0.00     0.045 C 
BRANCH  27  28
HETATM   28  C   UNK N   1      29.528  18.486   9.558  0.00  0.00     0.112 C 
BRANCH  28  29
HETATM   29  C   UNK N   1      28.912  17.240  10.111  0.00  0.00     0.139 C 
HETATM   30  O   UNK N   1      27.782  16.916   9.788  0.00  0.00    -0.650 OA
BRANCH  29  31
HETATM   31  O   UNK N   1      29.602  16.481  10.982  0.00  0.00    -0.776 OA
HETATM   32  H   UNK N   1      29.973  15.669  11.267  0.00  0.00     0.167 HD
ENDBRANCH  29  31
ENDBRANCH  28  29
ENDBRANCH  27  28
ENDBRANCH   1  27
TORSDOF 15
ENDMDL
MODEL 5
REMARK VINA RESULT:      -5.9      3.530      7.242
REMARK  15 active torsions:
REMARK  status: ('A' for Active; 'I' for Inactive)
REMARK    1  A    between atoms: O_4  and  C_20 
REMARK    2  A    between atoms: O_6  and  C_23 
REMARK    3  A    between atoms: N_8  and  C_10 
REMARK    4  A    between atoms: N_8  and  C_13 
REMARK       I    between atoms: N_8  and  C_14 
REMARK    5  A    between atoms: C_11  and  N_9 
REMARK       I    between atoms: N_9  and  C_22 
REMARK    6  A    between atoms: C_10  and  C_12 
REMARK    7  A    between atoms: C_11  and  C_14 
REMARK    8  A    between atoms: C_11  and  C_15 
REMARK    9  A    between atoms: C_12  and  C_16 
REMARK   10  A    between atoms: C_13  and  C_17 
REMARK   11  A    between atoms: C_15  and  C_19 
REMARK   12  A    between atoms: C_16  and  C_18 
REMARK   13  A    between atoms: C_17  and  C_20 
REMARK   14  A    between atoms: C_19  and  C_23 
REMARK   15  A    between atoms: C_22  and  C_24 
ROOT
HETATM    1  C   UNK N   1      22.261  15.646   4.399  0.00  0.00     0.177 C 
ENDROOT
BRANCH   1   2
HETATM    2  N   UNK N   1      22.068  14.984   5.670  0.00  0.00    -0.344 N 
HETATM    3  C   UNK N   1      21.378  15.451   6.735  0.00  0.00     0.252 C 
HETATM    4  O   UNK N   1      20.869  16.562   6.717  0.00  0.00    -0.268 OA
HETATM    5  H   UNK N   1      22.484  14.098   5.770  0.00  0.00     0.163 HD
BRANCH   3   6
HETATM    6  C   UNK N   1      21.244  14.575   7.915  0.00  0.00     0.033 A 
HETATM    7  C   UNK N   1      22.121  13.506   8.140  0.00  0.00     0.042 A 
HETATM    8  C   UNK N   1      21.989  12.717   9.292  0.00  0.00     0.056 A 
HETATM    9 Cl   UNK N   1      23.115  11.396   9.553  0.00  0.00    -0.083 Cl
HETATM   10  C   UNK N   1      20.971  12.999  10.221  0.00  0.00     0.055 A 
HETATM   11 Cl   UNK N   1      20.773  12.047  11.683  0.00  0.00    -0.083 Cl
HETATM   12  C   UNK N   1      20.096  14.060   9.993  0.00  0.00     0.026 A 
HETATM   13  C   UNK N   1      20.233  14.845   8.851  0.00  0.00     0.019 A 
ENDBRANCH   3   6
ENDBRANCH   1   2
BRANCH   1  14
HETATM   14  C   UNK N   1      23.712  16.121   4.366  0.00  0.00     0.242 C 
HETATM   15  O   UNK N   1      24.577  15.303   4.066  0.00  0.00    -0.271 OA
HETATM   16  N   UNK N   1      24.099  17.396   4.680  0.00  0.00    -0.350 N 
BRANCH  16  17
HETATM   17  C   UNK N   1      25.524  17.708   4.648  0.00  0.00     0.126 C 
BRANCH  17  18
HETATM   18  C   UNK N   1      26.000  18.364   3.361  0.00  0.00     0.020 C 
BRANCH  18  19
HETATM   19  C   UNK N   1      26.355  19.816   3.613  0.00  0.00     0.001 C 
BRANCH  19  20
HETATM   20  C   UNK N   1      27.460  19.911   4.649  0.00  0.00    -0.004 C 
HETATM   21  C   UNK N   1      27.158  20.993   5.669  0.00  0.00     0.005 C 
ENDBRANCH  19  20
ENDBRANCH  18  19
ENDBRANCH  17  18
ENDBRANCH  16  17
BRANCH  16  22
HETATM   22  C   UNK N   1      23.139  18.429   5.020  0.00  0.00     0.128 C 
BRANCH  22  23
HETATM   23  C   UNK N   1      22.489  19.034   3.787  0.00  0.00     0.046 C 
BRANCH  23  24
HETATM   24  C   UNK N   1      20.982  19.106   3.991  0.00  0.00     0.168 C 
BRANCH  24  25
HETATM   25  O   UNK N   1      20.521  20.417   3.842  0.00  0.00    -0.396 OA
HETATM   26  C   UNK N   1      20.900  20.786   2.552  0.00  0.00     0.201 C 
ENDBRANCH  24  25
ENDBRANCH  23  24
ENDBRANCH  22  23
ENDBRANCH  16  22
ENDBRANCH   1  14
BRANCH   1  27
HETATM   27  C   UNK N   1      21.955  14.649   3.276  0.00  0.00     0.045 C 
BRANCH  27  28
HETATM   28  C   UNK N   1      21.977  15.305   1.900  0.00  0.00     0.112 C 
BRANCH  28  29
HETATM   29  C   UNK N   1      20.610  15.696   1.436  0.00  0.00     0.139 C 
HETATM   30  O   UNK N   1      20.464  16.284   0.377  0.00  0.00    -0.650 OA
BRANCH  29  31
HETATM   31  O   UNK N   1      19.538  15.413   2.198  0.00  0.00    -0.776 OA
HETATM   32  H   UNK N   1      19.091  14.915   2.854  0.00  0.00     0.167 HD
ENDBRANCH  29  31
ENDBRANCH  28  29
ENDBRANCH  27  28
ENDBRANCH   1  27
TORSDOF 15
ENDMDL
MODEL 6
REMARK VINA RESULT:      -5.8      3.419      7.512
REMARK  15 active torsions:
REMARK  status: ('A' for Active; 'I' for Inactive)
REMARK    1  A    between atoms: O_4  and  C_20 
REMARK    2  A    between atoms: O_6  and  C_23 
REMARK    3  A    between atoms: N_8  and  C_10 
REMARK    4  A    between atoms: N_8  and  C_13 
REMARK       I    between atoms: N_8  and  C_14 
REMARK    5  A    between atoms: C_11  and  N_9 
REMARK       I    between atoms: N_9  and  C_22 
REMARK    6  A    between atoms: C_10  and  C_12 
REMARK    7  A    between atoms: C_11  and  C_14 
REMARK    8  A    between atoms: C_11  and  C_15 
REMARK    9  A    between atoms: C_12  and  C_16 
REMARK   10  A    between atoms: C_13  and  C_17 
REMARK   11  A    between atoms: C_15  and  C_19 
REMARK   12  A    between atoms: C_16  and  C_18 
REMARK   13  A    between atoms: C_17  and  C_20 
REMARK   14  A    between atoms: C_19  and  C_23 
REMARK   15  A    between atoms: C_22  and  C_24 
ROOT
HETATM    1  C   UNK N   1      22.449  16.873   4.454  0.00  0.00     0.177 C 
ENDROOT
BRANCH   1   2
HETATM    2  N   UNK N   1      22.272  16.012   5.602  0.00  0.00    -0.344 N 
HETATM    3  C   UNK N   1      21.717  16.341   6.790  0.00  0.00     0.252 C 
HETATM    4  O   UNK N   1      21.339  17.482   7.012  0.00  0.00    -0.268 OA
HETATM    5  H   UNK N   1      22.590  15.085   5.507  0.00  0.00     0.163 HD
BRANCH   3   6
HETATM    6  C   UNK N   1      21.567  15.282   7.806  0.00  0.00     0.033 A 
HETATM    7  C   UNK N   1      22.481  14.224   7.905  0.00  0.00     0.042 A 
HETATM    8  C   UNK N   1      22.330  13.255   8.907  0.00  0.00     0.056 A 
HETATM    9 Cl   UNK N   1      23.502  11.953   9.015  0.00  0.00    -0.083 Cl
HETATM   10  C   UNK N   1      21.257  13.344   9.812  0.00  0.00     0.055 A 
HETATM   11 Cl   UNK N   1      21.033  12.161  11.090  0.00  0.00    -0.083 Cl
HETATM   12  C   UNK N   1      20.346  14.394   9.708  0.00  0.00     0.026 A 
HETATM   13  C   UNK N   1      20.501  15.357   8.715  0.00  0.00     0.019 A 
ENDBRANCH   3   6
ENDBRANCH   1   2
BRANCH   1  14
HETATM   14  C   UNK N   1      23.750  16.445   3.779  0.00  0.00     0.242 C 
HETATM   15  O   UNK N   1      23.810  15.309   3.316  0.00  0.00    -0.271 OA
HETATM   16  N   UNK N   1      24.857  17.245   3.691  0.00  0.00    -0.350 N 
BRANCH  16  17
HETATM   17  C   UNK N   1      26.051  16.699   3.056  0.00  0.00     0.126 C 
BRANCH  17  18
HETATM   18  C   UNK N   1      27.151  16.287   4.023  0.00  0.00     0.020 C 
BRANCH  18  19
HETATM   19  C   UNK N   1      28.480  16.868   3.583  0.00  0.00     0.001 C 
BRANCH  19  20
HETATM   20  C   UNK N   1      29.057  17.742   4.682  0.00  0.00    -0.004 C 
HETATM   21  C   UNK N   1      30.565  17.590   4.762  0.00  0.00     0.005 C 
ENDBRANCH  19  20
ENDBRANCH  18  19
ENDBRANCH  17  18
ENDBRANCH  16  17
BRANCH  16  22
HETATM   22  C   UNK N   1      24.861  18.608   4.191  0.00  0.00     0.128 C 
BRANCH  22  23
HETATM   23  C   UNK N   1      25.492  19.577   3.205  0.00  0.00     0.046 C 
BRANCH  23  24
HETATM   24  C   UNK N   1      26.576  20.382   3.908  0.00  0.00     0.168 C 
BRANCH  24  25
HETATM   25  O   UNK N   1      26.211  20.662   5.228  0.00  0.00    -0.396 OA
HETATM   26  C   UNK N   1      27.382  21.113   5.836  0.00  0.00     0.201 C 
ENDBRANCH  24  25
ENDBRANCH  23  24
ENDBRANCH  22  23
ENDBRANCH  16  22
ENDBRANCH   1  14
BRANCH   1  27
HETATM   27  C   UNK N   1      21.238  16.709   3.528  0.00  0.00     0.045 C 
BRANCH  27  28
HETATM   28  C   UNK N   1      20.228  17.839   3.693  0.00  0.00     0.112 C 
BRANCH  28  29
HETATM   29  C   UNK N   1      19.609  18.241   2.392  0.00  0.00     0.139 C 
HETATM   30  O   UNK N   1      20.260  18.197   1.362  0.00  0.00    -0.650 OA
BRANCH  29  31
HETATM   31  O   UNK N   1      18.334  18.669   2.361  0.00  0.00    -0.776 OA
HETATM   32  H   UNK N   1      17.485  18.727   1.969  0.00  0.00     0.167 HD
ENDBRANCH  29  31
ENDBRANCH  28  29
ENDBRANCH  27  28
ENDBRANCH   1  27
TORSDOF 15
ENDMDL
MODEL 7
REMARK VINA RESULT:      -5.7     13.056     15.086
REMARK  15 active torsions:
REMARK  status: ('A' for Active; 'I' for Inactive)
REMARK    1  A    between atoms: O_4  and  C_20 
REMARK    2  A    between atoms: O_6  and  C_23 
REMARK    3  A    between atoms: N_8  and  C_10 
REMARK    4  A    between atoms: N_8  and  C_13 
REMARK       I    between atoms: N_8  and  C_14 
REMARK    5  A    between atoms: C_11  and  N_9 
REMARK       I    between atoms: N_9  and  C_22 
REMARK    6  A    between atoms: C_10  and  C_12 
REMARK    7  A    between atoms: C_11  and  C_14 
REMARK    8  A    between atoms: C_11  and  C_15 
REMARK    9  A    between atoms: C_12  and  C_16 
REMARK   10  A    between atoms: C_13  and  C_17 
REMARK   11  A    between atoms: C_15  and  C_19 
REMARK   12  A    between atoms: C_16  and  C_18 
REMARK   13  A    between atoms: C_17  and  C_20 
REMARK   14  A    between atoms: C_19  and  C_23 
REMARK   15  A    between atoms: C_22  and  C_24 
ROOT
HETATM    1  C   UNK N   1      26.974  24.775  -5.449  0.00  0.00     0.177 C 
ENDROOT
BRANCH   1   2
HETATM    2  N   UNK N   1      28.154  24.030  -5.073  0.00  0.00    -0.344 N 
HETATM    3  C   UNK N   1      29.420  24.499  -4.983  0.00  0.00     0.252 C 
HETATM    4  O   UNK N   1      29.683  25.656  -5.277  0.00  0.00    -0.268 OA
HETATM    5  H   UNK N   1      28.022  23.079  -4.859  0.00  0.00     0.163 HD
BRANCH   3   6
HETATM    6  C   UNK N   1      30.471  23.580  -4.506  0.00  0.00     0.033 A 
HETATM    7  C   UNK N   1      31.743  23.552  -5.092  0.00  0.00     0.042 A 
HETATM    8  C   UNK N   1      32.731  22.693  -4.589  0.00  0.00     0.056 A 
HETATM    9 Cl   UNK N   1      34.321  22.695  -5.333  0.00  0.00    -0.083 Cl
HETATM   10  C   UNK N   1      32.442  21.856  -3.496  0.00  0.00     0.055 A 
HETATM   11 Cl   UNK N   1      33.648  20.772  -2.824  0.00  0.00    -0.083 Cl
HETATM   12  C   UNK N   1      31.173  21.881  -2.919  0.00  0.00     0.026 A 
HETATM   13  C   UNK N   1      30.196  22.739  -3.417  0.00  0.00     0.019 A 
ENDBRANCH   3   6
ENDBRANCH   1   2
BRANCH   1  14
HETATM   14  C   UNK N   1      26.202  23.905  -6.439  0.00  0.00     0.242 C 
HETATM   15  O   UNK N   1      25.326  23.167  -5.994  0.00  0.00    -0.271 OA
HETATM   16  N   UNK N   1      26.453  23.882  -7.784  0.00  0.00    -0.350 N 
BRANCH  16  17
HETATM   17  C   UNK N   1      25.668  22.974  -8.614  0.00  0.00     0.126 C 
BRANCH  17  18
HETATM   18  C   UNK N   1      26.476  21.879  -9.293  0.00  0.00     0.020 C 
BRANCH  18  19
HETATM   19  C   UNK N   1      26.867  20.816  -8.285  0.00  0.00     0.001 C 
BRANCH  19  20
HETATM   20  C   UNK N   1      28.367  20.585  -8.324  0.00  0.00    -0.004 C 
HETATM   21  C   UNK N   1      29.058  21.308  -7.183  0.00  0.00     0.005 C 
ENDBRANCH  19  20
ENDBRANCH  18  19
ENDBRANCH  17  18
ENDBRANCH  16  17
BRANCH  16  22
HETATM   22  C   UNK N   1      27.452  24.741  -8.394  0.00  0.00     0.128 C 
BRANCH  22  23
HETATM   23  C   UNK N   1      26.895  26.110  -8.743  0.00  0.00     0.046 C 
BRANCH  23  24
HETATM   24  C   UNK N   1      27.769  27.189  -8.120  0.00  0.00     0.168 C 
BRANCH  24  25
HETATM   25  O   UNK N   1      27.115  27.799  -7.046  0.00  0.00    -0.396 OA
HETATM   26  C   UNK N   1      27.985  28.804  -6.621  0.00  0.00     0.201 C 
ENDBRANCH  24  25
ENDBRANCH  23  24
ENDBRANCH  22  23
ENDBRANCH  16  22
ENDBRANCH   1  14
BRANCH   1  27
HETATM   27  C   UNK N   1      26.159  25.072  -4.185  0.00  0.00     0.045 C 
BRANCH  27  28
HETATM   28  C   UNK N   1      26.604  26.360  -3.502  0.00  0.00     0.112 C 
BRANCH  28  29
HETATM   29  C   UNK N   1      25.697  27.509  -3.811  0.00  0.00     0.139 C 
HETATM   30  O   UNK N   1      25.539  28.404  -2.997  0.00  0.00    -0.650 OA
BRANCH  29  31
HETATM   31  O   UNK N   1      25.040  27.547  -4.984  0.00  0.00    -0.776 OA
HETATM   32  H   UNK N   1      24.296  27.753  -5.515  0.00  0.00     0.167 HD
ENDBRANCH  29  31
ENDBRANCH  28  29
ENDBRANCH  27  28
ENDBRANCH   1  27
TORSDOF 15
ENDMDL
MODEL 8
REMARK VINA RESULT:      -5.7     13.004     15.492
REMARK  15 active torsions:
REMARK  status: ('A' for Active; 'I' for Inactive)
REMARK    1  A    between atoms: O_4  and  C_20 
REMARK    2  A    between atoms: O_6  and  C_23 
REMARK    3  A    between atoms: N_8  and  C_10 
REMARK    4  A    between atoms: N_8  and  C_13 
REMARK       I    between atoms: N_8  and  C_14 
REMARK    5  A    between atoms: C_11  and  N_9 
REMARK       I    between atoms: N_9  and  C_22 
REMARK    6  A    between atoms: C_10  and  C_12 
REMARK    7  A    between atoms: C_11  and  C_14 
REMARK    8  A    between atoms: C_11  and  C_15 
REMARK    9  A    between atoms: C_12  and  C_16 
REMARK   10  A    between atoms: C_13  and  C_17 
REMARK   11  A    between atoms: C_15  and  C_19 
REMARK   12  A    between atoms: C_16  and  C_18 
REMARK   13  A    between atoms: C_17  and  C_20 
REMARK   14  A    between atoms: C_19  and  C_23 
REMARK   15  A    between atoms: C_22  and  C_24 
ROOT
HETATM    1  C   UNK N   1      28.626  22.735  -5.762  0.00  0.00     0.177 C 
ENDROOT
BRANCH   1   2
HETATM    2  N   UNK N   1      28.251  24.089  -5.419  0.00  0.00    -0.344 N 
HETATM    3  C   UNK N   1      27.025  24.526  -5.050  0.00  0.00     0.252 C 
HETATM    4  O   UNK N   1      26.069  23.766  -5.022  0.00  0.00    -0.268 OA
HETATM    5  H   UNK N   1      28.965  24.764  -5.458  0.00  0.00     0.163 HD
BRANCH   3   6
HETATM    6  C   UNK N   1      26.878  25.944  -4.669  0.00  0.00     0.033 A 
HETATM    7  C   UNK N   1      27.920  26.652  -4.055  0.00  0.00     0.042 A 
HETATM    8  C   UNK N   1      27.760  28.008  -3.741  0.00  0.00     0.056 A 
HETATM    9 Cl   UNK N   1      29.091  28.871  -2.989  0.00  0.00    -0.083 Cl
HETATM   10  C   UNK N   1      26.549  28.659  -4.040  0.00  0.00     0.055 A 
HETATM   11 Cl   UNK N   1      26.306  30.359  -3.676  0.00  0.00    -0.083 Cl
HETATM   12  C   UNK N   1      25.512  27.952  -4.646  0.00  0.00     0.026 A 
HETATM   13  C   UNK N   1      25.676  26.605  -4.961  0.00  0.00     0.019 A 
ENDBRANCH   3   6
ENDBRANCH   1   2
BRANCH   1  14
HETATM   14  C   UNK N   1      29.064  22.758  -7.225  0.00  0.00     0.242 C 
HETATM   15  O   UNK N   1      29.962  23.533  -7.543  0.00  0.00    -0.271 OA
HETATM   16  N   UNK N   1      28.492  21.986  -8.200  0.00  0.00    -0.350 N 
BRANCH  16  17
HETATM   17  C   UNK N   1      28.979  22.135  -9.567  0.00  0.00     0.126 C 
BRANCH  17  18
HETATM   18  C   UNK N   1      30.064  21.146  -9.964  0.00  0.00     0.020 C 
BRANCH  18  19
HETATM   19  C   UNK N   1      29.446  19.924 -10.615  0.00  0.00     0.001 C 
BRANCH  19  20
HETATM   20  C   UNK N   1      30.131  18.664 -10.116  0.00  0.00    -0.004 C 
HETATM   21  C   UNK N   1      29.975  18.519  -8.613  0.00  0.00     0.005 C 
ENDBRANCH  19  20
ENDBRANCH  18  19
ENDBRANCH  17  18
ENDBRANCH  16  17
BRANCH  16  22
HETATM   22  C   UNK N   1      27.443  21.027  -7.904  0.00  0.00     0.128 C 
BRANCH  22  23
HETATM   23  C   UNK N   1      26.186  21.284  -8.717  0.00  0.00     0.046 C 
BRANCH  23  24
HETATM   24  C   UNK N   1      25.117  21.892  -7.820  0.00  0.00     0.168 C 
BRANCH  24  25
HETATM   25  O   UNK N   1      24.454  22.936  -8.472  0.00  0.00    -0.396 OA
HETATM   26  C   UNK N   1      25.380  23.978  -8.512  0.00  0.00     0.201 C 
ENDBRANCH  24  25
ENDBRANCH  23  24
ENDBRANCH  22  23
ENDBRANCH  16  22
ENDBRANCH   1  14
BRANCH   1  27
HETATM   27  C   UNK N   1      29.756  22.288  -4.829  0.00  0.00     0.045 C 
BRANCH  27  28
HETATM   28  C   UNK N   1      30.220  23.410  -3.906  0.00  0.00     0.112 C 
BRANCH  28  29
HETATM   29  C   UNK N   1      29.772  23.204  -2.494  0.00  0.00     0.139 C 
HETATM   30  O   UNK N   1      30.591  23.027  -1.608  0.00  0.00    -0.650 OA
BRANCH  29  31
HETATM   31  O   UNK N   1      28.459  23.197  -2.202  0.00  0.00    -0.776 OA
HETATM   32  H   UNK N   1      27.734  23.327  -1.622  0.00  0.00     0.167 HD
ENDBRANCH  29  31
ENDBRANCH  28  29
ENDBRANCH  27  28
ENDBRANCH   1  27
TORSDOF 15
ENDMDL
MODEL 9
REMARK VINA RESULT:      -5.7     12.623     15.289
REMARK  15 active torsions:
REMARK  status: ('A' for Active; 'I' for Inactive)
REMARK    1  A    between atoms: O_4  and  C_20 
REMARK    2  A    between atoms: O_6  and  C_23 
REMARK    3  A    between atoms: N_8  and  C_10 
REMARK    4  A    between atoms: N_8  and  C_13 
REMARK       I    between atoms: N_8  and  C_14 
REMARK    5  A    between atoms: C_11  and  N_9 
REMARK       I    between atoms: N_9  and  C_22 
REMARK    6  A    between atoms: C_10  and  C_12 
REMARK    7  A    between atoms: C_11  and  C_14 
REMARK    8  A    between atoms: C_11  and  C_15 
REMARK    9  A    between atoms: C_12  and  C_16 
REMARK   10  A    between atoms: C_13  and  C_17 
REMARK   11  A    between atoms: C_15  and  C_19 
REMARK   12  A    between atoms: C_16  and  C_18 
REMARK   13  A    between atoms: C_17  and  C_20 
REMARK   14  A    between atoms: C_19  and  C_23 
REMARK   15  A    between atoms: C_22  and  C_24 
ROOT
HETATM    1  C   UNK N   1      25.959  26.144  -4.458  0.00  0.00     0.177 C 
ENDROOT
BRANCH   1   2
HETATM    2  N   UNK N   1      27.199  25.405  -4.373  0.00  0.00    -0.344 N 
HETATM    3  C   UNK N   1      27.502  24.421  -3.497  0.00  0.00     0.252 C 
HETATM    4  O   UNK N   1      26.713  24.091  -2.624  0.00  0.00    -0.268 OA
HETATM    5  H   UNK N   1      27.897  25.645  -5.024  0.00  0.00     0.163 HD
BRANCH   3   6
HETATM    6  C   UNK N   1      28.807  23.744  -3.634  0.00  0.00     0.033 A 
HETATM    7  C   UNK N   1      29.463  23.658  -4.869  0.00  0.00     0.042 A 
HETATM    8  C   UNK N   1      30.720  23.043  -4.957  0.00  0.00     0.056 A 
HETATM    9 Cl   UNK N   1      31.524  22.967  -6.516  0.00  0.00    -0.083 Cl
HETATM   10  C   UNK N   1      31.321  22.508  -3.803  0.00  0.00     0.055 A 
HETATM   11 Cl   UNK N   1      32.897  21.738  -3.861  0.00  0.00    -0.083 Cl
HETATM   12  C   UNK N   1      30.663  22.590  -2.576  0.00  0.00     0.026 A 
HETATM   13  C   UNK N   1      29.417  23.206  -2.491  0.00  0.00     0.019 A 
ENDBRANCH   3   6
ENDBRANCH   1   2
BRANCH   1  14
HETATM   14  C   UNK N   1      26.189  27.472  -3.739  0.00  0.00     0.242 C 
HETATM   15  O   UNK N   1      25.446  27.753  -2.802  0.00  0.00    -0.271 OA
HETATM   16  N   UNK N   1      27.154  28.372  -4.100  0.00  0.00    -0.350 N 
BRANCH  16  17
HETATM   17  C   UNK N   1      27.240  29.623  -3.353  0.00  0.00     0.126 C 
BRANCH  17  18
HETATM   18  C   UNK N   1      28.454  29.735  -2.443  0.00  0.00     0.020 C 
BRANCH  18  19
HETATM   19  C   UNK N   1      28.146  30.640  -1.267  0.00  0.00     0.001 C 
BRANCH  19  20
HETATM   20  C   UNK N   1      28.314  29.879   0.036  0.00  0.00    -0.004 C 
HETATM   21  C   UNK N   1      28.515  30.831   1.200  0.00  0.00     0.005 C 
ENDBRANCH  19  20
ENDBRANCH  18  19
ENDBRANCH  17  18
ENDBRANCH  16  17
BRANCH  16  22
HETATM   22  C   UNK N   1      28.089  28.106  -5.178  0.00  0.00     0.128 C 
BRANCH  22  23
HETATM   23  C   UNK N   1      27.916  29.072  -6.337  0.00  0.00     0.046 C 
BRANCH  23  24
HETATM   24  C   UNK N   1      29.248  29.743  -6.642  0.00  0.00     0.168 C 
BRANCH  24  25
HETATM   25  O   UNK N   1      30.150  29.559  -5.590  0.00  0.00    -0.396 OA
HETATM   26  C   UNK N   1      30.668  30.828  -5.335  0.00  0.00     0.201 C 
ENDBRANCH  24  25
ENDBRANCH  23  24
ENDBRANCH  22  23
ENDBRANCH  16  22
ENDBRANCH   1  14
BRANCH   1  27
HETATM   27  C   UNK N   1      25.608  26.343  -5.937  0.00  0.00     0.045 C 
BRANCH  27  28
HETATM   28  C   UNK N   1      26.378  25.391  -6.846  0.00  0.00     0.112 C 
BRANCH  28  29
HETATM   29  C   UNK N   1      25.621  24.129  -7.115  0.00  0.00     0.139 C 
HETATM   30  O   UNK N   1      25.098  23.945  -8.202  0.00  0.00    -0.650 OA
BRANCH  29  31
HETATM   31  O   UNK N   1      25.502  23.200  -6.149  0.00  0.00    -0.776 OA
HETATM   32  H   UNK N   1      25.696  22.366  -5.768  0.00  0.00     0.167 HD
ENDBRANCH  29  31
ENDBRANCH  28  29
ENDBRANCH  27  28
ENDBRANCH   1  27
TORSDOF 15
ENDMDL
