REMARK  8 active torsions:
REMARK  status: ('A' for Active; 'I' for Inactive)
REMARK    1  A    between atoms: C_12  and  O_2 
REMARK    2  A    between atoms: O_2  and  C_16 
REMARK    3  A    between atoms: O_4  and  C_26 
REMARK       I    between atoms: N_7  and  C_16 
REMARK    4  A    between atoms: N_7  and  C_17 
REMARK    5  A    between atoms: N_8  and  C_20 
REMARK       I    between atoms: N_8  and  C_30 
REMARK    6  A    between atoms: N_9  and  C_24 
REMARK       I    between atoms: N_9  and  C_30 
REMARK    7  A    between atoms: C_17  and  C_18 
REMARK    8  A    between atoms: C_25  and  C_31 
ROOT
HETATM    1  O   UNK N   1       2.102  -1.819  -1.126  0.00  0.00    -0.247 OA
HETATM    2  N   UNK N   1       3.407  -3.586  -0.797  0.00  0.00    -0.309 N 
HETATM    3  N   UNK N   1       3.971  -1.464   0.072  0.00  0.00    -0.309 N 
HETATM    4  C   UNK N   1       3.118  -2.268  -0.630  0.00  0.00     0.325 C 
HETATM    5  H   UNK N   1       2.694  -4.172  -1.140  0.00  0.00     0.170 HD
HETATM    6  H   UNK N   1       4.764  -1.886   0.476  0.00  0.00     0.170 HD
ENDROOT
BRANCH   2   7
HETATM    7  C   UNK N   1       4.666  -4.174  -0.511  0.00  0.00     0.036 A 
HETATM    8  C   UNK N   1       5.854  -3.454  -0.700  0.00  0.00     0.038 A 
HETATM    9  C   UNK N   1       7.097  -4.060  -0.494  0.00  0.00    -0.038 A 
HETATM   10  C   UNK N   1       7.154  -5.403  -0.108  0.00  0.00     0.009 A 
HETATM   11  C   UNK N   1       5.973  -6.131   0.071  0.00  0.00     0.003 A 
HETATM   12  C   UNK N   1       4.732  -5.523  -0.150  0.00  0.00     0.029 A 
BRANCH   9  13
HETATM   13  C   UNK N   1       8.356  -3.319  -0.806  0.00  0.00     0.163 C 
BRANCH  13  14
HETATM   14  N   UNK N   1       8.252  -1.930  -0.427  0.00  0.00    -0.333 N 
HETATM   15  C   UNK N   1       9.282  -1.287   0.161  0.00  0.00     0.361 C 
HETATM   16  O   UNK N   1       9.154  -0.113   0.477  0.00  0.00    -0.238 OA
HETATM   17  H   UNK N   1       7.415  -1.443  -0.601  0.00  0.00     0.165 HD
BRANCH  15  18
HETATM   18  O   UNK N   1      10.449  -1.945   0.386  0.00  0.00    -0.296 OA
BRANCH  18  19
HETATM   19  C   UNK N   1      11.522  -1.421   1.078  0.00  0.00     0.159 C 
HETATM   20  C   UNK N   1      12.117  -0.249   0.346  0.00  0.00     0.061 C 
HETATM   21  C   UNK N   1      13.239  -0.861  -0.472  0.00  0.00     0.170 C 
HETATM   22  O   UNK N   1      13.239  -2.250  -0.261  0.00  0.00    -0.389 OA
HETATM   23  C   UNK N   1      12.652  -2.412   1.000  0.00  0.00     0.200 C 
ENDBRANCH  18  19
ENDBRANCH  15  18
ENDBRANCH  13  14
ENDBRANCH   9  13
ENDBRANCH   2   7
BRANCH   3  24
HETATM   24  C   UNK N   1       3.803  -0.066   0.265  0.00  0.00     0.039 A 
HETATM   25  C   UNK N   1       2.577   0.577   0.035  0.00  0.00     0.067 A 
HETATM   26  C   UNK N   1       2.493   1.978  -0.001  0.00  0.00     0.083 A 
HETATM   27  C   UNK N   1       3.673   2.737   0.171  0.00  0.00     0.033 A 
HETATM   28  C   UNK N   1       4.873   2.086   0.480  0.00  0.00     0.019 A 
HETATM   29  C   UNK N   1       4.936   0.697   0.535  0.00  0.00     0.030 A 
BRANCH  26  30
HETATM   30  O   UNK N   1       1.311   2.596  -0.252  0.00  0.00    -0.355 OA
HETATM   31  C   UNK N   1       0.117   1.922  -0.391  0.00  0.00     0.210 C 
ENDBRANCH  26  30
BRANCH  27  32
HETATM   32  C   UNK N   1       3.721   4.194  -0.057  0.00  0.00     0.105 A 
HETATM   33  O   UNK N   1       4.827   4.895  -0.028  0.00  0.00    -0.304 OA
HETATM   34  C   UNK N   1       4.539   6.123  -0.390  0.00  0.00     0.233 A 
HETATM   35  N   UNK N   1       3.224   6.243  -0.671  0.00  0.00    -0.354 N 
HETATM   36  C   UNK N   1       2.699   5.019  -0.468  0.00  0.00     0.127 A 
ATOM     37  HN  UNK N   1       2.732   7.083  -0.973  1.00  0.00     0.166 HD
ENDBRANCH  27  32
ENDBRANCH   3  24
TORSDOF 8
