REMARK  4 active torsions:
REMARK  status: ('A' for Active; 'I' for Inactive)
REMARK    1  A    between atoms: O_1  and  C_7 
REMARK    2  A    between atoms: N_3  and  C_6 
REMARK    3  A    between atoms: N_3  and  C_16 
REMARK       I    between atoms: N_4  and  C_17 
REMARK    4  A    between atoms: C_16  and  C_17 
ROOT
HETATM    1  O   UNK N   1       2.768   3.374   0.169  0.00  0.00    -0.272 OA
HETATM    2  N   UNK N   1       4.934   2.878  -0.144  0.00  0.00    -0.334 N 
HETATM    3  N   UNK N   1       6.419  -0.217   0.578  0.00  0.00    -0.195 NA
HETATM    4  C   UNK N   1       3.606   2.569  -0.219  0.00  0.00     0.238 C 
HETATM    5  C   UNK N   1       5.999   2.053  -0.672  0.00  0.00     0.194 C 
HETATM    6  C   UNK N   1       5.362   4.143   0.378  0.00  0.00     0.127 C 
HETATM    7  C   UNK N   1       7.263   2.863  -0.460  0.00  0.00     0.042 C 
HETATM    8  C   UNK N   1       6.840   4.230   0.061  0.00  0.00     0.023 C 
HETATM    9  C   UNK N   1       6.205   0.792   0.052  0.00  0.00     0.084 C 
ENDROOT
BRANCH   4  10
HETATM   10  C   UNK N   1       3.137   1.264  -0.772  0.00  0.00     0.218 C 
BRANCH  10  11
HETATM   11  N   UNK N   1       2.395   0.571   0.277  0.00  0.00    -0.404 N 
HETATM   12  H   UNK N   1       1.879   1.047   1.017  0.00  0.00     0.154 HD
BRANCH  11  13
HETATM   13  C   UNK N   1       2.477  -0.883   0.148  0.00  0.00     0.029 C 
HETATM   14  C   UNK N   1       3.937  -1.363   0.113  0.00  0.00     0.068 C 
HETATM   15  C   UNK N   1       4.013  -2.888   0.027  0.00  0.00     0.061 C 
HETATM   16  C   UNK N   1       3.325  -3.489   1.261  0.00  0.00     0.042 C 
HETATM   17  C   UNK N   1       3.291  -3.353  -1.246  0.00  0.00     0.042 C 
HETATM   18  C   UNK N   1       1.857  -3.035   1.308  0.00  0.00    -0.009 C 
HETATM   19  C   UNK N   1       1.799  -1.503   1.380  0.00  0.00     0.035 C 
HETATM   20  C   UNK N   1       1.140  -3.503   0.032  0.00  0.00     0.009 C 
HETATM   21  C   UNK N   1       1.821  -2.901  -1.208  0.00  0.00    -0.009 C 
HETATM   22  C   UNK N   1       1.755  -1.367  -1.123  0.00  0.00     0.035 C 
BRANCH  15  23
HETATM   23  O   UNK N   1       5.347  -3.292  -0.011  0.00  0.00    -0.390 OA
HETATM   24  H   UNK N   1       5.568  -4.236  -0.038  0.00  0.00     0.210 HD
ENDBRANCH  15  23
ENDBRANCH  11  13
ENDBRANCH  10  11
ENDBRANCH   4  10
TORSDOF 4
