MODEL 1
REMARK VINA RESULT:      -8.7      0.000      0.000
REMARK  10 active torsions:
REMARK  status: ('A' for Active; 'I' for Inactive)
REMARK    1  A    between atoms: C_2  and  O_66 
REMARK    2  A    between atoms: C_14  and  O_65 
REMARK    3  A    between atoms: C_16  and  N_18 
REMARK    4  A    between atoms: N_21  and  C_24 
REMARK    5  A    between atoms: C_24  and  C_25 
REMARK    6  A    between atoms: C_39  and  O_58 
REMARK    7  A    between atoms: C_41  and  O_59 
REMARK    8  A    between atoms: C_43  and  O_44 
REMARK    9  A    between atoms: O_44  and  C_62 
REMARK   10  A    between atoms: C_46  and  O_48 
ROOT
HETATM    1  C   UNK N   1      31.362  12.990   2.273  0.00  0.00     0.007 C 
HETATM    2  C   UNK N   1      31.111  14.038   3.072  0.00  0.00     0.089 C 
HETATM    3  C   UNK N   1      29.821  14.198   3.611  0.00  0.00     0.064 C 
HETATM    4  C   UNK N   1      28.707  13.437   3.068  0.00  0.00     0.027 C 
HETATM    5  C   UNK N   1      28.428  15.385   5.205  0.00  0.00     0.123 C 
HETATM    6  C   UNK N   1      29.676  15.081   4.680  0.00  0.00     0.215 C 
HETATM    7  C   UNK N   1      27.314  14.822   4.602  0.00  0.00     0.134 A 
HETATM    8  C   UNK N   1      27.416  13.794   3.517  0.00  0.00     0.082 A 
HETATM    9  N   UNK N   1      26.250  13.275   3.014  0.00  0.00    -0.349 N 
ATOM     10  HN  UNK N   1      26.272  12.504   2.346  1.00  0.00     0.166 HD
HETATM   11  O   UNK N   1      26.144  15.244   4.976  0.00  0.00    -0.303 OA
HETATM   12  C   UNK N   1      25.048  14.829   4.402  0.00  0.00     0.107 A 
HETATM   13  C   UNK N   1      25.051  13.812   3.423  0.00  0.00     0.100 A 
HETATM   14  C   UNK N   1      23.812  13.432   2.853  0.00  0.00     0.097 A 
HETATM   15  C   UNK N   1      22.626  14.132   3.213  0.00  0.00     0.068 A 
HETATM   16  C   UNK N   1      22.701  15.206   4.126  0.00  0.00     0.035 A 
HETATM   17  C   UNK N   1      23.909  15.498   4.718  0.00  0.00     0.069 A 
HETATM   18  O   UNK N   1      30.678  15.527   5.204  0.00  0.00    -0.285 OA
HETATM   19  N   UNK N   1      28.254  16.202   6.381  0.00  0.00    -0.317 N 
HETATM   20  C   UNK N   1      29.150  17.094   6.900  0.00  0.00     0.252 C 
HETATM   21  C   UNK N   1      29.062  17.509   8.326  0.00  0.00     0.006 C 
HETATM   22  O   UNK N   1      30.049  17.549   6.212  0.00  0.00    -0.268 OA
HETATM   23  C   UNK N   1      30.174  17.827   9.033  0.00  0.00     0.012 C 
HETATM   24  C   UNK N   1      27.751  17.448   9.036  0.00  0.00     0.054 C 
HETATM   25  C   UNK N   1      31.529  17.678   8.445  0.00  0.00    -0.003 C 
HETATM   26  C   UNK N   1      32.152  16.496   8.562  0.00  0.00    -0.020 C 
HETATM   27  C   UNK N   1      33.362  16.127   7.733  0.00  0.00     0.033 C 
HETATM   28  C   UNK N   1      34.633  16.427   8.510  0.00  0.00     0.017 C 
HETATM   29  C   UNK N   1      33.341  14.636   7.249  0.00  0.00     0.131 C 
HETATM   30  C   UNK N   1      33.927  14.461   5.811  0.00  0.00     0.040 C 
HETATM   31  C   UNK N   1      33.632  13.175   4.939  0.00  0.00     0.130 C 
HETATM   32  C   UNK N   1      34.737  12.131   4.640  0.00  0.00     0.041 C 
HETATM   33  C   UNK N   1      34.794  11.411   3.221  0.00  0.00     0.144 C 
HETATM   34  C   UNK N   1      33.644  10.432   2.736  0.00  0.00     0.044 C 
HETATM   35  C   UNK N   1      33.715   9.756   1.283  0.00  0.00     0.151 C 
HETATM   36  C   UNK N   1      33.218   9.438   3.797  0.00  0.00     0.015 C 
HETATM   37  C   UNK N   1      32.309   9.429   0.724  0.00  0.00     0.029 C 
HETATM   38  C   UNK N   1      31.604   9.881  -0.390  0.00  0.00     0.137 C 
HETATM   39  C   UNK N   1      29.043  12.363   2.171  0.00  0.00     0.063 C 
HETATM   40  C   UNK N   1      30.351  12.122   2.006  0.00  0.00     0.096 C 
HETATM   41  O   UNK N   1      30.597  10.936   1.566  0.00  0.00    -0.305 OA
HETATM   42  C   UNK N   1      29.596  10.277   0.944  0.00  0.00     0.237 C 
HETATM   43  C   UNK N   1      28.454  11.281   1.317  0.00  0.00     0.225 C 
HETATM   44  O   UNK N   1      27.273  11.162   1.028  0.00  0.00    -0.286 OA
HETATM   45  C   UNK N   1      34.999  11.210   5.820  0.00  0.00     0.015 C 
HETATM   46  C   UNK N   1      35.357  14.963   5.675  0.00  0.00     0.015 C 
HETATM   47  C   UNK N   1      32.705  12.808   1.672  0.00  0.00     0.054 C 
HETATM   48  C   UNK N   1      29.294   8.942   1.609  0.00  0.00     0.089 C 
HETATM   49  O   UNK N   1      30.189  10.028  -0.319  0.00  0.00    -0.319 OA
HETATM   50  H   UNK N   1      27.399  16.107   6.860  0.00  0.00     0.169 HD
ENDROOT
BRANCH  16  51
HETATM   51  N   UNK N   1      21.632  16.112   4.380  0.00  0.00    -0.377 N 
HETATM   52  C   UNK N   1      21.580  16.992   5.519  0.00  0.00     0.153 C 
HETATM   53  C   UNK N   1      21.478  18.446   4.989  0.00  0.00     0.292 C 
HETATM   54  N   UNK N   1      20.427  18.585   3.959  0.00  0.00     0.091 N 
HETATM   55  C   UNK N   1      20.708  17.675   2.854  0.00  0.00     0.292 C 
HETATM   56  C   UNK N   1      20.614  16.269   3.366  0.00  0.00     0.153 C 
BRANCH  54  57
HETATM   57  C   UNK N   1      20.453  19.953   3.440  0.00  0.00     0.276 C 
BRANCH  57  58
HETATM   58  C   UNK N   1      21.408  20.098   2.248  0.00  0.00     0.006 C 
HETATM   59  C   UNK N   1      20.748  20.913   1.158  0.00  0.00     0.011 C 
HETATM   60  C   UNK N   1      22.691  20.804   2.660  0.00  0.00     0.011 C 
ENDBRANCH  57  58
ENDBRANCH  54  57
ENDBRANCH  16  51
BRANCH  14  61
HETATM   61  O   UNK N   1      23.756  12.458   1.929  0.00  0.00    -0.358 OA
HETATM   62  H   UNK N   1      24.544  12.135   1.534  0.00  0.00     0.217 HD
ENDBRANCH  14  61
BRANCH   2  63
HETATM   63  O   UNK N   1      32.121  14.884   3.357  0.00  0.00    -0.359 OA
HETATM   64  H   UNK N   1      32.873  15.057   2.825  0.00  0.00     0.217 HD
ENDBRANCH   2  63
BRANCH  35  65
HETATM   65  O   UNK N   1      34.480  10.500   0.386  0.00  0.00    -0.386 OA
HETATM   66  C   UNK N   1      35.342   9.552  -0.176  0.00  0.00     0.202 C 
ENDBRANCH  35  65
BRANCH  29  67
HETATM   67  O   UNK N   1      32.031  14.151   7.283  0.00  0.00    -0.394 OA
HETATM   68  H   UNK N   1      31.225  14.686   7.215  0.00  0.00     0.210 HD
ENDBRANCH  29  67
BRANCH  33  69
HETATM   69  O   UNK N   1      36.037  10.843   3.024  0.00  0.00    -0.315 OA
BRANCH  69  70
HETATM   70  C   UNK N   1      37.148  11.569   2.720  0.00  0.00     0.255 C 
HETATM   71  C   UNK N   1      37.071  12.615   1.665  0.00  0.00     0.126 C 
HETATM   72  O   UNK N   1      38.207  11.379   3.302  0.00  0.00    -0.266 OA
ENDBRANCH  69  70
ENDBRANCH  33  69
BRANCH  31  73
HETATM   73  O   UNK N   1      32.420  12.562   5.261  0.00  0.00    -0.395 OA
HETATM   74  H   UNK N   1      31.958  12.410   6.099  0.00  0.00     0.210 HD
ENDBRANCH  31  73
TORSDOF 10
ENDMDL
MODEL 2
REMARK VINA RESULT:      -8.2      3.705     12.181
REMARK  10 active torsions:
REMARK  status: ('A' for Active; 'I' for Inactive)
REMARK    1  A    between atoms: C_2  and  O_66 
REMARK    2  A    between atoms: C_14  and  O_65 
REMARK    3  A    between atoms: C_16  and  N_18 
REMARK    4  A    between atoms: N_21  and  C_24 
REMARK    5  A    between atoms: C_24  and  C_25 
REMARK    6  A    between atoms: C_39  and  O_58 
REMARK    7  A    between atoms: C_41  and  O_59 
REMARK    8  A    between atoms: C_43  and  O_44 
REMARK    9  A    between atoms: O_44  and  C_62 
REMARK   10  A    between atoms: C_46  and  O_48 
ROOT
HETATM    1  C   UNK N   1      29.136  15.843   4.564  0.00  0.00     0.007 C 
HETATM    2  C   UNK N   1      29.900  14.784   4.257  0.00  0.00     0.089 C 
HETATM    3  C   UNK N   1      30.851  14.329   5.190  0.00  0.00     0.064 C 
HETATM    4  C   UNK N   1      31.224  15.170   6.317  0.00  0.00     0.027 C 
HETATM    5  C   UNK N   1      32.406  12.568   5.797  0.00  0.00     0.123 C 
HETATM    6  C   UNK N   1      31.386  13.056   4.994  0.00  0.00     0.215 C 
HETATM    7  C   UNK N   1      32.922  13.405   6.776  0.00  0.00     0.134 A 
HETATM    8  C   UNK N   1      32.323  14.740   7.093  0.00  0.00     0.082 A 
HETATM    9  N   UNK N   1      32.889  15.473   8.105  0.00  0.00    -0.349 N 
ATOM     10  HN  UNK N   1      32.456  16.340   8.421  1.00  0.00     0.166 HD
HETATM   11  O   UNK N   1      33.990  13.016   7.403  0.00  0.00    -0.303 OA
HETATM   12  C   UNK N   1      34.588  13.777   8.278  0.00  0.00     0.107 A 
HETATM   13  C   UNK N   1      34.051  15.018   8.686  0.00  0.00     0.100 A 
HETATM   14  C   UNK N   1      34.775  15.777   9.638  0.00  0.00     0.097 A 
HETATM   15  C   UNK N   1      36.045  15.319  10.086  0.00  0.00     0.068 A 
HETATM   16  C   UNK N   1      36.575  14.117   9.569  0.00  0.00     0.035 A 
HETATM   17  C   UNK N   1      35.810  13.366   8.704  0.00  0.00     0.069 A 
HETATM   18  O   UNK N   1      30.885  12.340   4.149  0.00  0.00    -0.285 OA
HETATM   19  N   UNK N   1      32.900  11.217   5.696  0.00  0.00    -0.317 N 
HETATM   20  C   UNK N   1      32.778  10.376   4.624  0.00  0.00     0.252 C 
HETATM   21  C   UNK N   1      32.898   8.904   4.802  0.00  0.00     0.006 C 
HETATM   22  O   UNK N   1      32.547  10.815   3.510  0.00  0.00    -0.268 OA
HETATM   23  C   UNK N   1      32.203   8.045   4.017  0.00  0.00     0.012 C 
HETATM   24  C   UNK N   1      33.689   8.358   5.943  0.00  0.00     0.054 C 
HETATM   25  C   UNK N   1      31.219   8.537   3.020  0.00  0.00    -0.003 C 
HETATM   26  C   UNK N   1      29.953   8.738   3.413  0.00  0.00    -0.020 C 
HETATM   27  C   UNK N   1      28.963   9.537   2.596  0.00  0.00     0.033 C 
HETATM   28  C   UNK N   1      28.130   8.604   1.733  0.00  0.00     0.017 C 
HETATM   29  C   UNK N   1      28.046  10.456   3.474  0.00  0.00     0.131 C 
HETATM   30  C   UNK N   1      27.731  11.825   2.789  0.00  0.00     0.040 C 
HETATM   31  C   UNK N   1      27.210  13.072   3.612  0.00  0.00     0.130 C 
HETATM   32  C   UNK N   1      25.755  13.584   3.465  0.00  0.00     0.041 C 
HETATM   33  C   UNK N   1      25.449  15.147   3.515  0.00  0.00     0.144 C 
HETATM   34  C   UNK N   1      25.690  16.002   4.829  0.00  0.00     0.044 C 
HETATM   35  C   UNK N   1      25.410  17.580   4.831  0.00  0.00     0.151 C 
HETATM   36  C   UNK N   1      25.158  15.336   6.082  0.00  0.00     0.015 C 
HETATM   37  C   UNK N   1      26.287  18.327   5.865  0.00  0.00     0.029 C 
HETATM   38  C   UNK N   1      27.275  19.302   5.741  0.00  0.00     0.137 C 
HETATM   39  C   UNK N   1      30.396  16.322   6.555  0.00  0.00     0.063 C 
HETATM   40  C   UNK N   1      29.318  16.446   5.768  0.00  0.00     0.096 C 
HETATM   41  O   UNK N   1      28.407  17.207   6.271  0.00  0.00    -0.305 OA
HETATM   42  C   UNK N   1      28.778  18.081   7.230  0.00  0.00     0.237 C 
HETATM   43  C   UNK N   1      30.221  17.513   7.449  0.00  0.00     0.225 C 
HETATM   44  O   UNK N   1      31.035  17.921   8.264  0.00  0.00    -0.286 OA
HETATM   45  C   UNK N   1      24.759  12.727   4.227  0.00  0.00     0.015 C 
HETATM   46  C   UNK N   1      27.063  11.682   1.430  0.00  0.00     0.015 C 
HETATM   47  C   UNK N   1      28.141  16.357   3.593  0.00  0.00     0.054 C 
HETATM   48  C   UNK N   1      27.988  17.885   8.516  0.00  0.00     0.089 C 
HETATM   49  O   UNK N   1      28.381  19.306   6.638  0.00  0.00    -0.319 OA
HETATM   50  H   UNK N   1      33.376  10.862   6.481  0.00  0.00     0.169 HD
ENDROOT
BRANCH  16  51
HETATM   51  N   UNK N   1      37.916  13.686   9.770  0.00  0.00    -0.377 N 
HETATM   52  C   UNK N   1      38.302  12.687  10.734  0.00  0.00     0.153 C 
HETATM   53  C   UNK N   1      39.011  11.539   9.969  0.00  0.00     0.292 C 
HETATM   54  N   UNK N   1      40.049  12.050   9.049  0.00  0.00     0.091 N 
HETATM   55  C   UNK N   1      39.442  12.976   8.099  0.00  0.00     0.292 C 
HETATM   56  C   UNK N   1      38.931  14.163   8.859  0.00  0.00     0.153 C 
BRANCH  54  57
HETATM   57  C   UNK N   1      40.605  10.925   8.295  0.00  0.00     0.276 C 
BRANCH  57  58
HETATM   58  C   UNK N   1      42.056  10.624   8.698  0.00  0.00     0.006 C 
HETATM   59  C   UNK N   1      42.375   9.172   8.418  0.00  0.00     0.011 C 
HETATM   60  C   UNK N   1      43.030  11.487   7.909  0.00  0.00     0.011 C 
ENDBRANCH  57  58
ENDBRANCH  54  57
ENDBRANCH  16  51
BRANCH  14  61
HETATM   61  O   UNK N   1      34.300  16.958  10.072  0.00  0.00    -0.358 OA
HETATM   62  H   UNK N   1      33.716  16.991  10.804  0.00  0.00     0.217 HD
ENDBRANCH  14  61
BRANCH   2  63
HETATM   63  O   UNK N   1      29.702  14.170   3.073  0.00  0.00    -0.359 OA
HETATM   64  H   UNK N   1      30.030  14.444   2.240  0.00  0.00     0.217 HD
ENDBRANCH   2  63
BRANCH  35  65
HETATM   65  O   UNK N   1      25.504  18.140   3.557  0.00  0.00    -0.386 OA
HETATM   66  C   UNK N   1      24.438  19.045   3.516  0.00  0.00     0.202 C 
ENDBRANCH  35  65
BRANCH  29  67
HETATM   67  O   UNK N   1      28.654  10.680   4.712  0.00  0.00    -0.394 OA
HETATM   68  H   UNK N   1      29.574  10.952   4.851  0.00  0.00     0.210 HD
ENDBRANCH  29  67
BRANCH  33  69
HETATM   69  O   UNK N   1      24.202  15.405   2.983  0.00  0.00    -0.315 OA
BRANCH  69  70
HETATM   70  C   UNK N   1      23.752  14.839   1.830  0.00  0.00     0.255 C 
HETATM   71  C   UNK N   1      22.338  14.385   1.742  0.00  0.00     0.126 C 
HETATM   72  O   UNK N   1      24.489  14.701   0.863  0.00  0.00    -0.266 OA
ENDBRANCH  69  70
ENDBRANCH  33  69
BRANCH  31  73
HETATM   73  O   UNK N   1      27.616  13.054   4.947  0.00  0.00    -0.395 OA
HETATM   74  H   UNK N   1      27.953  13.737   5.546  0.00  0.00     0.210 HD
ENDBRANCH  31  73
TORSDOF 10
ENDMDL
MODEL 3
REMARK VINA RESULT:      -8.2      1.354      2.057
REMARK  10 active torsions:
REMARK  status: ('A' for Active; 'I' for Inactive)
REMARK    1  A    between atoms: C_2  and  O_66 
REMARK    2  A    between atoms: C_14  and  O_65 
REMARK    3  A    between atoms: C_16  and  N_18 
REMARK    4  A    between atoms: N_21  and  C_24 
REMARK    5  A    between atoms: C_24  and  C_25 
REMARK    6  A    between atoms: C_39  and  O_58 
REMARK    7  A    between atoms: C_41  and  O_59 
REMARK    8  A    between atoms: C_43  and  O_44 
REMARK    9  A    between atoms: O_44  and  C_62 
REMARK   10  A    between atoms: C_46  and  O_48 
ROOT
HETATM    1  C   UNK N   1      31.925  13.143   2.238  0.00  0.00     0.007 C 
HETATM    2  C   UNK N   1      31.570  14.145   3.056  0.00  0.00     0.089 C 
HETATM    3  C   UNK N   1      30.247  14.207   3.533  0.00  0.00     0.064 C 
HETATM    4  C   UNK N   1      29.211  13.400   2.909  0.00  0.00     0.027 C 
HETATM    5  C   UNK N   1      28.706  15.251   5.089  0.00  0.00     0.123 C 
HETATM    6  C   UNK N   1      29.994  15.042   4.620  0.00  0.00     0.215 C 
HETATM    7  C   UNK N   1      27.660  14.642   4.412  0.00  0.00     0.134 A 
HETATM    8  C   UNK N   1      27.880  13.661   3.302  0.00  0.00     0.082 A 
HETATM    9  N   UNK N   1      26.775  13.090   2.723  0.00  0.00    -0.349 N 
ATOM     10  HN  UNK N   1      26.878  12.345   2.034  1.00  0.00     0.166 HD
HETATM   11  O   UNK N   1      26.449  14.980   4.739  0.00  0.00    -0.303 OA
HETATM   12  C   UNK N   1      25.411  14.519   4.096  0.00  0.00     0.107 A 
HETATM   13  C   UNK N   1      25.526  13.538   3.087  0.00  0.00     0.100 A 
HETATM   14  C   UNK N   1      24.342  13.104   2.442  0.00  0.00     0.097 A 
HETATM   15  C   UNK N   1      23.099  13.717   2.762  0.00  0.00     0.068 A 
HETATM   16  C   UNK N   1      23.061  14.761   3.711  0.00  0.00     0.035 A 
HETATM   17  C   UNK N   1      24.218  15.106   4.374  0.00  0.00     0.069 A 
HETATM   18  O   UNK N   1      30.939  15.530   5.209  0.00  0.00    -0.285 OA
HETATM   19  N   UNK N   1      28.422  16.014   6.280  0.00  0.00    -0.317 N 
HETATM   20  C   UNK N   1      29.234  16.941   6.873  0.00  0.00     0.252 C 
HETATM   21  C   UNK N   1      29.050  17.300   8.305  0.00  0.00     0.006 C 
HETATM   22  O   UNK N   1      30.136  17.473   6.247  0.00  0.00    -0.268 OA
HETATM   23  C   UNK N   1      30.104  17.660   9.078  0.00  0.00     0.012 C 
HETATM   24  C   UNK N   1      27.712  17.135   8.944  0.00  0.00     0.054 C 
HETATM   25  C   UNK N   1      31.493  17.615   8.556  0.00  0.00    -0.003 C 
HETATM   26  C   UNK N   1      32.182  16.469   8.668  0.00  0.00    -0.020 C 
HETATM   27  C   UNK N   1      33.452  16.204   7.891  0.00  0.00     0.033 C 
HETATM   28  C   UNK N   1      34.662  16.554   8.742  0.00  0.00     0.017 C 
HETATM   29  C   UNK N   1      33.548  14.732   7.359  0.00  0.00     0.131 C 
HETATM   30  C   UNK N   1      34.215  14.643   5.949  0.00  0.00     0.040 C 
HETATM   31  C   UNK N   1      34.044  13.373   5.022  0.00  0.00     0.130 C 
HETATM   32  C   UNK N   1      35.226  12.409   4.748  0.00  0.00     0.041 C 
HETATM   33  C   UNK N   1      35.398  11.744   3.312  0.00  0.00     0.144 C 
HETATM   34  C   UNK N   1      34.337  10.714   2.737  0.00  0.00     0.044 C 
HETATM   35  C   UNK N   1      34.522  10.095   1.270  0.00  0.00     0.151 C 
HETATM   36  C   UNK N   1      33.922   9.660   3.743  0.00  0.00     0.015 C 
HETATM   37  C   UNK N   1      33.169   9.702   0.629  0.00  0.00     0.029 C 
HETATM   38  C   UNK N   1      32.493  10.149  -0.506  0.00  0.00     0.137 C 
HETATM   39  C   UNK N   1      29.658  12.380   1.997  0.00  0.00     0.063 C 
HETATM   40  C   UNK N   1      30.985  12.225   1.892  0.00  0.00     0.096 C 
HETATM   41  O   UNK N   1      31.326  11.071   1.428  0.00  0.00    -0.305 OA
HETATM   42  C   UNK N   1      30.401  10.375   0.735  0.00  0.00     0.237 C 
HETATM   43  C   UNK N   1      29.180  11.295   1.080  0.00  0.00     0.225 C 
HETATM   44  O   UNK N   1      28.025  11.113   0.726  0.00  0.00    -0.286 OA
HETATM   45  C   UNK N   1      35.486  11.466   5.910  0.00  0.00     0.015 C 
HETATM   46  C   UNK N   1      35.615  15.236   5.903  0.00  0.00     0.015 C 
HETATM   47  C   UNK N   1      33.305  13.064   1.702  0.00  0.00     0.054 C 
HETATM   48  C   UNK N   1      30.150   9.002   1.341  0.00  0.00     0.089 C 
HETATM   49  O   UNK N   1      31.070  10.207  -0.503  0.00  0.00    -0.319 OA
HETATM   50  H   UNK N   1      27.553  15.851   6.711  0.00  0.00     0.169 HD
ENDROOT
BRANCH  16  51
HETATM   51  N   UNK N   1      21.927  15.590   3.938  0.00  0.00    -0.377 N 
HETATM   52  C   UNK N   1      20.580  15.224   3.581  0.00  0.00     0.153 C 
HETATM   53  C   UNK N   1      19.722  15.255   4.872  0.00  0.00     0.292 C 
HETATM   54  N   UNK N   1      19.919  16.506   5.635  0.00  0.00     0.091 N 
HETATM   55  C   UNK N   1      21.330  16.649   5.975  0.00  0.00     0.292 C 
HETATM   56  C   UNK N   1      22.109  16.803   4.704  0.00  0.00     0.153 C 
BRANCH  54  57
HETATM   57  C   UNK N   1      19.156  16.423   6.880  0.00  0.00     0.276 C 
BRANCH  57  58
HETATM   58  C   UNK N   1      20.035  16.685   8.112  0.00  0.00     0.006 C 
HETATM   59  C   UNK N   1      19.479  17.850   8.900  0.00  0.00     0.011 C 
HETATM   60  C   UNK N   1      20.072  15.468   9.023  0.00  0.00     0.011 C 
ENDBRANCH  57  58
ENDBRANCH  54  57
ENDBRANCH  16  51
BRANCH  14  61
HETATM   61  O   UNK N   1      24.394  12.160   1.485  0.00  0.00    -0.358 OA
HETATM   62  H   UNK N   1      24.293  12.396   0.584  0.00  0.00     0.217 HD
ENDBRANCH  14  61
BRANCH   2  63
HETATM   63  O   UNK N   1      32.509  15.041   3.420  0.00  0.00    -0.359 OA
HETATM   64  H   UNK N   1      32.394  15.967   3.510  0.00  0.00     0.217 HD
ENDBRANCH   2  63
BRANCH  35  65
HETATM   65  O   UNK N   1      35.283  10.914   0.437  0.00  0.00    -0.386 OA
HETATM   66  C   UNK N   1      36.254  10.049  -0.079  0.00  0.00     0.202 C 
ENDBRANCH  35  65
BRANCH  29  67
HETATM   67  O   UNK N   1      32.271  14.167   7.311  0.00  0.00    -0.394 OA
HETATM   68  H   UNK N   1      31.459  14.622   7.039  0.00  0.00     0.210 HD
ENDBRANCH  29  67
BRANCH  33  69
HETATM   69  O   UNK N   1      36.683  11.260   3.161  0.00  0.00    -0.315 OA
BRANCH  69  70
HETATM   70  C   UNK N   1      37.770  12.066   3.016  0.00  0.00     0.255 C 
HETATM   71  C   UNK N   1      37.782  13.090   1.937  0.00  0.00     0.126 C 
HETATM   72  O   UNK N   1      38.736  11.966   3.761  0.00  0.00    -0.266 OA
ENDBRANCH  69  70
ENDBRANCH  33  69
BRANCH  31  73
HETATM   73  O   UNK N   1      32.859  12.677   5.262  0.00  0.00    -0.395 OA
HETATM   74  H   UNK N   1      32.441  11.913   4.835  0.00  0.00     0.210 HD
ENDBRANCH  31  73
TORSDOF 10
ENDMDL
MODEL 4
REMARK VINA RESULT:      -7.9      3.493     11.022
REMARK  10 active torsions:
REMARK  status: ('A' for Active; 'I' for Inactive)
REMARK    1  A    between atoms: C_2  and  O_66 
REMARK    2  A    between atoms: C_14  and  O_65 
REMARK    3  A    between atoms: C_16  and  N_18 
REMARK    4  A    between atoms: N_21  and  C_24 
REMARK    5  A    between atoms: C_24  and  C_25 
REMARK    6  A    between atoms: C_39  and  O_58 
REMARK    7  A    between atoms: C_41  and  O_59 
REMARK    8  A    between atoms: C_43  and  O_44 
REMARK    9  A    between atoms: O_44  and  C_62 
REMARK   10  A    between atoms: C_46  and  O_48 
ROOT
HETATM    1  C   UNK N   1      23.714  11.278   4.714  0.00  0.00     0.007 C 
HETATM    2  C   UNK N   1      23.756  12.595   4.965  0.00  0.00     0.089 C 
HETATM    3  C   UNK N   1      24.969  13.289   4.796  0.00  0.00     0.064 C 
HETATM    4  C   UNK N   1      26.216  12.552   4.665  0.00  0.00     0.027 C 
HETATM    5  C   UNK N   1      26.062  15.452   4.683  0.00  0.00     0.123 C 
HETATM    6  C   UNK N   1      24.911  14.681   4.739  0.00  0.00     0.215 C 
HETATM    7  C   UNK N   1      27.285  14.801   4.738  0.00  0.00     0.134 A 
HETATM    8  C   UNK N   1      27.408  13.309   4.701  0.00  0.00     0.082 A 
HETATM    9  N   UNK N   1      28.668  12.769   4.725  0.00  0.00    -0.349 N 
ATOM     10  HN  UNK N   1      28.803  11.765   4.603  1.00  0.00     0.166 HD
HETATM   11  O   UNK N   1      28.353  15.529   4.867  0.00  0.00    -0.303 OA
HETATM   12  C   UNK N   1      29.535  14.995   5.010  0.00  0.00     0.107 A 
HETATM   13  C   UNK N   1      29.746  13.601   4.916  0.00  0.00     0.100 A 
HETATM   14  C   UNK N   1      31.064  13.115   5.091  0.00  0.00     0.097 A 
HETATM   15  C   UNK N   1      32.109  14.016   5.436  0.00  0.00     0.068 A 
HETATM   16  C   UNK N   1      31.818  15.386   5.611  0.00  0.00     0.035 A 
HETATM   17  C   UNK N   1      30.542  15.837   5.358  0.00  0.00     0.069 A 
HETATM   18  O   UNK N   1      23.821  15.212   4.658  0.00  0.00    -0.285 OA
HETATM   19  N   UNK N   1      26.034  16.884   4.507  0.00  0.00    -0.317 N 
HETATM   20  C   UNK N   1      24.986  17.722   4.764  0.00  0.00     0.252 C 
HETATM   21  C   UNK N   1      24.912  19.060   4.118  0.00  0.00     0.006 C 
HETATM   22  O   UNK N   1      24.082  17.381   5.509  0.00  0.00    -0.268 OA
HETATM   23  C   UNK N   1      23.719  19.626   3.813  0.00  0.00     0.012 C 
HETATM   24  C   UNK N   1      26.165  19.737   3.673  0.00  0.00     0.054 C 
HETATM   25  C   UNK N   1      22.444  18.894   4.019  0.00  0.00    -0.003 C 
HETATM   26  C   UNK N   1      21.989  18.109   3.030  0.00  0.00    -0.020 C 
HETATM   27  C   UNK N   1      20.906  17.076   3.244  0.00  0.00     0.033 C 
HETATM   28  C   UNK N   1      19.554  17.658   2.870  0.00  0.00     0.017 C 
HETATM   29  C   UNK N   1      21.174  15.739   2.470  0.00  0.00     0.131 C 
HETATM   30  C   UNK N   1      20.722  14.477   3.272  0.00  0.00     0.040 C 
HETATM   31  C   UNK N   1      21.258  13.029   2.926  0.00  0.00     0.130 C 
HETATM   32  C   UNK N   1      20.337  11.958   2.292  0.00  0.00     0.041 C 
HETATM   33  C   UNK N   1      20.484  10.428   2.710  0.00  0.00     0.144 C 
HETATM   34  C   UNK N   1      21.793   9.595   2.380  0.00  0.00     0.044 C 
HETATM   35  C   UNK N   1      21.922   8.069   2.853  0.00  0.00     0.151 C 
HETATM   36  C   UNK N   1      22.281   9.786   0.958  0.00  0.00     0.015 C 
HETATM   37  C   UNK N   1      23.396   7.648   3.069  0.00  0.00     0.029 C 
HETATM   38  C   UNK N   1      24.106   7.229   4.193  0.00  0.00     0.137 C 
HETATM   39  C   UNK N   1      26.100  11.133   4.455  0.00  0.00     0.063 C 
HETATM   40  C   UNK N   1      24.855  10.659   4.312  0.00  0.00     0.096 C 
HETATM   41  O   UNK N   1      24.812   9.515   3.716  0.00  0.00    -0.305 OA
HETATM   42  C   UNK N   1      25.938   8.771   3.706  0.00  0.00     0.237 C 
HETATM   43  C   UNK N   1      26.896   9.877   4.264  0.00  0.00     0.225 C 
HETATM   44  O   UNK N   1      28.100   9.760   4.439  0.00  0.00    -0.286 OA
HETATM   45  C   UNK N   1      20.127  12.182   0.804  0.00  0.00     0.015 C 
HETATM   46  C   UNK N   1      19.248  14.496   3.651  0.00  0.00     0.015 C 
HETATM   47  C   UNK N   1      22.457  10.516   4.905  0.00  0.00     0.054 C 
HETATM   48  C   UNK N   1      26.380   8.426   2.291  0.00  0.00     0.089 C 
HETATM   49  O   UNK N   1      25.477   7.588   4.336  0.00  0.00    -0.319 OA
HETATM   50  H   UNK N   1      26.857  17.301   4.165  0.00  0.00     0.169 HD
ENDROOT
BRANCH  16  51
HETATM   51  N   UNK N   1      32.726  16.329   6.172  0.00  0.00    -0.377 N 
HETATM   52  C   UNK N   1      32.317  17.488   6.923  0.00  0.00     0.153 C 
HETATM   53  C   UNK N   1      32.968  17.396   8.328  0.00  0.00     0.292 C 
HETATM   54  N   UNK N   1      34.414  17.100   8.246  0.00  0.00     0.091 N 
HETATM   55  C   UNK N   1      34.612  15.846   7.527  0.00  0.00     0.292 C 
HETATM   56  C   UNK N   1      34.139  16.032   6.116  0.00  0.00     0.153 C 
BRANCH  54  57
HETATM   57  C   UNK N   1      34.937  16.934   9.603  0.00  0.00     0.276 C 
BRANCH  57  58
HETATM   58  C   UNK N   1      35.201  15.459   9.941  0.00  0.00     0.006 C 
HETATM   59  C   UNK N   1      36.576  15.313  10.555  0.00  0.00     0.011 C 
HETATM   60  C   UNK N   1      34.177  14.938  10.938  0.00  0.00     0.011 C 
ENDBRANCH  57  58
ENDBRANCH  54  57
ENDBRANCH  16  51
BRANCH  14  61
HETATM   61  O   UNK N   1      31.323  11.799   4.996  0.00  0.00    -0.358 OA
HETATM   62  H   UNK N   1      31.138  11.227   5.716  0.00  0.00     0.217 HD
ENDBRANCH  14  61
BRANCH   2  63
HETATM   63  O   UNK N   1      22.618  13.214   5.339  0.00  0.00    -0.359 OA
HETATM   64  H   UNK N   1      22.527  14.113   5.589  0.00  0.00     0.217 HD
ENDBRANCH   2  63
BRANCH  35  65
HETATM   65  O   UNK N   1      21.124   7.784   3.960  0.00  0.00    -0.386 OA
HETATM   66  C   UNK N   1      20.461   6.607   3.594  0.00  0.00     0.202 C 
ENDBRANCH  35  65
BRANCH  29  67
HETATM   67  O   UNK N   1      22.534  15.638   2.165  0.00  0.00    -0.394 OA
HETATM   68  H   UNK N   1      23.048  16.277   1.649  0.00  0.00     0.210 HD
ENDBRANCH  29  67
BRANCH  33  69
HETATM   69  O   UNK N   1      19.351   9.725   2.350  0.00  0.00    -0.315 OA
BRANCH  69  70
HETATM   70  C   UNK N   1      18.202   9.742   3.079  0.00  0.00     0.255 C 
HETATM   71  C   UNK N   1      18.276   9.688   4.563  0.00  0.00     0.126 C 
HETATM   72  O   UNK N   1      17.108   9.805   2.534  0.00  0.00    -0.266 OA
ENDBRANCH  69  70
ENDBRANCH  33  69
BRANCH  31  73
HETATM   73  O   UNK N   1      22.519  13.043   2.328  0.00  0.00    -0.395 OA
HETATM   74  H   UNK N   1      22.818  13.178   1.416  0.00  0.00     0.210 HD
ENDBRANCH  31  73
TORSDOF 10
ENDMDL
MODEL 5
REMARK VINA RESULT:      -7.8      7.102     12.909
REMARK  10 active torsions:
REMARK  status: ('A' for Active; 'I' for Inactive)
REMARK    1  A    between atoms: C_2  and  O_66 
REMARK    2  A    between atoms: C_14  and  O_65 
REMARK    3  A    between atoms: C_16  and  N_18 
REMARK    4  A    between atoms: N_21  and  C_24 
REMARK    5  A    between atoms: C_24  and  C_25 
REMARK    6  A    between atoms: C_39  and  O_58 
REMARK    7  A    between atoms: C_41  and  O_59 
REMARK    8  A    between atoms: C_43  and  O_44 
REMARK    9  A    between atoms: O_44  and  C_62 
REMARK   10  A    between atoms: C_46  and  O_48 
ROOT
HETATM    1  C   UNK N   1      34.368  12.388   7.044  0.00  0.00     0.007 C 
HETATM    2  C   UNK N   1      34.520  11.103   7.400  0.00  0.00     0.089 C 
HETATM    3  C   UNK N   1      34.353  10.740   8.749  0.00  0.00     0.064 C 
HETATM    4  C   UNK N   1      34.335  11.765   9.781  0.00  0.00     0.027 C 
HETATM    5  C   UNK N   1      34.126   8.922  10.341  0.00  0.00     0.123 C 
HETATM    6  C   UNK N   1      34.188   9.385   9.035  0.00  0.00     0.215 C 
HETATM    7  C   UNK N   1      34.285   9.843  11.366  0.00  0.00     0.134 A 
HETATM    8  C   UNK N   1      34.367  11.318  11.121  0.00  0.00     0.082 A 
HETATM    9  N   UNK N   1      34.488  12.143  12.210  0.00  0.00    -0.349 N 
ATOM     10  HN  UNK N   1      34.448  13.156  12.098  1.00  0.00     0.166 HD
HETATM   11  O   UNK N   1      34.405   9.387  12.576  0.00  0.00    -0.303 OA
HETATM   12  C   UNK N   1      34.641  10.177  13.587  0.00  0.00     0.107 A 
HETATM   13  C   UNK N   1      34.663  11.583  13.454  0.00  0.00     0.100 A 
HETATM   14  C   UNK N   1      34.934  12.357  14.608  0.00  0.00     0.097 A 
HETATM   15  C   UNK N   1      35.255  11.709  15.833  0.00  0.00     0.068 A 
HETATM   16  C   UNK N   1      35.312  10.299  15.882  0.00  0.00     0.035 A 
HETATM   17  C   UNK N   1      34.969   9.577  14.761  0.00  0.00     0.069 A 
HETATM   18  O   UNK N   1      34.018   8.614   8.111  0.00  0.00    -0.285 OA
HETATM   19  N   UNK N   1      33.841   7.547  10.669  0.00  0.00    -0.317 N 
HETATM   20  C   UNK N   1      33.986   6.461   9.851  0.00  0.00     0.252 C 
HETATM   21  C   UNK N   1      33.238   5.205  10.123  0.00  0.00     0.006 C 
HETATM   22  O   UNK N   1      34.714   6.509   8.873  0.00  0.00    -0.268 OA
HETATM   23  C   UNK N   1      32.837   4.395   9.113  0.00  0.00     0.012 C 
HETATM   24  C   UNK N   1      32.799   4.891  11.514  0.00  0.00     0.054 C 
HETATM   25  C   UNK N   1      33.041   4.777   7.693  0.00  0.00    -0.003 C 
HETATM   26  C   UNK N   1      32.096   5.510   7.084  0.00  0.00    -0.020 C 
HETATM   27  C   UNK N   1      32.338   6.228   5.777  0.00  0.00     0.033 C 
HETATM   28  C   UNK N   1      31.861   5.369   4.617  0.00  0.00     0.017 C 
HETATM   29  C   UNK N   1      31.681   7.650   5.728  0.00  0.00     0.131 C 
HETATM   30  C   UNK N   1      32.556   8.693   4.962  0.00  0.00     0.040 C 
HETATM   31  C   UNK N   1      32.344  10.251   5.136  0.00  0.00     0.130 C 
HETATM   32  C   UNK N   1      31.752  11.118   3.997  0.00  0.00     0.041 C 
HETATM   33  C   UNK N   1      32.292  12.597   3.754  0.00  0.00     0.144 C 
HETATM   34  C   UNK N   1      32.085  13.746   4.828  0.00  0.00     0.044 C 
HETATM   35  C   UNK N   1      32.678  15.213   4.567  0.00  0.00     0.151 C 
HETATM   36  C   UNK N   1      30.676  13.800   5.383  0.00  0.00     0.015 C 
HETATM   37  C   UNK N   1      32.990  15.958   5.888  0.00  0.00     0.029 C 
HETATM   38  C   UNK N   1      34.173  16.440   6.446  0.00  0.00     0.137 C 
HETATM   39  C   UNK N   1      34.228  13.126   9.327  0.00  0.00     0.063 C 
HETATM   40  C   UNK N   1      34.065  13.296   8.008  0.00  0.00     0.096 C 
HETATM   41  O   UNK N   1      33.557  14.441   7.701  0.00  0.00    -0.305 OA
HETATM   42  C   UNK N   1      33.654  15.433   8.611  0.00  0.00     0.237 C 
HETATM   43  C   UNK N   1      34.169  14.549   9.797  0.00  0.00     0.225 C 
HETATM   44  O   UNK N   1      34.406  14.938  10.930  0.00  0.00    -0.286 OA
HETATM   45  C   UNK N   1      30.244  10.976   3.885  0.00  0.00     0.015 C 
HETATM   46  C   UNK N   1      32.865   8.287   3.528  0.00  0.00     0.015 C 
HETATM   47  C   UNK N   1      34.559  12.803   5.634  0.00  0.00     0.054 C 
HETATM   48  C   UNK N   1      32.290  15.993   8.990  0.00  0.00     0.089 C 
HETATM   49  O   UNK N   1      34.350  16.412   7.859  0.00  0.00    -0.319 OA
HETATM   50  H   UNK N   1      33.505   7.372  11.577  0.00  0.00     0.169 HD
ENDROOT
BRANCH  16  51
HETATM   51  N   UNK N   1      35.840   9.561  16.978  0.00  0.00    -0.377 N 
HETATM   52  C   UNK N   1      36.387  10.167  18.165  0.00  0.00     0.153 C 
HETATM   53  C   UNK N   1      35.578   9.643  19.380  0.00  0.00     0.292 C 
HETATM   54  N   UNK N   1      35.439   8.172  19.356  0.00  0.00     0.091 N 
HETATM   55  C   UNK N   1      34.786   7.767  18.116  0.00  0.00     0.292 C 
HETATM   56  C   UNK N   1      35.685   8.124  16.971  0.00  0.00     0.153 C 
BRANCH  54  57
HETATM   57  C   UNK N   1      34.588   7.761  20.474  0.00  0.00     0.276 C 
BRANCH  57  58
HETATM   58  C   UNK N   1      33.106   7.697  20.076  0.00  0.00     0.006 C 
HETATM   59  C   UNK N   1      32.506   6.390  20.542  0.00  0.00     0.011 C 
HETATM   60  C   UNK N   1      32.322   8.835  20.713  0.00  0.00     0.011 C 
ENDBRANCH  57  58
ENDBRANCH  54  57
ENDBRANCH  16  51
BRANCH  14  61
HETATM   61  O   UNK N   1      34.950  13.700  14.539  0.00  0.00    -0.358 OA
HETATM   62  H   UNK N   1      34.969  14.130  13.706  0.00  0.00     0.217 HD
ENDBRANCH  14  61
BRANCH   2  63
HETATM   63  O   UNK N   1      34.795  10.198   6.439  0.00  0.00    -0.359 OA
HETATM   64  H   UNK N   1      34.283   9.445   6.218  0.00  0.00     0.217 HD
ENDBRANCH   2  63
BRANCH  35  65
HETATM   65  O   UNK N   1      33.766  15.203   3.697  0.00  0.00    -0.386 OA
HETATM   66  C   UNK N   1      33.424  16.153   2.729  0.00  0.00     0.202 C 
ENDBRANCH  35  65
BRANCH  29  67
HETATM   67  O   UNK N   1      31.446   8.102   7.029  0.00  0.00    -0.394 OA
HETATM   68  H   UNK N   1      31.403   7.548   7.824  0.00  0.00     0.210 HD
ENDBRANCH  29  67
BRANCH  33  69
HETATM   69  O   UNK N   1      31.936  13.033   2.494  0.00  0.00    -0.315 OA
BRANCH  69  70
HETATM   70  C   UNK N   1      32.586  12.648   1.361  0.00  0.00     0.255 C 
HETATM   71  C   UNK N   1      31.930  11.686   0.434  0.00  0.00     0.126 C 
HETATM   72  O   UNK N   1      33.697  13.081   1.090  0.00  0.00    -0.266 OA
ENDBRANCH  69  70
ENDBRANCH  33  69
BRANCH  31  73
HETATM   73  O   UNK N   1      31.804  10.594   6.376  0.00  0.00    -0.395 OA
HETATM   74  H   UNK N   1      31.742  11.430   6.864  0.00  0.00     0.210 HD
ENDBRANCH  31  73
TORSDOF 10
ENDMDL
MODEL 6
REMARK VINA RESULT:      -7.8      7.078     12.248
REMARK  10 active torsions:
REMARK  status: ('A' for Active; 'I' for Inactive)
REMARK    1  A    between atoms: C_2  and  O_66 
REMARK    2  A    between atoms: C_14  and  O_65 
REMARK    3  A    between atoms: C_16  and  N_18 
REMARK    4  A    between atoms: N_21  and  C_24 
REMARK    5  A    between atoms: C_24  and  C_25 
REMARK    6  A    between atoms: C_39  and  O_58 
REMARK    7  A    between atoms: C_41  and  O_59 
REMARK    8  A    between atoms: C_43  and  O_44 
REMARK    9  A    between atoms: O_44  and  C_62 
REMARK   10  A    between atoms: C_46  and  O_48 
ROOT
HETATM    1  C   UNK N   1      35.113  10.042  12.908  0.00  0.00     0.007 C 
HETATM    2  C   UNK N   1      34.987   9.573  11.657  0.00  0.00     0.089 C 
HETATM    3  C   UNK N   1      35.138  10.458  10.573  0.00  0.00     0.064 C 
HETATM    4  C   UNK N   1      35.112  11.894  10.798  0.00  0.00     0.027 C 
HETATM    5  C   UNK N   1      35.383  10.688   8.170  0.00  0.00     0.123 C 
HETATM    6  C   UNK N   1      35.333   9.900   9.310  0.00  0.00     0.215 C 
HETATM    7  C   UNK N   1      35.181  12.052   8.312  0.00  0.00     0.134 A 
HETATM    8  C   UNK N   1      35.066  12.716   9.650  0.00  0.00     0.082 A 
HETATM    9  N   UNK N   1      34.904  14.078   9.678  0.00  0.00    -0.349 N 
ATOM     10  HN  UNK N   1      34.919  14.582  10.564  1.00  0.00     0.166 HD
HETATM   11  O   UNK N   1      35.050  12.761   7.231  0.00  0.00    -0.303 OA
HETATM   12  C   UNK N   1      34.775  14.035   7.276  0.00  0.00     0.107 A 
HETATM   13  C   UNK N   1      34.719  14.751   8.492  0.00  0.00     0.100 A 
HETATM   14  C   UNK N   1      34.408  16.131   8.439  0.00  0.00     0.097 A 
HETATM   15  C   UNK N   1      34.080  16.733   7.193  0.00  0.00     0.068 A 
HETATM   16  C   UNK N   1      34.058  15.945   6.022  0.00  0.00     0.035 A 
HETATM   17  C   UNK N   1      34.441  14.624   6.098  0.00  0.00     0.069 A 
HETATM   18  O   UNK N   1      35.540   8.705   9.230  0.00  0.00    -0.285 OA
HETATM   19  N   UNK N   1      35.697  10.155   6.866  0.00  0.00    -0.317 N 
HETATM   20  C   UNK N   1      35.594   8.852   6.465  0.00  0.00     0.252 C 
HETATM   21  C   UNK N   1      36.370   8.359   5.296  0.00  0.00     0.006 C 
HETATM   22  O   UNK N   1      34.884   8.067   7.071  0.00  0.00    -0.268 OA
HETATM   23  C   UNK N   1      36.810   7.078   5.237  0.00  0.00     0.012 C 
HETATM   24  C   UNK N   1      36.791   9.314   4.230  0.00  0.00     0.054 C 
HETATM   25  C   UNK N   1      36.623   6.146   6.377  0.00  0.00    -0.003 C 
HETATM   26  C   UNK N   1      37.560   6.112   7.337  0.00  0.00    -0.020 C 
HETATM   27  C   UNK N   1      37.323   5.467   8.684  0.00  0.00     0.033 C 
HETATM   28  C   UNK N   1      37.844   4.039   8.673  0.00  0.00     0.017 C 
HETATM   29  C   UNK N   1      37.945   6.281   9.870  0.00  0.00     0.131 C 
HETATM   30  C   UNK N   1      37.058   6.245  11.156  0.00  0.00     0.040 C 
HETATM   31  C   UNK N   1      37.226   7.306  12.317  0.00  0.00     0.130 C 
HETATM   32  C   UNK N   1      37.817   6.910  13.693  0.00  0.00     0.041 C 
HETATM   33  C   UNK N   1      37.244   7.564  15.028  0.00  0.00     0.144 C 
HETATM   34  C   UNK N   1      37.401   9.113  15.331  0.00  0.00     0.044 C 
HETATM   35  C   UNK N   1      36.776   9.745  16.665  0.00  0.00     0.151 C 
HETATM   36  C   UNK N   1      38.798   9.637  15.062  0.00  0.00     0.015 C 
HETATM   37  C   UNK N   1      36.420  11.241  16.490  0.00  0.00     0.029 C 
HETATM   38  C   UNK N   1      35.215  11.940  16.541  0.00  0.00     0.137 C 
HETATM   39  C   UNK N   1      35.192  12.328  12.168  0.00  0.00     0.063 C 
HETATM   40  C   UNK N   1      35.374  11.364  13.081  0.00  0.00     0.096 C 
HETATM   41  O   UNK N   1      35.859  11.803  14.192  0.00  0.00    -0.305 OA
HETATM   42  C   UNK N   1      35.720  13.118  14.461  0.00  0.00     0.237 C 
HETATM   43  C   UNK N   1      35.206  13.544  13.044  0.00  0.00     0.225 C 
HETATM   44  O   UNK N   1      34.937  14.683  12.693  0.00  0.00    -0.286 OA
HETATM   45  C   UNK N   1      39.330   6.782  13.659  0.00  0.00     0.015 C 
HETATM   46  C   UNK N   1      36.786   4.838  11.665  0.00  0.00     0.015 C 
HETATM   47  C   UNK N   1      34.937   9.139  14.070  0.00  0.00     0.054 C 
HETATM   48  C   UNK N   1      37.061  13.794  14.706  0.00  0.00     0.089 C 
HETATM   49  O   UNK N   1      35.012  13.062  15.689  0.00  0.00    -0.319 OA
HETATM   50  H   UNK N   1      36.020  10.798   6.195  0.00  0.00     0.169 HD
ENDROOT
BRANCH  16  51
HETATM   51  N   UNK N   1      33.529  16.383   4.776  0.00  0.00    -0.377 N 
HETATM   52  C   UNK N   1      33.554  15.593   3.571  0.00  0.00     0.153 C 
HETATM   53  C   UNK N   1      32.090  15.413   3.092  0.00  0.00     0.292 C 
HETATM   54  N   UNK N   1      31.358  16.697   3.063  0.00  0.00     0.091 N 
HETATM   55  C   UNK N   1      31.374  17.295   4.393  0.00  0.00     0.292 C 
HETATM   56  C   UNK N   1      32.793  17.626   4.746  0.00  0.00     0.153 C 
BRANCH  54  57
HETATM   57  C   UNK N   1      29.966  16.438   2.696  0.00  0.00     0.276 C 
BRANCH  57  58
HETATM   58  C   UNK N   1      29.053  16.348   3.928  0.00  0.00     0.006 C 
HETATM   59  C   UNK N   1      27.872  17.277   3.759  0.00  0.00     0.011 C 
HETATM   60  C   UNK N   1      28.525  14.933   4.112  0.00  0.00     0.011 C 
ENDBRANCH  57  58
ENDBRANCH  54  57
ENDBRANCH  16  51
BRANCH  14  61
HETATM   61  O   UNK N   1      34.358  16.862   9.567  0.00  0.00    -0.358 OA
HETATM   62  H   UNK N   1      35.147  17.080  10.024  0.00  0.00     0.217 HD
ENDBRANCH  14  61
BRANCH   2  63
HETATM   63  O   UNK N   1      34.754   8.256  11.485  0.00  0.00    -0.359 OA
HETATM   64  H   UNK N   1      34.366   7.672  12.107  0.00  0.00     0.217 HD
ENDBRANCH   2  63
BRANCH  35  65
HETATM   65  O   UNK N   1      35.705   9.001  17.157  0.00  0.00    -0.386 OA
HETATM   66  C   UNK N   1      36.003   8.852  18.515  0.00  0.00     0.202 C 
ENDBRANCH  35  65
BRANCH  29  67
HETATM   67  O   UNK N   1      38.144   7.606   9.475  0.00  0.00    -0.394 OA
HETATM   68  H   UNK N   1      37.560   8.353   9.678  0.00  0.00     0.210 HD
ENDBRANCH  29  67
BRANCH  33  69
HETATM   69  O   UNK N   1      37.612   6.810  16.124  0.00  0.00    -0.315 OA
BRANCH  69  70
HETATM   70  C   UNK N   1      36.970   5.667  16.491  0.00  0.00     0.255 C 
HETATM   71  C   UNK N   1      35.493   5.578  16.342  0.00  0.00     0.126 C 
HETATM   72  O   UNK N   1      37.588   4.710  16.937  0.00  0.00    -0.266 OA
ENDBRANCH  69  70
ENDBRANCH  33  69
BRANCH  31  73
HETATM   73  O   UNK N   1      37.734   8.527  11.872  0.00  0.00    -0.395 OA
HETATM   74  H   UNK N   1      37.333   9.289  11.426  0.00  0.00     0.210 HD
ENDBRANCH  31  73
TORSDOF 10
ENDMDL
MODEL 7
REMARK VINA RESULT:      -7.5      3.270     12.274
REMARK  10 active torsions:
REMARK  status: ('A' for Active; 'I' for Inactive)
REMARK    1  A    between atoms: C_2  and  O_66 
REMARK    2  A    between atoms: C_14  and  O_65 
REMARK    3  A    between atoms: C_16  and  N_18 
REMARK    4  A    between atoms: N_21  and  C_24 
REMARK    5  A    between atoms: C_24  and  C_25 
REMARK    6  A    between atoms: C_39  and  O_58 
REMARK    7  A    between atoms: C_41  and  O_59 
REMARK    8  A    between atoms: C_43  and  O_44 
REMARK    9  A    between atoms: O_44  and  C_62 
REMARK   10  A    between atoms: C_46  and  O_48 
ROOT
HETATM    1  C   UNK N   1      27.337  15.904   3.082  0.00  0.00     0.007 C 
HETATM    2  C   UNK N   1      27.961  14.909   2.434  0.00  0.00     0.089 C 
HETATM    3  C   UNK N   1      29.168  14.402   2.951  0.00  0.00     0.064 C 
HETATM    4  C   UNK N   1      29.888  15.143   3.975  0.00  0.00     0.027 C 
HETATM    5  C   UNK N   1      30.843  12.650   2.831  0.00  0.00     0.123 C 
HETATM    6  C   UNK N   1      29.613  13.175   2.461  0.00  0.00     0.215 C 
HETATM    7  C   UNK N   1      31.649  13.407   3.668  0.00  0.00     0.134 A 
HETATM    8  C   UNK N   1      31.183  14.682   4.301  0.00  0.00     0.082 A 
HETATM    9  N   UNK N   1      32.049  15.334   5.141  0.00  0.00    -0.349 N 
ATOM     10  HN  UNK N   1      31.741  16.150   5.670  1.00  0.00     0.166 HD
HETATM   11  O   UNK N   1      32.866  12.999   3.868  0.00  0.00    -0.303 OA
HETATM   12  C   UNK N   1      33.715  13.694   4.573  0.00  0.00     0.107 A 
HETATM   13  C   UNK N   1      33.338  14.869   5.260  0.00  0.00     0.100 A 
HETATM   14  C   UNK N   1      34.333  15.559   5.995  0.00  0.00     0.097 A 
HETATM   15  C   UNK N   1      35.681  15.107   5.954  0.00  0.00     0.068 A 
HETATM   16  C   UNK N   1      36.015  13.982   5.171  0.00  0.00     0.035 A 
HETATM   17  C   UNK N   1      35.011  13.290   4.530  0.00  0.00     0.069 A 
HETATM   18  O   UNK N   1      28.864  12.526   1.758  0.00  0.00    -0.285 OA
HETATM   19  N   UNK N   1      31.281  11.334   2.434  0.00  0.00    -0.317 N 
HETATM   20  C   UNK N   1      30.815  10.597   1.381  0.00  0.00     0.252 C 
HETATM   21  C   UNK N   1      30.992   9.120   1.355  0.00  0.00     0.006 C 
HETATM   22  O   UNK N   1      30.228  11.133   0.455  0.00  0.00    -0.268 OA
HETATM   23  C   UNK N   1      30.080   8.315   0.757  0.00  0.00     0.012 C 
HETATM   24  C   UNK N   1      32.116   8.496   2.112  0.00  0.00     0.054 C 
HETATM   25  C   UNK N   1      28.821   8.865   0.193  0.00  0.00    -0.003 C 
HETATM   26  C   UNK N   1      27.754   8.979   0.998  0.00  0.00    -0.020 C 
HETATM   27  C   UNK N   1      26.548   9.816   0.637  0.00  0.00     0.033 C 
HETATM   28  C   UNK N   1      25.481   8.940   0.003  0.00  0.00     0.017 C 
HETATM   29  C   UNK N   1      25.968  10.611   1.857  0.00  0.00     0.131 C 
HETATM   30  C   UNK N   1      25.440  12.027   1.459  0.00  0.00     0.040 C 
HETATM   31  C   UNK N   1      25.215  13.168   2.531  0.00  0.00     0.130 C 
HETATM   32  C   UNK N   1      23.791  13.638   2.922  0.00  0.00     0.041 C 
HETATM   33  C   UNK N   1      23.513  15.175   3.231  0.00  0.00     0.144 C 
HETATM   34  C   UNK N   1      24.171  15.908   4.475  0.00  0.00     0.044 C 
HETATM   35  C   UNK N   1      23.901  17.467   4.731  0.00  0.00     0.151 C 
HETATM   36  C   UNK N   1      24.083  15.104   5.757  0.00  0.00     0.015 C 
HETATM   37  C   UNK N   1      25.067  18.143   5.493  0.00  0.00     0.029 C 
HETATM   38  C   UNK N   1      25.956  19.162   5.154  0.00  0.00     0.137 C 
HETATM   39  C   UNK N   1      29.181  16.236   4.590  0.00  0.00     0.063 C 
HETATM   40  C   UNK N   1      27.903  16.394   4.216  0.00  0.00     0.096 C 
HETATM   41  O   UNK N   1      27.206  17.069   5.065  0.00  0.00    -0.305 OA
HETATM   42  C   UNK N   1      27.870  17.859   5.935  0.00  0.00     0.237 C 
HETATM   43  C   UNK N   1      29.307  17.327   5.610  0.00  0.00     0.225 C 
HETATM   44  O   UNK N   1      30.342  17.684   6.151  0.00  0.00    -0.286 OA
HETATM   45  C   UNK N   1      23.104  12.674   3.875  0.00  0.00     0.015 C 
HETATM   46  C   UNK N   1      24.363  11.991   0.385  0.00  0.00     0.015 C 
HETATM   47  C   UNK N   1      26.077  16.473   2.549  0.00  0.00     0.054 C 
HETATM   48  C   UNK N   1      27.548  17.511   7.381  0.00  0.00     0.089 C 
HETATM   49  O   UNK N   1      27.296  19.120   5.636  0.00  0.00    -0.319 OA
HETATM   50  H   UNK N   1      31.989  10.923   2.980  0.00  0.00     0.169 HD
ENDROOT
BRANCH  16  51
HETATM   51  N   UNK N   1      37.350  13.584   4.876  0.00  0.00    -0.377 N 
HETATM   52  C   UNK N   1      38.511  14.375   5.191  0.00  0.00     0.153 C 
HETATM   53  C   UNK N   1      39.429  13.525   6.108  0.00  0.00     0.292 C 
HETATM   54  N   UNK N   1      39.644  12.167   5.567  0.00  0.00     0.091 N 
HETATM   55  C   UNK N   1      38.356  11.502   5.403  0.00  0.00     0.292 C 
HETATM   56  C   UNK N   1      37.568  12.248   4.369  0.00  0.00     0.153 C 
BRANCH  54  57
HETATM   57  C   UNK N   1      40.435  11.397   6.527  0.00  0.00     0.276 C 
BRANCH  57  58
HETATM   58  C   UNK N   1      41.587  12.223   7.118  0.00  0.00     0.006 C 
HETATM   59  C   UNK N   1      41.964  11.677   8.477  0.00  0.00     0.011 C 
HETATM   60  C   UNK N   1      42.815  12.163   6.223  0.00  0.00     0.011 C 
ENDBRANCH  57  58
ENDBRANCH  54  57
ENDBRANCH  16  51
BRANCH  14  61
HETATM   61  O   UNK N   1      34.023  16.673   6.681  0.00  0.00    -0.358 OA
HETATM   62  H   UNK N   1      34.540  17.449   6.579  0.00  0.00     0.217 HD
ENDBRANCH  14  61
BRANCH   2  63
HETATM   63  O   UNK N   1      27.386  14.405   1.323  0.00  0.00    -0.359 OA
HETATM   64  H   UNK N   1      26.538  14.619   0.988  0.00  0.00     0.217 HD
ENDBRANCH   2  63
BRANCH  35  65
HETATM   65  O   UNK N   1      23.568  18.151   3.563  0.00  0.00    -0.386 OA
HETATM   66  C   UNK N   1      22.445  18.901   3.928  0.00  0.00     0.202 C 
ENDBRANCH  35  65
BRANCH  29  67
HETATM   67  O   UNK N   1      26.948  10.737   2.844  0.00  0.00    -0.394 OA
HETATM   68  H   UNK N   1      27.893  10.547   2.733  0.00  0.00     0.210 HD
ENDBRANCH  29  67
BRANCH  33  69
HETATM   69  O   UNK N   1      22.160  15.438   3.166  0.00  0.00    -0.315 OA
BRANCH  69  70
HETATM   70  C   UNK N   1      21.497  15.646   1.996  0.00  0.00     0.255 C 
HETATM   71  C   UNK N   1      20.339  16.579   1.968  0.00  0.00     0.126 C 
HETATM   72  O   UNK N   1      21.839  15.082   0.965  0.00  0.00    -0.266 OA
ENDBRANCH  69  70
ENDBRANCH  33  69
BRANCH  31  73
HETATM   73  O   UNK N   1      26.038  13.036   3.650  0.00  0.00    -0.395 OA
HETATM   74  H   UNK N   1      26.971  12.799   3.761  0.00  0.00     0.210 HD
ENDBRANCH  31  73
TORSDOF 10
ENDMDL
MODEL 8
REMARK VINA RESULT:      -7.5      3.864      8.474
REMARK  10 active torsions:
REMARK  status: ('A' for Active; 'I' for Inactive)
REMARK    1  A    between atoms: C_2  and  O_66 
REMARK    2  A    between atoms: C_14  and  O_65 
REMARK    3  A    between atoms: C_16  and  N_18 
REMARK    4  A    between atoms: N_21  and  C_24 
REMARK    5  A    between atoms: C_24  and  C_25 
REMARK    6  A    between atoms: C_39  and  O_58 
REMARK    7  A    between atoms: C_41  and  O_59 
REMARK    8  A    between atoms: C_43  and  O_44 
REMARK    9  A    between atoms: O_44  and  C_62 
REMARK   10  A    between atoms: C_46  and  O_48 
ROOT
HETATM    1  C   UNK N   1      34.609  11.689   9.207  0.00  0.00     0.007 C 
HETATM    2  C   UNK N   1      34.161  11.293   8.006  0.00  0.00     0.089 C 
HETATM    3  C   UNK N   1      33.517  12.225   7.171  0.00  0.00     0.064 C 
HETATM    4  C   UNK N   1      33.060  13.494   7.716  0.00  0.00     0.027 C 
HETATM    5  C   UNK N   1      32.647  12.693   4.955  0.00  0.00     0.123 C 
HETATM    6  C   UNK N   1      33.364  11.887   5.827  0.00  0.00     0.215 C 
HETATM    7  C   UNK N   1      32.037  13.828   5.468  0.00  0.00     0.134 A 
HETATM    8  C   UNK N   1      32.248  14.290   6.877  0.00  0.00     0.082 A 
HETATM    9  N   UNK N   1      31.625  15.446   7.273  0.00  0.00    -0.349 N 
ATOM     10  HN  UNK N   1      31.818  15.850   8.189  1.00  0.00     0.166 HD
HETATM   11  O   UNK N   1      31.223  14.480   4.695  0.00  0.00    -0.303 OA
HETATM   12  C   UNK N   1      30.545  15.509   5.124  0.00  0.00     0.107 A 
HETATM   13  C   UNK N   1      30.737  16.051   6.414  0.00  0.00     0.100 A 
HETATM   14  C   UNK N   1      29.949  17.165   6.792  0.00  0.00     0.097 A 
HETATM   15  C   UNK N   1      28.942  17.649   5.911  0.00  0.00     0.068 A 
HETATM   16  C   UNK N   1      28.731  17.004   4.673  0.00  0.00     0.035 A 
HETATM   17  C   UNK N   1      29.565  15.972   4.305  0.00  0.00     0.069 A 
HETATM   18  O   UNK N   1      33.941  10.904   5.407  0.00  0.00    -0.285 OA
HETATM   19  N   UNK N   1      32.568  12.432   3.538  0.00  0.00    -0.317 N 
HETATM   20  C   UNK N   1      32.795  11.240   2.909  0.00  0.00     0.252 C 
HETATM   21  C   UNK N   1      33.141  11.202   1.463  0.00  0.00     0.006 C 
HETATM   22  O   UNK N   1      32.739  10.188   3.525  0.00  0.00    -0.268 OA
HETATM   23  C   UNK N   1      33.954  10.240   0.961  0.00  0.00     0.012 C 
HETATM   24  C   UNK N   1      32.704  12.313   0.568  0.00  0.00     0.054 C 
HETATM   25  C   UNK N   1      34.609   9.246   1.849  0.00  0.00    -0.003 C 
HETATM   26  C   UNK N   1      35.798   9.554   2.387  0.00  0.00    -0.020 C 
HETATM   27  C   UNK N   1      36.392   8.784   3.546  0.00  0.00     0.033 C 
HETATM   28  C   UNK N   1      37.345   7.721   3.026  0.00  0.00     0.017 C 
HETATM   29  C   UNK N   1      37.100   9.707   4.596  0.00  0.00     0.131 C 
HETATM   30  C   UNK N   1      36.903   9.212   6.064  0.00  0.00     0.040 C 
HETATM   31  C   UNK N   1      37.132  10.165   7.306  0.00  0.00     0.130 C 
HETATM   32  C   UNK N   1      38.336   9.971   8.261  0.00  0.00     0.041 C 
HETATM   33  C   UNK N   1      38.168  10.230   9.823  0.00  0.00     0.144 C 
HETATM   34  C   UNK N   1      37.856  11.673  10.401  0.00  0.00     0.044 C 
HETATM   35  C   UNK N   1      37.653  11.889  11.976  0.00  0.00     0.151 C 
HETATM   36  C   UNK N   1      38.719  12.760   9.792  0.00  0.00     0.015 C 
HETATM   37  C   UNK N   1      36.735  13.097  12.286  0.00  0.00     0.029 C 
HETATM   38  C   UNK N   1      35.494  13.207  12.912  0.00  0.00     0.137 C 
HETATM   39  C   UNK N   1      33.532  13.831   9.033  0.00  0.00     0.063 C 
HETATM   40  C   UNK N   1      34.414  12.981   9.578  0.00  0.00     0.096 C 
HETATM   41  O   UNK N   1      35.115  13.511  10.521  0.00  0.00    -0.305 OA
HETATM   42  C   UNK N   1      34.627  14.620  11.117  0.00  0.00     0.237 C 
HETATM   43  C   UNK N   1      33.459  14.876  10.105  0.00  0.00     0.225 C 
HETATM   44  O   UNK N   1      32.673  15.810  10.141  0.00  0.00    -0.286 OA
HETATM   45  C   UNK N   1      39.632  10.505   7.674  0.00  0.00     0.015 C 
HETATM   46  C   UNK N   1      37.401   7.793   6.297  0.00  0.00     0.015 C 
HETATM   47  C   UNK N   1      35.272  10.723  10.116  0.00  0.00     0.054 C 
HETATM   48  C   UNK N   1      35.599  15.788  11.029  0.00  0.00     0.089 C 
HETATM   49  O   UNK N   1      34.562  14.188  12.465  0.00  0.00    -0.319 OA
HETATM   50  H   UNK N   1      32.325  13.193   2.964  0.00  0.00     0.169 HD
ENDROOT
BRANCH  16  51
HETATM   51  N   UNK N   1      27.616  17.254   3.825  0.00  0.00    -0.377 N 
HETATM   52  C   UNK N   1      27.092  16.296   2.885  0.00  0.00     0.153 C 
HETATM   53  C   UNK N   1      25.604  16.045   3.243  0.00  0.00     0.292 C 
HETATM   54  N   UNK N   1      24.861  17.309   3.429  0.00  0.00     0.091 N 
HETATM   55  C   UNK N   1      25.497  18.095   4.480  0.00  0.00     0.292 C 
HETATM   56  C   UNK N   1      26.871  18.478   4.018  0.00  0.00     0.153 C 
BRANCH  54  57
HETATM   57  C   UNK N   1      23.498  16.996   3.857  0.00  0.00     0.276 C 
BRANCH  57  58
HETATM   58  C   UNK N   1      23.327  17.124   5.377  0.00  0.00     0.006 C 
HETATM   59  C   UNK N   1      22.091  17.938   5.688  0.00  0.00     0.011 C 
HETATM   60  C   UNK N   1      23.173  15.756   6.025  0.00  0.00     0.011 C 
ENDBRANCH  57  58
ENDBRANCH  54  57
ENDBRANCH  16  51
BRANCH  14  61
HETATM   61  O   UNK N   1      30.104  17.730   8.003  0.00  0.00    -0.358 OA
HETATM   62  H   UNK N   1      30.310  17.200   8.748  0.00  0.00     0.217 HD
ENDBRANCH  14  61
BRANCH   2  63
HETATM   63  O   UNK N   1      34.378  10.017   7.627  0.00  0.00    -0.359 OA
HETATM   64  H   UNK N   1      35.019   9.431   7.980  0.00  0.00     0.217 HD
ENDBRANCH   2  63
BRANCH  35  65
HETATM   65  O   UNK N   1      37.233  10.728  12.624  0.00  0.00    -0.386 OA
HETATM   66  C   UNK N   1      37.967  10.731  13.815  0.00  0.00     0.202 C 
ENDBRANCH  35  65
BRANCH  29  67
HETATM   67  O   UNK N   1      36.618  11.013   4.473  0.00  0.00    -0.394 OA
HETATM   68  H   UNK N   1      37.152  11.799   4.282  0.00  0.00     0.210 HD
ENDBRANCH  29  67
BRANCH  33  69
HETATM   69  O   UNK N   1      39.202   9.636  10.519  0.00  0.00    -0.315 OA
BRANCH  69  70
HETATM   70  C   UNK N   1      39.210   8.319  10.862  0.00  0.00     0.255 C 
HETATM   71  C   UNK N   1      37.923   7.631  11.149  0.00  0.00     0.126 C 
HETATM   72  O   UNK N   1      40.257   7.689  10.933  0.00  0.00    -0.266 OA
ENDBRANCH  69  70
ENDBRANCH  33  69
BRANCH  31  73
HETATM   73  O   UNK N   1      36.925  11.512   7.006  0.00  0.00    -0.395 OA
HETATM   74  H   UNK N   1      36.486  11.967   6.272  0.00  0.00     0.210 HD
ENDBRANCH  31  73
TORSDOF 10
ENDMDL
MODEL 9
REMARK VINA RESULT:      -7.5      3.420     12.025
REMARK  10 active torsions:
REMARK  status: ('A' for Active; 'I' for Inactive)
REMARK    1  A    between atoms: C_2  and  O_66 
REMARK    2  A    between atoms: C_14  and  O_65 
REMARK    3  A    between atoms: C_16  and  N_18 
REMARK    4  A    between atoms: N_21  and  C_24 
REMARK    5  A    between atoms: C_24  and  C_25 
REMARK    6  A    between atoms: C_39  and  O_58 
REMARK    7  A    between atoms: C_41  and  O_59 
REMARK    8  A    between atoms: C_43  and  O_44 
REMARK    9  A    between atoms: O_44  and  C_62 
REMARK   10  A    between atoms: C_46  and  O_48 
ROOT
HETATM    1  C   UNK N   1      25.800  15.505   3.303  0.00  0.00     0.007 C 
HETATM    2  C   UNK N   1      26.334  14.277   3.213  0.00  0.00     0.089 C 
HETATM    3  C   UNK N   1      27.581  14.025   3.814  0.00  0.00     0.064 C 
HETATM    4  C   UNK N   1      28.420  15.134   4.241  0.00  0.00     0.027 C 
HETATM    5  C   UNK N   1      29.204  12.347   4.476  0.00  0.00     0.123 C 
HETATM    6  C   UNK N   1      27.950  12.692   3.994  0.00  0.00     0.215 C 
HETATM    7  C   UNK N   1      30.109  13.367   4.729  0.00  0.00     0.134 A 
HETATM    8  C   UNK N   1      29.735  14.815   4.647  0.00  0.00     0.082 A 
HETATM    9  N   UNK N   1      30.697  15.744   4.952  0.00  0.00    -0.349 N 
ATOM     10  HN  UNK N   1      30.462  16.735   5.005  1.00  0.00     0.166 HD
HETATM   11  O   UNK N   1      31.333  13.036   5.006  0.00  0.00    -0.303 OA
HETATM   12  C   UNK N   1      32.265  13.933   5.175  0.00  0.00     0.107 A 
HETATM   13  C   UNK N   1      31.984  15.317   5.184  0.00  0.00     0.100 A 
HETATM   14  C   UNK N   1      33.064  16.215   5.369  0.00  0.00     0.097 A 
HETATM   15  C   UNK N   1      34.392  15.713   5.453  0.00  0.00     0.068 A 
HETATM   16  C   UNK N   1      34.621  14.324   5.340  0.00  0.00     0.035 A 
HETATM   17  C   UNK N   1      33.542  13.474   5.238  0.00  0.00     0.069 A 
HETATM   18  O   UNK N   1      27.119  11.828   3.794  0.00  0.00    -0.285 OA
HETATM   19  N   UNK N   1      29.575  10.987   4.782  0.00  0.00    -0.317 N 
HETATM   20  C   UNK N   1      28.986   9.848   4.307  0.00  0.00     0.252 C 
HETATM   21  C   UNK N   1      29.135   8.560   5.034  0.00  0.00     0.006 C 
HETATM   22  O   UNK N   1      28.311   9.873   3.291  0.00  0.00    -0.268 OA
HETATM   23  C   UNK N   1      28.151   7.628   5.020  0.00  0.00     0.012 C 
HETATM   24  C   UNK N   1      30.325   8.335   5.907  0.00  0.00     0.054 C 
HETATM   25  C   UNK N   1      26.847   7.896   4.361  0.00  0.00    -0.003 C 
HETATM   26  C   UNK N   1      25.876   8.482   5.078  0.00  0.00    -0.020 C 
HETATM   27  C   UNK N   1      24.651   9.097   4.440  0.00  0.00     0.033 C 
HETATM   28  C   UNK N   1      23.508   8.097   4.443  0.00  0.00     0.017 C 
HETATM   29  C   UNK N   1      24.220  10.444   5.116  0.00  0.00     0.131 C 
HETATM   30  C   UNK N   1      23.675  11.488   4.089  0.00  0.00     0.040 C 
HETATM   31  C   UNK N   1      23.586  13.030   4.430  0.00  0.00     0.130 C 
HETATM   32  C   UNK N   1      22.221  13.732   4.641  0.00  0.00     0.041 C 
HETATM   33  C   UNK N   1      22.004  15.225   4.131  0.00  0.00     0.144 C 
HETATM   34  C   UNK N   1      22.804  16.444   4.756  0.00  0.00     0.044 C 
HETATM   35  C   UNK N   1      22.589  17.929   4.189  0.00  0.00     0.151 C 
HETATM   36  C   UNK N   1      22.843  16.421   6.270  0.00  0.00     0.015 C 
HETATM   37  C   UNK N   1      23.842  18.816   4.390  0.00  0.00     0.029 C 
HETATM   38  C   UNK N   1      24.704  19.451   3.498  0.00  0.00     0.137 C 
HETATM   39  C   UNK N   1      27.801  16.433   4.259  0.00  0.00     0.063 C 
HETATM   40  C   UNK N   1      26.494  16.466   3.967  0.00  0.00     0.096 C 
HETATM   41  O   UNK N   1      25.903  17.528   4.399  0.00  0.00    -0.305 OA
HETATM   42  C   UNK N   1      26.670  18.603   4.675  0.00  0.00     0.237 C 
HETATM   43  C   UNK N   1      28.055  17.881   4.551  0.00  0.00     0.225 C 
HETATM   44  O   UNK N   1      29.148  18.392   4.739  0.00  0.00    -0.286 OA
HETATM   45  C   UNK N   1      21.627  13.445   6.009  0.00  0.00     0.015 C 
HETATM   46  C   UNK N   1      22.487  10.982   3.285  0.00  0.00     0.015 C 
HETATM   47  C   UNK N   1      24.498  15.806   2.662  0.00  0.00     0.054 C 
HETATM   48  C   UNK N   1      26.502  19.070   6.113  0.00  0.00     0.089 C 
HETATM   49  O   UNK N   1      26.087  19.569   3.816  0.00  0.00    -0.319 OA
HETATM   50  H   UNK N   1      30.332  10.865   5.400  0.00  0.00     0.169 HD
ENDROOT
BRANCH  16  51
HETATM   51  N   UNK N   1      35.909  13.739   5.182  0.00  0.00    -0.377 N 
HETATM   52  C   UNK N   1      37.137  14.382   5.577  0.00  0.00     0.153 C 
HETATM   53  C   UNK N   1      37.846  13.459   6.602  0.00  0.00     0.292 C 
HETATM   54  N   UNK N   1      37.919  12.062   6.126  0.00  0.00     0.091 N 
HETATM   55  C   UNK N   1      36.572  11.567   5.866  0.00  0.00     0.292 C 
HETATM   56  C   UNK N   1      35.986  12.365   4.740  0.00  0.00     0.153 C 
BRANCH  54  57
HETATM   57  C   UNK N   1      38.512  11.236   7.179  0.00  0.00     0.276 C 
BRANCH  57  58
HETATM   58  C   UNK N   1      38.779  12.040   8.459  0.00  0.00     0.006 C 
HETATM   59  C   UNK N   1      37.933  11.500   9.591  0.00  0.00     0.011 C 
HETATM   60  C   UNK N   1      40.241  11.942   8.869  0.00  0.00     0.011 C 
ENDBRANCH  57  58
ENDBRANCH  54  57
ENDBRANCH  16  51
BRANCH  14  61
HETATM   61  O   UNK N   1      32.849  17.542   5.402  0.00  0.00    -0.358 OA
HETATM   62  H   UNK N   1      32.987  18.062   4.634  0.00  0.00     0.217 HD
ENDBRANCH  14  61
BRANCH   2  63
HETATM   63  O   UNK N   1      25.633  13.316   2.577  0.00  0.00    -0.359 OA
HETATM   64  H   UNK N   1      25.495  13.245   1.653  0.00  0.00     0.217 HD
ENDBRANCH   2  63
BRANCH  35  65
HETATM   65  O   UNK N   1      22.142  17.937   2.869  0.00  0.00    -0.386 OA
HETATM   66  C   UNK N   1      21.039  18.797   2.900  0.00  0.00     0.202 C 
ENDBRANCH  35  65
BRANCH  29  67
HETATM   67  O   UNK N   1      25.304  10.990   5.808  0.00  0.00    -0.394 OA
HETATM   68  H   UNK N   1      25.257  11.690   6.477  0.00  0.00     0.210 HD
ENDBRANCH  29  67
BRANCH  33  69
HETATM   69  O   UNK N   1      20.655  15.511   4.055  0.00  0.00    -0.315 OA
BRANCH  69  70
HETATM   70  C   UNK N   1      19.832  14.973   3.115  0.00  0.00     0.255 C 
HETATM   71  C   UNK N   1      20.070  15.271   1.677  0.00  0.00     0.126 C 
HETATM   72  O   UNK N   1      18.901  14.243   3.431  0.00  0.00    -0.266 OA
ENDBRANCH  69  70
ENDBRANCH  33  69
BRANCH  31  73
HETATM   73  O   UNK N   1      24.524  13.434   5.381  0.00  0.00    -0.395 OA
HETATM   74  H   UNK N   1      24.650  13.222   6.319  0.00  0.00     0.210 HD
ENDBRANCH  31  73
TORSDOF 10
ENDMDL
