MODEL 1
REMARK VINA RESULT:      -5.4      0.000      0.000
REMARK  12 active torsions:
REMARK  status: ('A' for Active; 'I' for Inactive)
REMARK    1  A    between atoms: C_9  and  O_1 
REMARK    2  A    between atoms: C_12  and  O_2 
REMARK    3  A    between atoms: C_13  and  O_3 
REMARK    4  A    between atoms: C_14  and  O_4 
REMARK    5  A    between atoms: O_5  and  C_15 
REMARK    6  A    between atoms: O_6  and  C_17 
REMARK    7  A    between atoms: O_7  and  C_18 
REMARK    8  A    between atoms: C_10  and  N_8 
REMARK    9  A    between atoms: N_8  and  C_16 
REMARK   10  A    between atoms: C_9  and  C_15 
REMARK   11  A    between atoms: C_16  and  C_17 
REMARK   12  A    between atoms: C_16  and  C_18 
ROOT
HETATM    1  C   UNK N   1      28.123  17.426   7.270  0.00  0.00     0.109 C 
HETATM    2  C   UNK N   1      30.611  17.142   7.132  0.00  0.00     0.111 C 
HETATM    3  C   UNK N   1      29.258  16.504   6.820  0.00  0.00     0.070 C 
HETATM    4  C   UNK N   1      28.271  17.712   8.778  0.00  0.00     0.185 C 
HETATM    5  C   UNK N   1      30.759  17.324   8.641  0.00  0.00     0.171 C 
HETATM    6  C   UNK N   1      29.659  18.268   9.134  0.00  0.00     0.180 C 
ENDROOT
BRANCH   2   7
HETATM    7  N   UNK N   1      31.687  16.339   6.573  0.00  0.00    -0.406 N 
HETATM    8  H   UNK N   1      31.912  15.374   6.811  0.00  0.00     0.154 HD
BRANCH   7   9
HETATM    9  C   UNK N   1      32.382  17.183   5.603  0.00  0.00     0.124 C 
BRANCH   9  10
HETATM   10  C   UNK N   1      33.888  17.170   5.843  0.00  0.00     0.191 C 
BRANCH  10  11
HETATM   11  O   UNK N   1      34.254  18.114   6.803  0.00  0.00    -0.399 OA
HETATM   12  H   UNK N   1      34.564  19.007   7.024  0.00  0.00     0.209 HD
ENDBRANCH  10  11
ENDBRANCH   9  10
BRANCH   9  13
HETATM   13  C   UNK N   1      32.020  16.818   4.160  0.00  0.00     0.191 C 
BRANCH  13  14
HETATM   14  O   UNK N   1      31.543  17.931   3.464  0.00  0.00    -0.399 OA
HETATM   15  H   UNK N   1      30.906  18.653   3.346  0.00  0.00     0.209 HD
ENDBRANCH  13  14
ENDBRANCH   9  13
ENDBRANCH   7   9
ENDBRANCH   2   7
BRANCH   5  16
HETATM   16  O   UNK N   1      32.010  17.875   8.933  0.00  0.00    -0.391 OA
HETATM   17  H   UNK N   1      32.251  18.698   9.386  0.00  0.00     0.210 HD
ENDBRANCH   5  16
BRANCH   1  18
HETATM   18  O   UNK N   1      26.904  16.776   7.053  0.00  0.00    -0.385 OA
HETATM   19  H   UNK N   1      26.493  15.975   7.413  0.00  0.00     0.210 HD
ENDBRANCH   1  18
BRANCH   1  20
HETATM   20  C   UNK N   1      28.143  18.724   6.454  0.00  0.00     0.204 C 
BRANCH  20  21
HETATM   21  O   UNK N   1      26.914  19.383   6.542  0.00  0.00    -0.398 OA
HETATM   22  H   UNK N   1      26.095  18.875   6.649  0.00  0.00     0.209 HD
ENDBRANCH  20  21
ENDBRANCH   1  20
BRANCH   6  23
HETATM   23  O   UNK N   1      29.759  18.429  10.517  0.00  0.00    -0.390 OA
HETATM   24  H   UNK N   1      28.958  18.555  11.051  0.00  0.00     0.210 HD
ENDBRANCH   6  23
BRANCH   4  25
HETATM   25  O   UNK N   1      27.275  18.590   9.212  0.00  0.00    -0.390 OA
HETATM   26  H   UNK N   1      26.549  18.929   8.665  0.00  0.00     0.210 HD
ENDBRANCH   4  25
TORSDOF 12
ENDMDL
MODEL 2
REMARK VINA RESULT:      -5.2      4.456      6.440
REMARK  12 active torsions:
REMARK  status: ('A' for Active; 'I' for Inactive)
REMARK    1  A    between atoms: C_9  and  O_1 
REMARK    2  A    between atoms: C_12  and  O_2 
REMARK    3  A    between atoms: C_13  and  O_3 
REMARK    4  A    between atoms: C_14  and  O_4 
REMARK    5  A    between atoms: O_5  and  C_15 
REMARK    6  A    between atoms: O_6  and  C_17 
REMARK    7  A    between atoms: O_7  and  C_18 
REMARK    8  A    between atoms: C_10  and  N_8 
REMARK    9  A    between atoms: N_8  and  C_16 
REMARK   10  A    between atoms: C_9  and  C_15 
REMARK   11  A    between atoms: C_16  and  C_17 
REMARK   12  A    between atoms: C_16  and  C_18 
ROOT
HETATM    1  C   UNK N   1      33.388  15.957   7.191  0.00  0.00     0.109 C 
HETATM    2  C   UNK N   1      34.314  15.698   9.507  0.00  0.00     0.111 C 
HETATM    3  C   UNK N   1      33.113  15.431   8.601  0.00  0.00     0.070 C 
HETATM    4  C   UNK N   1      33.705  17.464   7.266  0.00  0.00     0.185 C 
HETATM    5  C   UNK N   1      34.540  17.203   9.631  0.00  0.00     0.171 C 
HETATM    6  C   UNK N   1      34.849  17.773   8.244  0.00  0.00     0.180 C 
ENDROOT
BRANCH   2   7
HETATM    7  N   UNK N   1      34.118  15.069  10.803  0.00  0.00    -0.406 N 
HETATM    8  H   UNK N   1      33.375  15.273  11.471  0.00  0.00     0.154 HD
BRANCH   7   9
HETATM    9  C   UNK N   1      35.188  14.087  10.961  0.00  0.00     0.124 C 
BRANCH   9  10
HETATM   10  C   UNK N   1      36.224  14.218   9.850  0.00  0.00     0.191 C 
BRANCH  10  11
HETATM   11  O   UNK N   1      37.385  14.837  10.314  0.00  0.00    -0.399 OA
HETATM   12  H   UNK N   1      38.353  14.861  10.376  0.00  0.00     0.209 HD
ENDBRANCH  10  11
ENDBRANCH   9  10
BRANCH   9  13
HETATM   13  C   UNK N   1      35.821  14.147  12.355  0.00  0.00     0.191 C 
BRANCH  13  14
HETATM   14  O   UNK N   1      36.216  15.448  12.673  0.00  0.00    -0.399 OA
HETATM   15  H   UNK N   1      36.641  16.290  12.444  0.00  0.00     0.209 HD
ENDBRANCH  13  14
ENDBRANCH   9  13
ENDBRANCH   7   9
ENDBRANCH   2   7
BRANCH   5  16
HETATM   16  O   UNK N   1      35.616  17.454  10.488  0.00  0.00    -0.391 OA
HETATM   17  H   UNK N   1      36.572  17.429  10.330  0.00  0.00     0.210 HD
ENDBRANCH   5  16
BRANCH   1  18
HETATM   18  O   UNK N   1      32.239  15.778   6.414  0.00  0.00    -0.385 OA
HETATM   19  H   UNK N   1      31.973  15.133   5.739  0.00  0.00     0.210 HD
ENDBRANCH   1  18
BRANCH   1  20
HETATM   20  C   UNK N   1      34.543  15.177   6.552  0.00  0.00     0.204 C 
BRANCH  20  21
HETATM   21  O   UNK N   1      34.564  15.370   5.168  0.00  0.00    -0.398 OA
HETATM   22  H   UNK N   1      33.934  15.977   4.750  0.00  0.00     0.209 HD
ENDBRANCH  20  21
ENDBRANCH   1  20
BRANCH   6  23
HETATM   23  O   UNK N   1      35.034  19.154   8.330  0.00  0.00    -0.390 OA
HETATM   24  H   UNK N   1      34.298  19.726   8.599  0.00  0.00     0.210 HD
ENDBRANCH   6  23
BRANCH   4  25
HETATM   25  O   UNK N   1      34.005  17.968   5.999  0.00  0.00    -0.390 OA
HETATM   26  H   UNK N   1      34.764  18.535   5.786  0.00  0.00     0.210 HD
ENDBRANCH   4  25
TORSDOF 12
ENDMDL
MODEL 3
REMARK VINA RESULT:      -5.2      2.118      3.537
REMARK  12 active torsions:
REMARK  status: ('A' for Active; 'I' for Inactive)
REMARK    1  A    between atoms: C_9  and  O_1 
REMARK    2  A    between atoms: C_12  and  O_2 
REMARK    3  A    between atoms: C_13  and  O_3 
REMARK    4  A    between atoms: C_14  and  O_4 
REMARK    5  A    between atoms: O_5  and  C_15 
REMARK    6  A    between atoms: O_6  and  C_17 
REMARK    7  A    between atoms: O_7  and  C_18 
REMARK    8  A    between atoms: C_10  and  N_8 
REMARK    9  A    between atoms: N_8  and  C_16 
REMARK   10  A    between atoms: C_9  and  C_15 
REMARK   11  A    between atoms: C_16  and  C_17 
REMARK   12  A    between atoms: C_16  and  C_18 
ROOT
HETATM    1  C   UNK N   1      30.292  16.357   6.096  0.00  0.00     0.109 C 
HETATM    2  C   UNK N   1      31.439  17.186   8.166  0.00  0.00     0.111 C 
HETATM    3  C   UNK N   1      31.244  15.989   7.237  0.00  0.00     0.070 C 
HETATM    4  C   UNK N   1      28.949  16.829   6.688  0.00  0.00     0.185 C 
HETATM    5  C   UNK N   1      30.105  17.565   8.805  0.00  0.00     0.171 C 
HETATM    6  C   UNK N   1      29.126  17.972   7.701  0.00  0.00     0.180 C 
ENDROOT
BRANCH   2   7
HETATM    7  N   UNK N   1      32.455  16.889   9.163  0.00  0.00    -0.406 N 
HETATM    8  H   UNK N   1      32.294  16.608  10.130  0.00  0.00     0.154 HD
BRANCH   7   9
HETATM    9  C   UNK N   1      33.750  17.068   8.511  0.00  0.00     0.124 C 
BRANCH   9  10
HETATM   10  C   UNK N   1      33.935  18.506   8.039  0.00  0.00     0.191 C 
BRANCH  10  11
HETATM   11  O   UNK N   1      35.165  19.019   8.454  0.00  0.00    -0.399 OA
HETATM   12  H   UNK N   1      35.694  19.764   8.780  0.00  0.00     0.209 HD
ENDBRANCH  10  11
ENDBRANCH   9  10
BRANCH   9  13
HETATM   13  C   UNK N   1      34.909  16.593   9.394  0.00  0.00     0.191 C 
BRANCH  13  14
HETATM   14  O   UNK N   1      34.831  17.152  10.671  0.00  0.00    -0.399 OA
HETATM   15  H   UNK N   1      34.562  17.862  11.275  0.00  0.00     0.209 HD
ENDBRANCH  13  14
ENDBRANCH   9  13
ENDBRANCH   7   9
ENDBRANCH   2   7
BRANCH   5  16
HETATM   16  O   UNK N   1      30.286  18.637   9.684  0.00  0.00    -0.391 OA
HETATM   17  H   UNK N   1      30.619  19.535   9.530  0.00  0.00     0.210 HD
ENDBRANCH   5  16
BRANCH   1  18
HETATM   18  O   UNK N   1      30.064  15.219   5.317  0.00  0.00    -0.385 OA
HETATM   19  H   UNK N   1      30.016  15.051   4.363  0.00  0.00     0.210 HD
ENDBRANCH   1  18
BRANCH   1  20
HETATM   20  C   UNK N   1      30.921  17.442   5.213  0.00  0.00     0.204 C 
BRANCH  20  21
HETATM   21  O   UNK N   1      30.252  17.534   3.990  0.00  0.00    -0.398 OA
HETATM   22  H   UNK N   1      29.288  17.637   3.968  0.00  0.00     0.209 HD
ENDBRANCH  20  21
ENDBRANCH   1  20
BRANCH   6  23
HETATM   23  O   UNK N   1      27.890  18.298   8.261  0.00  0.00    -0.390 OA
HETATM   24  H   UNK N   1      27.752  18.207   9.218  0.00  0.00     0.210 HD
ENDBRANCH   6  23
BRANCH   4  25
HETATM   25  O   UNK N   1      28.072  17.216   5.674  0.00  0.00    -0.390 OA
HETATM   26  H   UNK N   1      28.259  17.168   4.723  0.00  0.00     0.210 HD
ENDBRANCH   4  25
TORSDOF 12
ENDMDL
MODEL 4
REMARK VINA RESULT:      -4.9      1.692      5.838
REMARK  12 active torsions:
REMARK  status: ('A' for Active; 'I' for Inactive)
REMARK    1  A    between atoms: C_9  and  O_1 
REMARK    2  A    between atoms: C_12  and  O_2 
REMARK    3  A    between atoms: C_13  and  O_3 
REMARK    4  A    between atoms: C_14  and  O_4 
REMARK    5  A    between atoms: O_5  and  C_15 
REMARK    6  A    between atoms: O_6  and  C_17 
REMARK    7  A    between atoms: O_7  and  C_18 
REMARK    8  A    between atoms: C_10  and  N_8 
REMARK    9  A    between atoms: N_8  and  C_16 
REMARK   10  A    between atoms: C_9  and  C_15 
REMARK   11  A    between atoms: C_16  and  C_17 
REMARK   12  A    between atoms: C_16  and  C_18 
ROOT
HETATM    1  C   UNK N   1      33.143  16.842   7.972  0.00  0.00     0.109 C 
HETATM    2  C   UNK N   1      30.855  17.338   7.071  0.00  0.00     0.111 C 
HETATM    3  C   UNK N   1      31.645  16.573   8.132  0.00  0.00     0.070 C 
HETATM    4  C   UNK N   1      33.581  16.436   6.551  0.00  0.00     0.185 C 
HETATM    5  C   UNK N   1      31.249  16.844   5.681  0.00  0.00     0.171 C 
HETATM    6  C   UNK N   1      32.739  17.120   5.462  0.00  0.00     0.180 C 
ENDROOT
BRANCH   2   7
HETATM    7  N   UNK N   1      29.428  17.205   7.312  0.00  0.00    -0.406 N 
HETATM    8  H   UNK N   1      28.829  16.437   7.008  0.00  0.00     0.154 HD
BRANCH   7   9
HETATM    9  C   UNK N   1      29.017  18.382   8.074  0.00  0.00     0.124 C 
BRANCH   9  10
HETATM   10  C   UNK N   1      28.063  19.255   7.266  0.00  0.00     0.191 C 
BRANCH  10  11
HETATM   11  O   UNK N   1      27.050  19.776   8.073  0.00  0.00    -0.399 OA
HETATM   12  H   UNK N   1      26.769  20.383   8.775  0.00  0.00     0.209 HD
ENDBRANCH  10  11
ENDBRANCH   9  10
BRANCH   9  13
HETATM   13  C   UNK N   1      28.444  18.009   9.445  0.00  0.00     0.191 C 
BRANCH  13  14
HETATM   14  O   UNK N   1      27.389  17.104   9.320  0.00  0.00    -0.399 OA
HETATM   15  H   UNK N   1      26.513  16.857   8.983  0.00  0.00     0.209 HD
ENDBRANCH  13  14
ENDBRANCH   9  13
ENDBRANCH   7   9
ENDBRANCH   2   7
BRANCH   5  16
HETATM   16  O   UNK N   1      30.503  17.516   4.708  0.00  0.00    -0.391 OA
HETATM   17  H   UNK N   1      30.694  17.698   3.775  0.00  0.00     0.210 HD
ENDBRANCH   5  16
BRANCH   1  18
HETATM   18  O   UNK N   1      33.840  16.060   8.898  0.00  0.00    -0.385 OA
HETATM   19  H   UNK N   1      34.583  16.226   9.499  0.00  0.00     0.210 HD
ENDBRANCH   1  18
BRANCH   1  20
HETATM   20  C   UNK N   1      33.446  18.320   8.246  0.00  0.00     0.204 C 
BRANCH  20  21
HETATM   21  O   UNK N   1      34.788  18.493   8.593  0.00  0.00    -0.398 OA
HETATM   22  H   UNK N   1      35.248  19.317   8.368  0.00  0.00     0.209 HD
ENDBRANCH  20  21
ENDBRANCH   1  20
BRANCH   6  23
HETATM   23  O   UNK N   1      33.127  16.652   4.205  0.00  0.00    -0.390 OA
HETATM   24  H   UNK N   1      33.411  17.278   3.520  0.00  0.00     0.210 HD
ENDBRANCH   6  23
BRANCH   4  25
HETATM   25  O   UNK N   1      34.936  16.711   6.355  0.00  0.00    -0.390 OA
HETATM   26  H   UNK N   1      35.497  16.310   5.673  0.00  0.00     0.210 HD
ENDBRANCH   4  25
TORSDOF 12
ENDMDL
MODEL 5
REMARK VINA RESULT:      -4.9      3.910      5.829
REMARK  12 active torsions:
REMARK  status: ('A' for Active; 'I' for Inactive)
REMARK    1  A    between atoms: C_9  and  O_1 
REMARK    2  A    between atoms: C_12  and  O_2 
REMARK    3  A    between atoms: C_13  and  O_3 
REMARK    4  A    between atoms: C_14  and  O_4 
REMARK    5  A    between atoms: O_5  and  C_15 
REMARK    6  A    between atoms: O_6  and  C_17 
REMARK    7  A    between atoms: O_7  and  C_18 
REMARK    8  A    between atoms: C_10  and  N_8 
REMARK    9  A    between atoms: N_8  and  C_16 
REMARK   10  A    between atoms: C_9  and  C_15 
REMARK   11  A    between atoms: C_16  and  C_17 
REMARK   12  A    between atoms: C_16  and  C_18 
ROOT
HETATM    1  C   UNK N   1      33.366  15.748   6.811  0.00  0.00     0.109 C 
HETATM    2  C   UNK N   1      33.948  14.654   8.992  0.00  0.00     0.111 C 
HETATM    3  C   UNK N   1      33.868  14.465   7.478  0.00  0.00     0.070 C 
HETATM    4  C   UNK N   1      31.990  16.120   7.401  0.00  0.00     0.185 C 
HETATM    5  C   UNK N   1      32.554  14.928   9.551  0.00  0.00     0.171 C 
HETATM    6  C   UNK N   1      32.021  16.225   8.934  0.00  0.00     0.180 C 
ENDROOT
BRANCH   2   7
HETATM    7  N   UNK N   1      34.565  13.492   9.612  0.00  0.00    -0.406 N 
HETATM    8  H   UNK N   1      34.195  12.542   9.624  0.00  0.00     0.154 HD
BRANCH   7   9
HETATM    9  C   UNK N   1      35.815  13.949  10.213  0.00  0.00     0.124 C 
BRANCH   9  10
HETATM   10  C   UNK N   1      36.017  15.444   9.995  0.00  0.00     0.191 C 
BRANCH  10  11
HETATM   11  O   UNK N   1      36.840  15.991  10.981  0.00  0.00    -0.399 OA
HETATM   12  H   UNK N   1      36.943  16.380  11.864  0.00  0.00     0.209 HD
ENDBRANCH  10  11
ENDBRANCH   9  10
BRANCH   9  13
HETATM   13  C   UNK N   1      35.919  13.558  11.691  0.00  0.00     0.191 C 
BRANCH  13  14
HETATM   14  O   UNK N   1      34.843  14.064  12.422  0.00  0.00    -0.399 OA
HETATM   15  H   UNK N   1      34.482  14.582  13.159  0.00  0.00     0.209 HD
ENDBRANCH  13  14
ENDBRANCH   9  13
ENDBRANCH   7   9
ENDBRANCH   2   7
BRANCH   5  16
HETATM   16  O   UNK N   1      32.618  15.067  10.941  0.00  0.00    -0.391 OA
HETATM   17  H   UNK N   1      33.360  15.295  11.523  0.00  0.00     0.210 HD
ENDBRANCH   5  16
BRANCH   1  18
HETATM   18  O   UNK N   1      33.218  15.513   5.441  0.00  0.00    -0.385 OA
HETATM   19  H   UNK N   1      33.662  14.933   4.803  0.00  0.00     0.210 HD
ENDBRANCH   1  18
BRANCH   1  20
HETATM   20  C   UNK N   1      34.381  16.879   7.012  0.00  0.00     0.204 C 
BRANCH  20  21
HETATM   21  O   UNK N   1      34.186  17.892   6.070  0.00  0.00    -0.398 OA
HETATM   22  H   UNK N   1      34.181  17.683   5.123  0.00  0.00     0.209 HD
ENDBRANCH  20  21
ENDBRANCH   1  20
BRANCH   6  23
HETATM   23  O   UNK N   1      30.735  16.482   9.413  0.00  0.00    -0.390 OA
HETATM   24  H   UNK N   1      30.483  16.195  10.305  0.00  0.00     0.210 HD
ENDBRANCH   6  23
BRANCH   4  25
HETATM   25  O   UNK N   1      31.523  17.313   6.846  0.00  0.00    -0.390 OA
HETATM   26  H   UNK N   1      30.679  17.740   7.064  0.00  0.00     0.210 HD
ENDBRANCH   4  25
TORSDOF 12
ENDMDL
MODEL 6
REMARK VINA RESULT:      -4.7      4.649      7.304
REMARK  12 active torsions:
REMARK  status: ('A' for Active; 'I' for Inactive)
REMARK    1  A    between atoms: C_9  and  O_1 
REMARK    2  A    between atoms: C_12  and  O_2 
REMARK    3  A    between atoms: C_13  and  O_3 
REMARK    4  A    between atoms: C_14  and  O_4 
REMARK    5  A    between atoms: O_5  and  C_15 
REMARK    6  A    between atoms: O_6  and  C_17 
REMARK    7  A    between atoms: O_7  and  C_18 
REMARK    8  A    between atoms: C_10  and  N_8 
REMARK    9  A    between atoms: N_8  and  C_16 
REMARK   10  A    between atoms: C_9  and  C_15 
REMARK   11  A    between atoms: C_16  and  C_17 
REMARK   12  A    between atoms: C_16  and  C_18 
ROOT
HETATM    1  C   UNK N   1      34.964  14.325  11.260  0.00  0.00     0.109 C 
HETATM    2  C   UNK N   1      34.381  15.423   9.083  0.00  0.00     0.111 C 
HETATM    3  C   UNK N   1      33.821  14.770  10.346  0.00  0.00     0.070 C 
HETATM    4  C   UNK N   1      35.881  13.354  10.489  0.00  0.00     0.185 C 
HETATM    5  C   UNK N   1      35.206  14.406   8.299  0.00  0.00     0.171 C 
HETATM    6  C   UNK N   1      36.384  13.952   9.165  0.00  0.00     0.180 C 
ENDROOT
BRANCH   2   7
HETATM    7  N   UNK N   1      33.301  15.980   8.284  0.00  0.00    -0.406 N 
HETATM    8  H   UNK N   1      32.731  15.482   7.601  0.00  0.00     0.154 HD
BRANCH   7   9
HETATM    9  C   UNK N   1      33.190  17.390   8.650  0.00  0.00     0.124 C 
BRANCH   9  10
HETATM   10  C   UNK N   1      34.320  18.209   8.036  0.00  0.00     0.191 C 
BRANCH  10  11
HETATM   11  O   UNK N   1      34.509  17.879   6.693  0.00  0.00    -0.399 OA
HETATM   12  H   UNK N   1      35.104  17.630   5.967  0.00  0.00     0.209 HD
ENDBRANCH  10  11
ENDBRANCH   9  10
BRANCH   9  13
HETATM   13  C   UNK N   1      31.809  17.964   8.315  0.00  0.00     0.191 C 
BRANCH  13  14
HETATM   14  O   UNK N   1      30.945  17.864   9.407  0.00  0.00    -0.399 OA
HETATM   15  H   UNK N   1      30.121  18.095   9.866  0.00  0.00     0.209 HD
ENDBRANCH  13  14
ENDBRANCH   9  13
ENDBRANCH   7   9
ENDBRANCH   2   7
BRANCH   5  16
HETATM   16  O   UNK N   1      35.690  14.989   7.125  0.00  0.00    -0.391 OA
HETATM   17  H   UNK N   1      35.887  14.602   6.257  0.00  0.00     0.210 HD
ENDBRANCH   5  16
BRANCH   1  18
HETATM   18  O   UNK N   1      34.423  13.652  12.360  0.00  0.00    -0.385 OA
HETATM   19  H   UNK N   1      34.636  12.824  12.818  0.00  0.00     0.210 HD
ENDBRANCH   1  18
BRANCH   1  20
HETATM   20  C   UNK N   1      35.745  15.545  11.762  0.00  0.00     0.204 C 
BRANCH  20  21
HETATM   21  O   UNK N   1      36.456  15.234  12.924  0.00  0.00    -0.398 OA
HETATM   22  H   UNK N   1      36.683  15.931  13.558  0.00  0.00     0.209 HD
ENDBRANCH  20  21
ENDBRANCH   1  20
BRANCH   6  23
HETATM   23  O   UNK N   1      37.138  13.000   8.477  0.00  0.00    -0.390 OA
HETATM   24  H   UNK N   1      36.916  12.776   7.559  0.00  0.00     0.210 HD
ENDBRANCH   6  23
BRANCH   4  25
HETATM   25  O   UNK N   1      36.962  12.963  11.282  0.00  0.00    -0.390 OA
HETATM   26  H   UNK N   1      37.683  13.544  11.573  0.00  0.00     0.210 HD
ENDBRANCH   4  25
TORSDOF 12
ENDMDL
MODEL 7
REMARK VINA RESULT:      -4.7      2.771      4.784
REMARK  12 active torsions:
REMARK  status: ('A' for Active; 'I' for Inactive)
REMARK    1  A    between atoms: C_9  and  O_1 
REMARK    2  A    between atoms: C_12  and  O_2 
REMARK    3  A    between atoms: C_13  and  O_3 
REMARK    4  A    between atoms: C_14  and  O_4 
REMARK    5  A    between atoms: O_5  and  C_15 
REMARK    6  A    between atoms: O_6  and  C_17 
REMARK    7  A    between atoms: O_7  and  C_18 
REMARK    8  A    between atoms: C_10  and  N_8 
REMARK    9  A    between atoms: N_8  and  C_16 
REMARK   10  A    between atoms: C_9  and  C_15 
REMARK   11  A    between atoms: C_16  and  C_17 
REMARK   12  A    between atoms: C_16  and  C_18 
ROOT
HETATM    1  C   UNK N   1      32.895  14.895   9.064  0.00  0.00     0.109 C 
HETATM    2  C   UNK N   1      33.300  16.523   7.200  0.00  0.00     0.111 C 
HETATM    3  C   UNK N   1      33.119  15.049   7.558  0.00  0.00     0.070 C 
HETATM    4  C   UNK N   1      34.090  15.510   9.819  0.00  0.00     0.185 C 
HETATM    5  C   UNK N   1      34.545  17.072   7.892  0.00  0.00     0.171 C 
HETATM    6  C   UNK N   1      34.355  16.967   9.408  0.00  0.00     0.180 C 
ENDROOT
BRANCH   2   7
HETATM    7  N   UNK N   1      33.362  16.686   5.757  0.00  0.00    -0.406 N 
HETATM    8  H   UNK N   1      34.167  17.002   5.215  0.00  0.00     0.154 HD
BRANCH   7   9
HETATM    9  C   UNK N   1      32.051  16.312   5.232  0.00  0.00     0.124 C 
BRANCH   9  10
HETATM   10  C   UNK N   1      30.960  17.228   5.774  0.00  0.00     0.191 C 
BRANCH  10  11
HETATM   11  O   UNK N   1      29.738  16.560   5.862  0.00  0.00    -0.399 OA
HETATM   12  H   UNK N   1      28.783  16.579   6.036  0.00  0.00     0.209 HD
ENDBRANCH  10  11
ENDBRANCH   9  10
BRANCH   9  13
HETATM   13  C   UNK N   1      32.044  16.241   3.702  0.00  0.00     0.191 C 
BRANCH  13  14
HETATM   14  O   UNK N   1      31.042  17.051   3.165  0.00  0.00    -0.399 OA
HETATM   15  H   UNK N   1      30.113  17.224   2.944  0.00  0.00     0.209 HD
ENDBRANCH  13  14
ENDBRANCH   9  13
ENDBRANCH   7   9
ENDBRANCH   2   7
BRANCH   5  16
HETATM   16  O   UNK N   1      34.734  18.411   7.539  0.00  0.00    -0.391 OA
HETATM   17  H   UNK N   1      35.262  19.110   7.956  0.00  0.00     0.210 HD
ENDBRANCH   5  16
BRANCH   1  18
HETATM   18  O   UNK N   1      32.823  13.533   9.370  0.00  0.00    -0.385 OA
HETATM   19  H   UNK N   1      33.082  12.721   8.906  0.00  0.00     0.210 HD
ENDBRANCH   1  18
BRANCH   1  20
HETATM   20  C   UNK N   1      31.577  15.563   9.472  0.00  0.00     0.204 C 
BRANCH  20  21
HETATM   21  O   UNK N   1      31.239  15.229  10.786  0.00  0.00    -0.398 OA
HETATM   22  H   UNK N   1      30.867  15.899  11.380  0.00  0.00     0.209 HD
ENDBRANCH  20  21
ENDBRANCH   1  20
BRANCH   6  23
HETATM   23  O   UNK N   1      35.493  17.441  10.061  0.00  0.00    -0.390 OA
HETATM   24  H   UNK N   1      36.373  17.266   9.691  0.00  0.00     0.210 HD
ENDBRANCH   6  23
BRANCH   4  25
HETATM   25  O   UNK N   1      33.896  15.427  11.200  0.00  0.00    -0.390 OA
HETATM   26  H   UNK N   1      33.194  15.878  11.695  0.00  0.00     0.210 HD
ENDBRANCH   4  25
TORSDOF 12
ENDMDL
MODEL 8
REMARK VINA RESULT:      -4.7      3.656      5.601
REMARK  12 active torsions:
REMARK  status: ('A' for Active; 'I' for Inactive)
REMARK    1  A    between atoms: C_9  and  O_1 
REMARK    2  A    between atoms: C_12  and  O_2 
REMARK    3  A    between atoms: C_13  and  O_3 
REMARK    4  A    between atoms: C_14  and  O_4 
REMARK    5  A    between atoms: O_5  and  C_15 
REMARK    6  A    between atoms: O_6  and  C_17 
REMARK    7  A    between atoms: O_7  and  C_18 
REMARK    8  A    between atoms: C_10  and  N_8 
REMARK    9  A    between atoms: N_8  and  C_16 
REMARK   10  A    between atoms: C_9  and  C_15 
REMARK   11  A    between atoms: C_16  and  C_17 
REMARK   12  A    between atoms: C_16  and  C_18 
ROOT
HETATM    1  C   UNK N   1      34.471  15.283   9.188  0.00  0.00     0.109 C 
HETATM    2  C   UNK N   1      33.937  15.757   6.783  0.00  0.00     0.111 C 
HETATM    3  C   UNK N   1      34.651  14.807   7.745  0.00  0.00     0.070 C 
HETATM    4  C   UNK N   1      35.013  16.721   9.318  0.00  0.00     0.185 C 
HETATM    5  C   UNK N   1      34.563  17.147   6.873  0.00  0.00     0.171 C 
HETATM    6  C   UNK N   1      34.380  17.680   8.297  0.00  0.00     0.180 C 
ENDROOT
BRANCH   2   7
HETATM    7  N   UNK N   1      33.979  15.227   5.430  0.00  0.00    -0.406 N 
HETATM    8  H   UNK N   1      34.805  15.139   4.837  0.00  0.00     0.154 HD
BRANCH   7   9
HETATM    9  C   UNK N   1      32.612  14.848   5.083  0.00  0.00     0.124 C 
BRANCH   9  10
HETATM   10  C   UNK N   1      32.452  13.332   5.057  0.00  0.00     0.191 C 
BRANCH  10  11
HETATM   11  O   UNK N   1      32.024  12.849   6.295  0.00  0.00    -0.399 OA
HETATM   12  H   UNK N   1      32.199  12.684   7.235  0.00  0.00     0.209 HD
ENDBRANCH  10  11
ENDBRANCH   9  10
BRANCH   9  13
HETATM   13  C   UNK N   1      31.580  15.526   5.989  0.00  0.00     0.191 C 
BRANCH  13  14
HETATM   14  O   UNK N   1      31.120  16.717   5.424  0.00  0.00    -0.399 OA
HETATM   15  H   UNK N   1      31.179  17.426   4.765  0.00  0.00     0.209 HD
ENDBRANCH  13  14
ENDBRANCH   9  13
ENDBRANCH   7   9
ENDBRANCH   2   7
BRANCH   5  16
HETATM   16  O   UNK N   1      33.937  18.010   5.970  0.00  0.00    -0.391 OA
HETATM   17  H   UNK N   1      34.084  18.950   5.784  0.00  0.00     0.210 HD
ENDBRANCH   5  16
BRANCH   1  18
HETATM   18  O   UNK N   1      35.208  14.447  10.032  0.00  0.00    -0.385 OA
HETATM   19  H   UNK N   1      35.604  14.554  10.910  0.00  0.00     0.210 HD
ENDBRANCH   1  18
BRANCH   1  20
HETATM   20  C   UNK N   1      32.993  15.209   9.587  0.00  0.00     0.204 C 
BRANCH  20  21
HETATM   21  O   UNK N   1      32.861  15.047  10.969  0.00  0.00    -0.398 OA
HETATM   22  H   UNK N   1      32.985  14.174  11.372  0.00  0.00     0.209 HD
ENDBRANCH  20  21
ENDBRANCH   1  20
BRANCH   6  23
HETATM   23  O   UNK N   1      34.968  18.941   8.409  0.00  0.00    -0.390 OA
HETATM   24  H   UNK N   1      35.478  19.306   7.669  0.00  0.00     0.210 HD
ENDBRANCH   6  23
BRANCH   4  25
HETATM   25  O   UNK N   1      34.823  17.204  10.614  0.00  0.00    -0.390 OA
HETATM   26  H   UNK N   1      35.462  17.129  11.340  0.00  0.00     0.210 HD
ENDBRANCH   4  25
TORSDOF 12
ENDMDL
MODEL 9
REMARK VINA RESULT:      -4.6      6.465      8.880
REMARK  12 active torsions:
REMARK  status: ('A' for Active; 'I' for Inactive)
REMARK    1  A    between atoms: C_9  and  O_1 
REMARK    2  A    between atoms: C_12  and  O_2 
REMARK    3  A    between atoms: C_13  and  O_3 
REMARK    4  A    between atoms: C_14  and  O_4 
REMARK    5  A    between atoms: O_5  and  C_15 
REMARK    6  A    between atoms: O_6  and  C_17 
REMARK    7  A    between atoms: O_7  and  C_18 
REMARK    8  A    between atoms: C_10  and  N_8 
REMARK    9  A    between atoms: N_8  and  C_16 
REMARK   10  A    between atoms: C_9  and  C_15 
REMARK   11  A    between atoms: C_16  and  C_17 
REMARK   12  A    between atoms: C_16  and  C_18 
ROOT
HETATM    1  C   UNK N   1      34.714  15.849  10.191  0.00  0.00     0.109 C 
HETATM    2  C   UNK N   1      36.151  14.440  11.687  0.00  0.00     0.111 C 
HETATM    3  C   UNK N   1      35.584  15.839  11.450  0.00  0.00     0.070 C 
HETATM    4  C   UNK N   1      35.557  15.378   8.989  0.00  0.00     0.185 C 
HETATM    5  C   UNK N   1      37.054  14.047  10.521  0.00  0.00     0.171 C 
HETATM    6  C   UNK N   1      36.218  14.013   9.238  0.00  0.00     0.180 C 
ENDROOT
BRANCH   2   7
HETATM    7  N   UNK N   1      36.853  14.391  12.959  0.00  0.00    -0.406 N 
HETATM    8  H   UNK N   1      37.828  14.641  13.126  0.00  0.00     0.154 HD
BRANCH   7   9
HETATM    9  C   UNK N   1      35.893  13.915  13.953  0.00  0.00     0.124 C 
BRANCH   9  10
HETATM   10  C   UNK N   1      35.147  12.684  13.451  0.00  0.00     0.191 C 
BRANCH  10  11
HETATM   11  O   UNK N   1      34.196  12.258  14.380  0.00  0.00    -0.399 OA
HETATM   12  H   UNK N   1      33.327  11.870  14.570  0.00  0.00     0.209 HD
ENDBRANCH  10  11
ENDBRANCH   9  10
BRANCH   9  13
HETATM   13  C   UNK N   1      36.547  13.683  15.319  0.00  0.00     0.191 C 
BRANCH  13  14
HETATM   14  O   UNK N   1      37.632  14.540  15.510  0.00  0.00    -0.399 OA
HETATM   15  H   UNK N   1      38.236  15.233  15.198  0.00  0.00     0.209 HD
ENDBRANCH  13  14
ENDBRANCH   9  13
ENDBRANCH   7   9
ENDBRANCH   2   7
BRANCH   5  16
HETATM   16  O   UNK N   1      37.604  12.782  10.750  0.00  0.00    -0.391 OA
HETATM   17  H   UNK N   1      37.844  12.335  11.577  0.00  0.00     0.210 HD
ENDBRANCH   5  16
BRANCH   1  18
HETATM   18  O   UNK N   1      34.285  17.159   9.953  0.00  0.00    -0.385 OA
HETATM   19  H   UNK N   1      34.720  17.964   9.632  0.00  0.00     0.210 HD
ENDBRANCH   1  18
BRANCH   1  20
HETATM   20  C   UNK N   1      33.485  14.956  10.392  0.00  0.00     0.204 C 
BRANCH  20  21
HETATM   21  O   UNK N   1      32.364  15.507   9.765  0.00  0.00    -0.398 OA
HETATM   22  H   UNK N   1      31.592  14.954   9.571  0.00  0.00     0.209 HD
ENDBRANCH  20  21
ENDBRANCH   1  20
BRANCH   6  23
HETATM   23  O   UNK N   1      37.030  13.680   8.153  0.00  0.00    -0.390 OA
HETATM   24  H   UNK N   1      37.996  13.723   8.238  0.00  0.00     0.210 HD
ENDBRANCH   6  23
BRANCH   4  25
HETATM   25  O   UNK N   1      34.780  15.332   7.830  0.00  0.00    -0.390 OA
HETATM   26  H   UNK N   1      33.845  15.585   7.772  0.00  0.00     0.210 HD
ENDBRANCH   4  25
TORSDOF 12
ENDMDL
