MODEL 1
REMARK VINA RESULT:      -7.3      0.000      0.000
REMARK  7 active torsions:
REMARK  status: ('A' for Active; 'I' for Inactive)
REMARK    1  A    between atoms: C_15  and  O_2 
REMARK    2  A    between atoms: C_16  and  O_3 
REMARK    3  A    between atoms: O_5  and  C_18 
REMARK    4  A    between atoms: C_14  and  N_6 
REMARK    5  A    between atoms: C_19  and  N_7 
REMARK    6  A    between atoms: N_7  and  C_25 
REMARK    7  A    between atoms: C_17  and  C_18 
ROOT
HETATM    1  N   UNK N   1      31.728  16.623   7.540  0.00  0.00    -0.297 N 
HETATM    2  N   UNK N   1      30.012  16.854   6.095  0.00  0.00    -0.346 N 
ATOM      3  HN  UNK N   1      29.436  16.795   5.254  1.00  0.00     0.167 HD
HETATM    4  N   UNK N   1      30.722  17.798   9.382  0.00  0.00    -0.336 N 
ATOM      5  HN  UNK N   1      31.523  17.676  10.001  1.00  0.00     0.168 HD
HETATM    6  N   UNK N   1      28.558  18.643   8.953  0.00  0.00    -0.337 N 
ATOM      7  HN  UNK N   1      27.741  19.160   9.278  1.00  0.00     0.168 HD
HETATM    8  C   UNK N   1      30.735  17.298   8.128  0.00  0.00     0.142 A 
HETATM    9  C   UNK N   1      29.702  17.440   7.269  0.00  0.00     0.122 A 
HETATM   10  C   UNK N   1      31.273  16.354   6.287  0.00  0.00     0.188 A 
HETATM   11  C   UNK N   1      28.565  18.143   7.679  0.00  0.00     0.133 A 
HETATM   12  C   UNK N   1      29.614  18.468   9.801  0.00  0.00     0.183 A 
ENDROOT
BRANCH   1  13
HETATM   13  C   UNK N   1      33.033  16.319   8.148  0.00  0.00     0.262 C 
HETATM   14  O   UNK N   1      32.917  15.632   9.378  0.00  0.00    -0.353 OA
HETATM   15  C   UNK N   1      33.994  16.111  10.170  0.00  0.00     0.179 C 
HETATM   16  C   UNK N   1      34.882  16.940   9.280  0.00  0.00     0.182 C 
HETATM   17  C   UNK N   1      33.863  17.560   8.411  0.00  0.00     0.198 C 
BRANCH  15  18
HETATM   18  C   UNK N   1      34.810  14.970  10.751  0.00  0.00     0.198 C 
BRANCH  18  19
HETATM   19  O   UNK N   1      34.049  14.266  11.682  0.00  0.00    -0.398 OA
HETATM   20  H   UNK N   1      33.477  13.527  11.427  0.00  0.00     0.209 HD
ENDBRANCH  18  19
ENDBRANCH  15  18
BRANCH  16  21
HETATM   21  O   UNK N   1      35.599  17.897   9.998  0.00  0.00    -0.390 OA
HETATM   22  H   UNK N   1      35.836  18.016  10.931  0.00  0.00     0.210 HD
ENDBRANCH  16  21
BRANCH  17  23
HETATM   23  O   UNK N   1      34.473  18.050   7.259  0.00  0.00    -0.388 OA
HETATM   24  H   UNK N   1      35.380  17.846   6.981  0.00  0.00     0.210 HD
ENDBRANCH  17  23
ENDBRANCH   1  13
BRANCH  11  25
HETATM   25  N   UNK N   1      27.453  18.375   6.827  0.00  0.00    -0.368 N 
HETATM   26  H   UNK N   1      26.639  17.830   6.913  0.00  0.00     0.161 HD
BRANCH  25  27
HETATM   27  C   UNK N   1      27.529  19.425   5.828  0.00  0.00     0.109 C 
HETATM   28  C   UNK N   1      27.515  18.914   4.432  0.00  0.00     0.053 C 
HETATM   29  C   UNK N   1      26.957  20.115   3.680  0.00  0.00     0.169 C 
HETATM   30  O   UNK N   1      26.361  21.008   4.597  0.00  0.00    -0.389 OA
HETATM   31  C   UNK N   1      26.316  20.314   5.811  0.00  0.00     0.192 C 
ENDBRANCH  25  27
ENDBRANCH  11  25
TORSDOF 7
ENDMDL
MODEL 2
REMARK VINA RESULT:      -7.2      1.677      2.114
REMARK  7 active torsions:
REMARK  status: ('A' for Active; 'I' for Inactive)
REMARK    1  A    between atoms: C_15  and  O_2 
REMARK    2  A    between atoms: C_16  and  O_3 
REMARK    3  A    between atoms: O_5  and  C_18 
REMARK    4  A    between atoms: C_14  and  N_6 
REMARK    5  A    between atoms: C_19  and  N_7 
REMARK    6  A    between atoms: N_7  and  C_25 
REMARK    7  A    between atoms: C_17  and  C_18 
ROOT
HETATM    1  N   UNK N   1      31.650  16.907   5.872  0.00  0.00    -0.297 N 
HETATM    2  N   UNK N   1      30.676  17.604   3.960  0.00  0.00    -0.346 N 
ATOM      3  HN  UNK N   1      30.515  17.823   2.977  1.00  0.00     0.167 HD
HETATM    4  N   UNK N   1      29.825  17.438   7.344  0.00  0.00    -0.336 N 
ATOM      5  HN  UNK N   1      30.305  17.118   8.185  1.00  0.00     0.168 HD
HETATM    6  N   UNK N   1      27.945  18.397   6.283  0.00  0.00    -0.337 N 
ATOM      7  HN  UNK N   1      27.006  18.791   6.355  1.00  0.00     0.168 HD
HETATM    8  C   UNK N   1      30.424  17.367   6.136  0.00  0.00     0.142 A 
HETATM    9  C   UNK N   1      29.833  17.787   4.996  0.00  0.00     0.122 A 
HETATM   10  C   UNK N   1      31.797  17.058   4.528  0.00  0.00     0.188 A 
HETATM   11  C   UNK N   1      28.546  18.331   5.055  0.00  0.00     0.133 A 
HETATM   12  C   UNK N   1      28.565  17.950   7.414  0.00  0.00     0.183 A 
ENDROOT
BRANCH   1  13
HETATM   13  C   UNK N   1      32.612  16.411   6.869  0.00  0.00     0.262 C 
HETATM   14  O   UNK N   1      32.002  15.633   7.879  0.00  0.00    -0.353 OA
HETATM   15  C   UNK N   1      32.736  15.921   9.059  0.00  0.00     0.179 C 
HETATM   16  C   UNK N   1      33.943  16.727   8.661  0.00  0.00     0.182 C 
HETATM   17  C   UNK N   1      33.365  17.528   7.566  0.00  0.00     0.198 C 
BRANCH  15  18
HETATM   18  C   UNK N   1      33.200  14.652   9.753  0.00  0.00     0.198 C 
BRANCH  18  19
HETATM   19  O   UNK N   1      33.402  14.897  11.109  0.00  0.00    -0.398 OA
HETATM   20  H   UNK N   1      32.994  15.650  11.563  0.00  0.00     0.209 HD
ENDBRANCH  18  19
ENDBRANCH  15  18
BRANCH  16  21
HETATM   21  O   UNK N   1      34.403  17.534   9.702  0.00  0.00    -0.390 OA
HETATM   22  H   UNK N   1      34.251  18.453   9.974  0.00  0.00     0.210 HD
ENDBRANCH  16  21
BRANCH  17  23
HETATM   23  O   UNK N   1      34.391  18.052   6.782  0.00  0.00    -0.388 OA
HETATM   24  H   UNK N   1      35.307  17.734   6.783  0.00  0.00     0.210 HD
ENDBRANCH  17  23
ENDBRANCH   1  13
BRANCH  11  25
HETATM   25  N   UNK N   1      27.869  18.835   3.913  0.00  0.00    -0.368 N 
HETATM   26  H   UNK N   1      28.304  18.817   3.030  0.00  0.00     0.161 HD
BRANCH  25  27
HETATM   27  C   UNK N   1      26.531  19.376   4.059  0.00  0.00     0.109 C 
HETATM   28  C   UNK N   1      26.247  20.506   3.137  0.00  0.00     0.053 C 
HETATM   29  C   UNK N   1      24.730  20.425   3.024  0.00  0.00     0.169 C 
HETATM   30  O   UNK N   1      24.291  19.168   3.491  0.00  0.00    -0.389 OA
HETATM   31  C   UNK N   1      25.454  18.408   3.654  0.00  0.00     0.192 C 
ENDBRANCH  25  27
ENDBRANCH  11  25
TORSDOF 7
ENDMDL
MODEL 3
REMARK VINA RESULT:      -6.9      9.230     12.212
REMARK  7 active torsions:
REMARK  status: ('A' for Active; 'I' for Inactive)
REMARK    1  A    between atoms: C_15  and  O_2 
REMARK    2  A    between atoms: C_16  and  O_3 
REMARK    3  A    between atoms: O_5  and  C_18 
REMARK    4  A    between atoms: C_14  and  N_6 
REMARK    5  A    between atoms: C_19  and  N_7 
REMARK    6  A    between atoms: N_7  and  C_25 
REMARK    7  A    between atoms: C_17  and  C_18 
ROOT
HETATM    1  N   UNK N   1      21.453  15.675   4.956  0.00  0.00    -0.297 N 
HETATM    2  N   UNK N   1      21.835  13.715   6.004  0.00  0.00    -0.346 N 
ATOM      3  HN  UNK N   1      22.097  12.745   6.183  1.00  0.00     0.167 HD
HETATM    4  N   UNK N   1      20.650  16.883   6.875  0.00  0.00    -0.336 N 
ATOM      5  HN  UNK N   1      20.486  17.749   6.361  1.00  0.00     0.168 HD
HETATM    6  N   UNK N   1      20.584  15.631   8.875  0.00  0.00    -0.337 N 
ATOM      7  HN  UNK N   1      20.364  15.583   9.871  1.00  0.00     0.168 HD
HETATM    8  C   UNK N   1      21.139  15.790   6.250  0.00  0.00     0.142 A 
HETATM    9  C   UNK N   1      21.365  14.620   6.885  0.00  0.00     0.122 A 
HETATM   10  C   UNK N   1      21.881  14.392   4.814  0.00  0.00     0.188 A 
HETATM   11  C   UNK N   1      21.075  14.517   8.250  0.00  0.00     0.133 A 
HETATM   12  C   UNK N   1      20.381  16.803   8.207  0.00  0.00     0.183 A 
ENDROOT
BRANCH   1  13
HETATM   13  C   UNK N   1      21.293  16.727   3.939  0.00  0.00     0.262 C 
HETATM   14  O   UNK N   1      21.697  18.000   4.401  0.00  0.00    -0.353 OA
HETATM   15  C   UNK N   1      20.811  18.917   3.776  0.00  0.00     0.179 C 
HETATM   16  C   UNK N   1      20.012  18.154   2.753  0.00  0.00     0.182 C 
HETATM   17  C   UNK N   1      19.863  16.866   3.456  0.00  0.00     0.198 C 
BRANCH  15  18
HETATM   18  C   UNK N   1      21.565  20.034   3.076  0.00  0.00     0.198 C 
BRANCH  18  19
HETATM   19  O   UNK N   1      20.800  21.199   3.079  0.00  0.00    -0.398 OA
HETATM   20  H   UNK N   1      20.925  21.899   2.420  0.00  0.00     0.209 HD
ENDBRANCH  18  19
ENDBRANCH  15  18
BRANCH  16  21
HETATM   21  O   UNK N   1      18.776  18.750   2.501  0.00  0.00    -0.390 OA
HETATM   22  H   UNK N   1      17.959  18.872   3.010  0.00  0.00     0.210 HD
ENDBRANCH  16  21
BRANCH  17  23
HETATM   23  O   UNK N   1      19.509  15.876   2.542  0.00  0.00    -0.388 OA
HETATM   24  H   UNK N   1      20.027  15.634   1.758  0.00  0.00     0.210 HD
ENDBRANCH  17  23
ENDBRANCH   1  13
BRANCH  11  25
HETATM   25  N   UNK N   1      21.243  13.314   8.985  0.00  0.00    -0.368 N 
HETATM   26  H   UNK N   1      20.705  12.519   8.765  0.00  0.00     0.161 HD
BRANCH  25  27
HETATM   27  C   UNK N   1      22.214  13.266  10.061  0.00  0.00     0.109 C 
HETATM   28  C   UNK N   1      21.923  12.217  11.073  0.00  0.00     0.053 C 
HETATM   29  C   UNK N   1      23.314  11.952  11.636  0.00  0.00     0.169 C 
HETATM   30  O   UNK N   1      24.284  12.485  10.761  0.00  0.00    -0.389 OA
HETATM   31  C   UNK N   1      23.583  12.840   9.604  0.00  0.00     0.192 C 
ENDBRANCH  25  27
ENDBRANCH  11  25
TORSDOF 7
ENDMDL
MODEL 4
REMARK VINA RESULT:      -6.7      4.542     10.543
REMARK  7 active torsions:
REMARK  status: ('A' for Active; 'I' for Inactive)
REMARK    1  A    between atoms: C_15  and  O_2 
REMARK    2  A    between atoms: C_16  and  O_3 
REMARK    3  A    between atoms: O_5  and  C_18 
REMARK    4  A    between atoms: C_14  and  N_6 
REMARK    5  A    between atoms: C_19  and  N_7 
REMARK    6  A    between atoms: N_7  and  C_25 
REMARK    7  A    between atoms: C_17  and  C_18 
ROOT
HETATM    1  N   UNK N   1      23.873  19.299   3.769  0.00  0.00    -0.297 N 
HETATM    2  N   UNK N   1      26.109  19.563   3.639  0.00  0.00    -0.346 N 
ATOM      3  HN  UNK N   1      27.031  19.944   3.422  1.00  0.00     0.167 HD
HETATM    4  N   UNK N   1      23.891  17.231   4.997  0.00  0.00    -0.336 N 
ATOM      5  HN  UNK N   1      22.875  17.148   5.027  1.00  0.00     0.168 HD
HETATM    6  N   UNK N   1      26.043  16.399   5.501  0.00  0.00    -0.337 N 
ATOM      7  HN  UNK N   1      26.623  15.673   5.923  1.00  0.00     0.168 HD
HETATM    8  C   UNK N   1      24.481  18.282   4.389  0.00  0.00     0.142 A 
HETATM    9  C   UNK N   1      25.821  18.433   4.316  0.00  0.00     0.122 A 
HETATM   10  C   UNK N   1      24.885  20.083   3.310  0.00  0.00     0.188 A 
HETATM   11  C   UNK N   1      26.649  17.459   4.884  0.00  0.00     0.133 A 
HETATM   12  C   UNK N   1      24.684  16.285   5.570  0.00  0.00     0.183 A 
ENDROOT
BRANCH   1  13
HETATM   13  C   UNK N   1      22.419  19.453   3.600  0.00  0.00     0.262 C 
HETATM   14  O   UNK N   1      21.770  18.231   3.309  0.00  0.00    -0.353 OA
HETATM   15  C   UNK N   1      20.712  18.577   2.428  0.00  0.00     0.179 C 
HETATM   16  C   UNK N   1      20.624  20.080   2.388  0.00  0.00     0.182 C 
HETATM   17  C   UNK N   1      22.056  20.421   2.491  0.00  0.00     0.198 C 
BRANCH  15  18
HETATM   18  C   UNK N   1      19.382  18.021   2.905  0.00  0.00     0.198 C 
BRANCH  18  19
HETATM   19  O   UNK N   1      18.333  18.746   2.343  0.00  0.00    -0.398 OA
HETATM   20  H   UNK N   1      18.464  19.622   1.950  0.00  0.00     0.209 HD
ENDBRANCH  18  19
ENDBRANCH  15  18
BRANCH  16  21
HETATM   21  O   UNK N   1      20.069  20.542   1.194  0.00  0.00    -0.390 OA
HETATM   22  H   UNK N   1      20.428  20.887   0.362  0.00  0.00     0.210 HD
ENDBRANCH  16  21
BRANCH  17  23
HETATM   23  O   UNK N   1      22.188  21.752   2.879  0.00  0.00    -0.388 OA
HETATM   24  H   UNK N   1      21.530  22.250   3.391  0.00  0.00     0.210 HD
ENDBRANCH  17  23
ENDBRANCH   1  13
BRANCH  11  25
HETATM   25  N   UNK N   1      28.065  17.517   4.815  0.00  0.00    -0.368 N 
HETATM   26  H   UNK N   1      28.536  17.220   4.004  0.00  0.00     0.161 HD
BRANCH  25  27
HETATM   27  C   UNK N   1      28.813  18.019   5.953  0.00  0.00     0.109 C 
HETATM   28  C   UNK N   1      28.006  18.878   6.859  0.00  0.00     0.053 C 
HETATM   29  C   UNK N   1      28.751  18.706   8.175  0.00  0.00     0.169 C 
HETATM   30  O   UNK N   1      29.601  17.583   8.091  0.00  0.00    -0.389 OA
HETATM   31  C   UNK N   1      29.241  16.936   6.904  0.00  0.00     0.192 C 
ENDBRANCH  25  27
ENDBRANCH  11  25
TORSDOF 7
ENDMDL
MODEL 5
REMARK VINA RESULT:      -6.5      4.328      6.419
REMARK  7 active torsions:
REMARK  status: ('A' for Active; 'I' for Inactive)
REMARK    1  A    between atoms: C_15  and  O_2 
REMARK    2  A    between atoms: C_16  and  O_3 
REMARK    3  A    between atoms: O_5  and  C_18 
REMARK    4  A    between atoms: C_14  and  N_6 
REMARK    5  A    between atoms: C_19  and  N_7 
REMARK    6  A    between atoms: N_7  and  C_25 
REMARK    7  A    between atoms: C_17  and  C_18 
ROOT
HETATM    1  N   UNK N   1      34.684  13.974  11.394  0.00  0.00    -0.297 N 
HETATM    2  N   UNK N   1      33.875  15.710  10.203  0.00  0.00    -0.346 N 
ATOM      3  HN  UNK N   1      33.636  16.657   9.907  1.00  0.00     0.167 HD
HETATM    4  N   UNK N   1      33.952  12.230   9.909  0.00  0.00    -0.336 N 
ATOM      5  HN  UNK N   1      34.328  11.475  10.482  1.00  0.00     0.168 HD
HETATM    6  N   UNK N   1      32.784  12.983   8.000  0.00  0.00    -0.337 N 
ATOM      7  HN  UNK N   1      32.286  12.764   7.136  1.00  0.00     0.168 HD
HETATM    8  C   UNK N   1      34.088  13.519  10.288  0.00  0.00     0.142 A 
HETATM    9  C   UNK N   1      33.601  14.553   9.568  0.00  0.00     0.122 A 
HETATM   10  C   UNK N   1      34.547  15.326  11.333  0.00  0.00     0.188 A 
HETATM   11  C   UNK N   1      32.913  14.291   8.378  0.00  0.00     0.133 A 
HETATM   12  C   UNK N   1      33.301  11.962   8.744  0.00  0.00     0.183 A 
ENDROOT
BRANCH   1  13
HETATM   13  C   UNK N   1      35.288  13.141  12.446  0.00  0.00     0.262 C 
HETATM   14  O   UNK N   1      34.465  13.021  13.589  0.00  0.00    -0.353 OA
HETATM   15  C   UNK N   1      35.364  12.970  14.687  0.00  0.00     0.179 C 
HETATM   16  C   UNK N   1      36.757  12.838  14.130  0.00  0.00     0.182 C 
HETATM   17  C   UNK N   1      36.627  13.672  12.920  0.00  0.00     0.198 C 
BRANCH  15  18
HETATM   18  C   UNK N   1      35.081  11.780  15.586  0.00  0.00     0.198 C 
BRANCH  18  19
HETATM   19  O   UNK N   1      35.871  11.850  16.732  0.00  0.00    -0.398 OA
HETATM   20  H   UNK N   1      36.591  12.493  16.823  0.00  0.00     0.209 HD
ENDBRANCH  18  19
ENDBRANCH  15  18
BRANCH  16  21
HETATM   21  O   UNK N   1      37.722  13.343  15.003  0.00  0.00    -0.390 OA
HETATM   22  H   UNK N   1      37.697  13.821  15.847  0.00  0.00     0.210 HD
ENDBRANCH  16  21
BRANCH  17  23
HETATM   23  O   UNK N   1      37.663  13.374  12.038  0.00  0.00    -0.388 OA
HETATM   24  H   UNK N   1      38.313  14.015  11.708  0.00  0.00     0.210 HD
ENDBRANCH  17  23
ENDBRANCH   1  13
BRANCH  11  25
HETATM   25  N   UNK N   1      32.333  15.314   7.583  0.00  0.00    -0.368 N 
HETATM   26  H   UNK N   1      31.398  15.587   7.729  0.00  0.00     0.161 HD
BRANCH  25  27
HETATM   27  C   UNK N   1      33.130  15.955   6.554  0.00  0.00     0.109 C 
HETATM   28  C   UNK N   1      32.333  16.397   5.379  0.00  0.00     0.053 C 
HETATM   29  C   UNK N   1      33.199  17.528   4.840  0.00  0.00     0.169 C 
HETATM   30  O   UNK N   1      34.129  17.920   5.827  0.00  0.00    -0.389 OA
HETATM   31  C   UNK N   1      33.724  17.264   6.995  0.00  0.00     0.192 C 
ENDBRANCH  25  27
ENDBRANCH  11  25
TORSDOF 7
ENDMDL
MODEL 6
REMARK VINA RESULT:      -6.5      2.221      7.741
REMARK  7 active torsions:
REMARK  status: ('A' for Active; 'I' for Inactive)
REMARK    1  A    between atoms: C_15  and  O_2 
REMARK    2  A    between atoms: C_16  and  O_3 
REMARK    3  A    between atoms: O_5  and  C_18 
REMARK    4  A    between atoms: C_14  and  N_6 
REMARK    5  A    between atoms: C_19  and  N_7 
REMARK    6  A    between atoms: N_7  and  C_25 
REMARK    7  A    between atoms: C_17  and  C_18 
ROOT
HETATM    1  N   UNK N   1      29.927  17.213   7.306  0.00  0.00    -0.297 N 
HETATM    2  N   UNK N   1      30.984  17.237   9.298  0.00  0.00    -0.346 N 
ATOM      3  HN  UNK N   1      31.161  17.246  10.304  1.00  0.00     0.167 HD
HETATM    4  N   UNK N   1      31.896  17.235   5.927  0.00  0.00    -0.336 N 
ATOM      5  HN  UNK N   1      31.378  17.230   5.048  1.00  0.00     0.168 HD
HETATM    6  N   UNK N   1      33.936  17.283   7.115  0.00  0.00    -0.337 N 
ATOM      7  HN  UNK N   1      34.956  17.312   7.101  1.00  0.00     0.168 HD
HETATM    8  C   UNK N   1      31.249  17.224   7.111  0.00  0.00     0.142 A 
HETATM    9  C   UNK N   1      31.890  17.238   8.300  0.00  0.00     0.122 A 
HETATM   10  C   UNK N   1      29.773  17.223   8.658  0.00  0.00     0.188 A 
HETATM   11  C   UNK N   1      33.288  17.276   8.320  0.00  0.00     0.133 A 
HETATM   12  C   UNK N   1      33.257  17.253   5.931  0.00  0.00     0.183 A 
ENDROOT
BRANCH   1  13
HETATM   13  C   UNK N   1      28.905  17.246   6.248  0.00  0.00     0.262 C 
HETATM   14  O   UNK N   1      29.262  16.476   5.118  0.00  0.00    -0.353 OA
HETATM   15  C   UNK N   1      28.732  17.183   4.008  0.00  0.00     0.179 C 
HETATM   16  C   UNK N   1      27.854  18.283   4.544  0.00  0.00     0.182 C 
HETATM   17  C   UNK N   1      28.615  18.650   5.753  0.00  0.00     0.198 C 
BRANCH  15  18
HETATM   18  C   UNK N   1      27.897  16.280   3.116  0.00  0.00     0.198 C 
BRANCH  18  19
HETATM   19  O   UNK N   1      26.566  16.692   3.134  0.00  0.00    -0.398 OA
HETATM   20  H   UNK N   1      25.937  16.375   3.801  0.00  0.00     0.209 HD
ENDBRANCH  18  19
ENDBRANCH  15  18
BRANCH  16  21
HETATM   21  O   UNK N   1      27.751  19.353   3.655  0.00  0.00    -0.390 OA
HETATM   22  H   UNK N   1      27.775  20.319   3.742  0.00  0.00     0.210 HD
ENDBRANCH  16  21
BRANCH  17  23
HETATM   23  O   UNK N   1      27.793  19.364   6.620  0.00  0.00    -0.388 OA
HETATM   24  H   UNK N   1      27.696  19.183   7.569  0.00  0.00     0.210 HD
ENDBRANCH  17  23
ENDBRANCH   1  13
BRANCH  11  25
HETATM   25  N   UNK N   1      34.040  17.336   9.523  0.00  0.00    -0.368 N 
HETATM   26  H   UNK N   1      34.059  18.163  10.057  0.00  0.00     0.161 HD
BRANCH  25  27
HETATM   27  C   UNK N   1      34.780  16.166   9.960  0.00  0.00     0.109 C 
HETATM   28  C   UNK N   1      35.602  16.407  11.175  0.00  0.00     0.053 C 
HETATM   29  C   UNK N   1      35.701  15.000  11.750  0.00  0.00     0.169 C 
HETATM   30  O   UNK N   1      34.721  14.178  11.154  0.00  0.00    -0.389 OA
HETATM   31  C   UNK N   1      33.893  15.050  10.439  0.00  0.00     0.192 C 
ENDBRANCH  25  27
ENDBRANCH  11  25
TORSDOF 7
ENDMDL
MODEL 7
REMARK VINA RESULT:      -6.5      6.082     10.936
REMARK  7 active torsions:
REMARK  status: ('A' for Active; 'I' for Inactive)
REMARK    1  A    between atoms: C_15  and  O_2 
REMARK    2  A    between atoms: C_16  and  O_3 
REMARK    3  A    between atoms: O_5  and  C_18 
REMARK    4  A    between atoms: C_14  and  N_6 
REMARK    5  A    between atoms: C_19  and  N_7 
REMARK    6  A    between atoms: N_7  and  C_25 
REMARK    7  A    between atoms: C_17  and  C_18 
ROOT
HETATM    1  N   UNK N   1      35.729  14.441  12.946  0.00  0.00    -0.297 N 
HETATM    2  N   UNK N   1      36.636  14.000  14.964  0.00  0.00    -0.346 N 
ATOM      3  HN  UNK N   1      37.163  14.094  15.833  1.00  0.00     0.167 HD
HETATM    4  N   UNK N   1      34.581  12.346  12.675  0.00  0.00    -0.336 N 
ATOM      5  HN  UNK N   1      34.196  12.584  11.760  1.00  0.00     0.168 HD
HETATM    6  N   UNK N   1      34.861  10.826  14.460  0.00  0.00    -0.337 N 
ATOM      7  HN  UNK N   1      34.668   9.910  14.867  1.00  0.00     0.168 HD
HETATM    8  C   UNK N   1      35.360  13.221  13.346  0.00  0.00     0.142 A 
HETATM    9  C   UNK N   1      35.898  12.949  14.555  0.00  0.00     0.122 A 
HETATM   10  C   UNK N   1      36.517  14.914  13.950  0.00  0.00     0.188 A 
HETATM   11  C   UNK N   1      35.655  11.705  15.146  0.00  0.00     0.133 A 
HETATM   12  C   UNK N   1      34.320  11.138  13.246  0.00  0.00     0.183 A 
ENDROOT
BRANCH   1  13
HETATM   13  C   UNK N   1      35.379  15.064  11.660  0.00  0.00     0.262 C 
HETATM   14  O   UNK N   1      34.052  14.784  11.260  0.00  0.00    -0.353 OA
HETATM   15  C   UNK N   1      34.107  14.687   9.845  0.00  0.00     0.179 C 
HETATM   16  C   UNK N   1      35.473  15.142   9.408  0.00  0.00     0.182 C 
HETATM   17  C   UNK N   1      36.284  14.622  10.526  0.00  0.00     0.198 C 
BRANCH  15  18
HETATM   18  C   UNK N   1      33.062  15.568   9.183  0.00  0.00     0.198 C 
BRANCH  18  19
HETATM   19  O   UNK N   1      33.309  16.906   9.481  0.00  0.00    -0.398 OA
HETATM   20  H   UNK N   1      32.830  17.628   9.046  0.00  0.00     0.209 HD
ENDBRANCH  18  19
ENDBRANCH  15  18
BRANCH  16  21
HETATM   21  O   UNK N   1      35.852  14.575   8.191  0.00  0.00    -0.390 OA
HETATM   22  H   UNK N   1      36.501  14.798   7.505  0.00  0.00     0.210 HD
ENDBRANCH  16  21
BRANCH  17  23
HETATM   23  O   UNK N   1      37.518  15.268  10.544  0.00  0.00    -0.388 OA
HETATM   24  H   UNK N   1      37.763  15.980  11.157  0.00  0.00     0.210 HD
ENDBRANCH  17  23
ENDBRANCH   1  13
BRANCH  11  25
HETATM   25  N   UNK N   1      36.215  11.321  16.392  0.00  0.00    -0.368 N 
HETATM   26  H   UNK N   1      37.145  10.999  16.441  0.00  0.00     0.161 HD
BRANCH  25  27
HETATM   27  C   UNK N   1      35.407  11.407  17.594  0.00  0.00     0.109 C 
HETATM   28  C   UNK N   1      35.971  10.649  18.741  0.00  0.00     0.053 C 
HETATM   29  C   UNK N   1      35.368  11.401  19.920  0.00  0.00     0.169 C 
HETATM   30  O   UNK N   1      34.878  12.650  19.481  0.00  0.00    -0.389 OA
HETATM   31  C   UNK N   1      35.356  12.794  18.174  0.00  0.00     0.192 C 
ENDBRANCH  25  27
ENDBRANCH  11  25
TORSDOF 7
ENDMDL
MODEL 8
REMARK VINA RESULT:      -6.4      2.157      7.951
REMARK  7 active torsions:
REMARK  status: ('A' for Active; 'I' for Inactive)
REMARK    1  A    between atoms: C_15  and  O_2 
REMARK    2  A    between atoms: C_16  and  O_3 
REMARK    3  A    between atoms: O_5  and  C_18 
REMARK    4  A    between atoms: C_14  and  N_6 
REMARK    5  A    between atoms: C_19  and  N_7 
REMARK    6  A    between atoms: N_7  and  C_25 
REMARK    7  A    between atoms: C_17  and  C_18 
ROOT
HETATM    1  N   UNK N   1      29.984  17.526   7.622  0.00  0.00    -0.297 N 
HETATM    2  N   UNK N   1      31.742  17.378   9.027  0.00  0.00    -0.346 N 
ATOM      3  HN  UNK N   1      32.394  17.566   9.789  1.00  0.00     0.167 HD
HETATM    4  N   UNK N   1      30.556  15.647   6.235  0.00  0.00    -0.336 N 
ATOM      5  HN  UNK N   1      29.750  15.754   5.620  1.00  0.00     0.168 HD
HETATM    6  N   UNK N   1      32.547  14.535   6.848  0.00  0.00    -0.337 N 
ATOM      7  HN  UNK N   1      33.223  13.791   6.672  1.00  0.00     0.168 HD
HETATM    8  C   UNK N   1      30.752  16.490   7.271  0.00  0.00     0.142 A 
HETATM    9  C   UNK N   1      31.808  16.395   8.107  0.00  0.00     0.122 A 
HETATM   10  C   UNK N   1      30.603  18.067   8.706  0.00  0.00     0.188 A 
HETATM   11  C   UNK N   1      32.756  15.387   7.898  0.00  0.00     0.133 A 
HETATM   12  C   UNK N   1      31.461  14.650   6.030  0.00  0.00     0.183 A 
ENDROOT
BRANCH   1  13
HETATM   13  C   UNK N   1      28.772  17.972   6.916  0.00  0.00     0.262 C 
HETATM   14  O   UNK N   1      28.996  18.208   5.541  0.00  0.00    -0.353 OA
HETATM   15  C   UNK N   1      28.155  19.302   5.212  0.00  0.00     0.179 C 
HETATM   16  C   UNK N   1      27.259  19.560   6.394  0.00  0.00     0.182 C 
HETATM   17  C   UNK N   1      28.192  19.248   7.494  0.00  0.00     0.198 C 
BRANCH  15  18
HETATM   18  C   UNK N   1      27.292  19.001   3.999  0.00  0.00     0.198 C 
BRANCH  18  19
HETATM   19  O   UNK N   1      26.801  20.186   3.458  0.00  0.00    -0.398 OA
HETATM   20  H   UNK N   1      27.223  21.043   3.624  0.00  0.00     0.209 HD
ENDBRANCH  18  19
ENDBRANCH  15  18
BRANCH  16  21
HETATM   21  O   UNK N   1      26.825  20.885   6.446  0.00  0.00    -0.390 OA
HETATM   22  H   UNK N   1      26.178  21.372   6.980  0.00  0.00     0.210 HD
ENDBRANCH  16  21
BRANCH  17  23
HETATM   23  O   UNK N   1      27.471  19.026   8.665  0.00  0.00    -0.388 OA
HETATM   24  H   UNK N   1      27.104  19.723   9.231  0.00  0.00     0.210 HD
ENDBRANCH  17  23
ENDBRANCH   1  13
BRANCH  11  25
HETATM   25  N   UNK N   1      33.916  15.241   8.702  0.00  0.00    -0.368 N 
HETATM   26  H   UNK N   1      34.766  15.654   8.427  0.00  0.00     0.161 HD
BRANCH  25  27
HETATM   27  C   UNK N   1      33.838  14.478   9.934  0.00  0.00     0.109 C 
HETATM   28  C   UNK N   1      34.629  13.221   9.902  0.00  0.00     0.053 C 
HETATM   29  C   UNK N   1      34.905  13.004  11.384  0.00  0.00     0.169 C 
HETATM   30  O   UNK N   1      34.653  14.200  12.089  0.00  0.00    -0.389 OA
HETATM   31  C   UNK N   1      34.474  15.178  11.104  0.00  0.00     0.192 C 
ENDBRANCH  25  27
ENDBRANCH  11  25
TORSDOF 7
ENDMDL
MODEL 9
REMARK VINA RESULT:      -6.3      3.139      4.553
REMARK  7 active torsions:
REMARK  status: ('A' for Active; 'I' for Inactive)
REMARK    1  A    between atoms: C_15  and  O_2 
REMARK    2  A    between atoms: C_16  and  O_3 
REMARK    3  A    between atoms: O_5  and  C_18 
REMARK    4  A    between atoms: C_14  and  N_6 
REMARK    5  A    between atoms: C_19  and  N_7 
REMARK    6  A    between atoms: N_7  and  C_25 
REMARK    7  A    between atoms: C_17  and  C_18 
ROOT
HETATM    1  N   UNK N   1      34.783  14.792   9.129  0.00  0.00    -0.297 N 
HETATM    2  N   UNK N   1      32.568  14.666   9.535  0.00  0.00    -0.346 N 
ATOM      3  HN  UNK N   1      31.650  14.316   9.811  1.00  0.00     0.167 HD
HETATM    4  N   UNK N   1      34.803  17.048   8.297  0.00  0.00    -0.336 N 
ATOM      5  HN  UNK N   1      35.808  17.059   8.122  1.00  0.00     0.168 HD
HETATM    6  N   UNK N   1      32.689  18.099   8.239  0.00  0.00    -0.337 N 
ATOM      7  HN  UNK N   1      32.126  18.921   8.013  1.00  0.00     0.168 HD
HETATM    8  C   UNK N   1      34.202  15.951   8.805  0.00  0.00     0.142 A 
HETATM    9  C   UNK N   1      32.875  15.885   9.046  0.00  0.00     0.122 A 
HETATM   10  C   UNK N   1      33.768  14.005   9.577  0.00  0.00     0.188 A 
HETATM   11  C   UNK N   1      32.071  16.991   8.750  0.00  0.00     0.133 A 
HETATM   12  C   UNK N   1      34.036  18.138   8.021  0.00  0.00     0.183 A 
ENDROOT
BRANCH   1  13
HETATM   13  C   UNK N   1      36.209  14.472   8.959  0.00  0.00     0.262 C 
HETATM   14  O   UNK N   1      36.420  13.198   8.383  0.00  0.00    -0.353 OA
HETATM   15  C   UNK N   1      37.603  12.708   8.995  0.00  0.00     0.179 C 
HETATM   16  C   UNK N   1      38.207  13.835   9.789  0.00  0.00     0.182 C 
HETATM   17  C   UNK N   1      36.978  14.497  10.266  0.00  0.00     0.198 C 
BRANCH  15  18
HETATM   18  C   UNK N   1      38.613  12.239   7.962  0.00  0.00     0.198 C 
BRANCH  18  19
HETATM   19  O   UNK N   1      39.780  12.993   8.062  0.00  0.00    -0.398 OA
HETATM   20  H   UNK N   1      40.660  12.587   8.034  0.00  0.00     0.209 HD
ENDBRANCH  18  19
ENDBRANCH  15  18
BRANCH  16  21
HETATM   21  O   UNK N   1      38.987  13.371  10.849  0.00  0.00    -0.390 OA
HETATM   22  H   UNK N   1      39.043  13.574  11.796  0.00  0.00     0.210 HD
ENDBRANCH  16  21
BRANCH  17  23
HETATM   23  O   UNK N   1      37.281  15.791  10.683  0.00  0.00    -0.388 OA
HETATM   24  H   UNK N   1      37.343  16.075  11.609  0.00  0.00     0.210 HD
ENDBRANCH  17  23
ENDBRANCH   1  13
BRANCH  11  25
HETATM   25  N   UNK N   1      30.663  16.991   8.932  0.00  0.00    -0.368 N 
HETATM   26  H   UNK N   1      30.230  16.280   9.458  0.00  0.00     0.161 HD
BRANCH  25  27
HETATM   27  C   UNK N   1      29.868  18.048   8.335  0.00  0.00     0.109 C 
HETATM   28  C   UNK N   1      29.277  17.674   7.024  0.00  0.00     0.053 C 
HETATM   29  C   UNK N   1      28.065  18.595   6.970  0.00  0.00     0.169 C 
HETATM   30  O   UNK N   1      27.803  19.103   8.260  0.00  0.00    -0.389 OA
HETATM   31  C   UNK N   1      28.625  18.367   9.120  0.00  0.00     0.192 C 
ENDBRANCH  25  27
ENDBRANCH  11  25
TORSDOF 7
ENDMDL
