MODEL 1
REMARK VINA RESULT:      -4.7      0.000      0.000
REMARK  10 active torsions:
REMARK  status: ('A' for Active; 'I' for Inactive)
REMARK    1  A    between atoms: C_7  and  O_1 
REMARK    2  A    between atoms: C_8  and  O_2 
REMARK    3  A    between atoms: C_9  and  O_3 
REMARK    4  A    between atoms: O_4  and  C_10 
REMARK    5  A    between atoms: O_6  and  C_12 
REMARK    6  A    between atoms: C_7  and  C_8 
REMARK    7  A    between atoms: C_7  and  C_9 
REMARK    8  A    between atoms: C_8  and  C_10 
REMARK    9  A    between atoms: C_9  and  C_11 
REMARK   10  A    between atoms: C_11  and  C_12 
ROOT
HETATM    1  C   UNK N   1      20.564  17.403   2.271  0.00  0.00     0.185 C 
ENDROOT
BRANCH   1   2
HETATM    2  O   UNK N   1      20.501  16.446   3.287  0.00  0.00    -0.390 OA
HETATM    3  H   UNK N   1      21.042  15.642   3.267  0.00  0.00     0.210 HD
ENDBRANCH   1   2
BRANCH   1   4
HETATM    4  C   UNK N   1      19.872  16.831   1.017  0.00  0.00     0.173 C 
BRANCH   4   5
HETATM    5  O   UNK N   1      20.262  17.527  -0.128  0.00  0.00    -0.391 OA
HETATM    6  H   UNK N   1      20.904  18.253  -0.087  0.00  0.00     0.210 HD
ENDBRANCH   4   5
BRANCH   4   7
HETATM    7  C   UNK N   1      20.200  15.356   0.806  0.00  0.00     0.198 C 
BRANCH   7   8
HETATM    8  O   UNK N   1      21.580  15.153   0.753  0.00  0.00    -0.398 OA
HETATM    9  H   UNK N   1      22.235  15.834   0.972  0.00  0.00     0.209 HD
ENDBRANCH   7   8
ENDBRANCH   4   7
ENDBRANCH   1   4
BRANCH   1  10
HETATM   10  C   UNK N   1      19.902  18.716   2.746  0.00  0.00     0.221 C 
BRANCH  10  11
HETATM   11  O   UNK N   1      18.648  18.849   2.144  0.00  0.00    -0.385 OA
HETATM   12  H   UNK N   1      18.531  19.179   1.239  0.00  0.00     0.210 HD
ENDBRANCH  10  11
BRANCH  10  13
HETATM   13  C   UNK N   1      20.752  19.968   2.524  0.00  0.00     0.181 C 
HETATM   14  O   UNK N   1      21.526  20.324   3.398  0.00  0.00    -0.293 OA
BRANCH  13  15
HETATM   15  C   UNK N   1      20.616  20.872   1.321  0.00  0.00     0.245 C 
BRANCH  15  16
HETATM   16  O   UNK N   1      20.665  20.196   0.102  0.00  0.00    -0.393 OA
HETATM   17  H   UNK N   1      21.239  20.503  -0.617  0.00  0.00     0.209 HD
ENDBRANCH  15  16
ENDBRANCH  13  15
ENDBRANCH  10  13
ENDBRANCH   1  10
TORSDOF 10
ENDMDL
MODEL 2
REMARK VINA RESULT:      -4.5     16.364     17.278
REMARK  10 active torsions:
REMARK  status: ('A' for Active; 'I' for Inactive)
REMARK    1  A    between atoms: C_7  and  O_1 
REMARK    2  A    between atoms: C_8  and  O_2 
REMARK    3  A    between atoms: C_9  and  O_3 
REMARK    4  A    between atoms: O_4  and  C_10 
REMARK    5  A    between atoms: O_6  and  C_12 
REMARK    6  A    between atoms: C_7  and  C_8 
REMARK    7  A    between atoms: C_7  and  C_9 
REMARK    8  A    between atoms: C_8  and  C_10 
REMARK    9  A    between atoms: C_9  and  C_11 
REMARK   10  A    between atoms: C_11  and  C_12 
ROOT
HETATM    1  C   UNK N   1      34.606  15.760  10.821  0.00  0.00     0.185 C 
ENDROOT
BRANCH   1   2
HETATM    2  O   UNK N   1      33.601  14.909  11.290  0.00  0.00    -0.390 OA
HETATM    3  H   UNK N   1      33.793  14.168  11.884  0.00  0.00     0.210 HD
ENDBRANCH   1   2
BRANCH   1   4
HETATM    4  C   UNK N   1      35.973  15.140  11.174  0.00  0.00     0.173 C 
BRANCH   4   5
HETATM    5  O   UNK N   1      37.008  16.043  10.925  0.00  0.00    -0.391 OA
HETATM    6  H   UNK N   1      37.604  16.339  11.631  0.00  0.00     0.210 HD
ENDBRANCH   4   5
BRANCH   4   7
HETATM    7  C   UNK N   1      36.052  14.727  12.641  0.00  0.00     0.198 C 
BRANCH   7   8
HETATM    8  O   UNK N   1      37.064  13.787  12.842  0.00  0.00    -0.398 OA
HETATM    9  H   UNK N   1      37.079  13.159  13.581  0.00  0.00     0.209 HD
ENDBRANCH   7   8
ENDBRANCH   4   7
ENDBRANCH   1   4
BRANCH   1  10
HETATM   10  C   UNK N   1      34.445  15.972   9.299  0.00  0.00     0.221 C 
BRANCH  10  11
HETATM   11  O   UNK N   1      35.341  15.145   8.617  0.00  0.00    -0.385 OA
HETATM   12  H   UNK N   1      35.882  14.475   9.063  0.00  0.00     0.210 HD
ENDBRANCH  10  11
BRANCH  10  13
HETATM   13  C   UNK N   1      34.588  17.426   8.846  0.00  0.00     0.181 C 
HETATM   14  O   UNK N   1      35.341  18.167   9.456  0.00  0.00    -0.293 OA
BRANCH  13  15
HETATM   15  C   UNK N   1      33.761  18.047   7.744  0.00  0.00     0.245 C 
BRANCH  15  16
HETATM   16  O   UNK N   1      34.366  17.993   6.489  0.00  0.00    -0.393 OA
HETATM   17  H   UNK N   1      35.285  18.278   6.365  0.00  0.00     0.209 HD
ENDBRANCH  15  16
ENDBRANCH  13  15
ENDBRANCH  10  13
ENDBRANCH   1  10
TORSDOF 10
ENDMDL
MODEL 3
REMARK VINA RESULT:      -4.3     17.232     18.261
REMARK  10 active torsions:
REMARK  status: ('A' for Active; 'I' for Inactive)
REMARK    1  A    between atoms: C_7  and  O_1 
REMARK    2  A    between atoms: C_8  and  O_2 
REMARK    3  A    between atoms: C_9  and  O_3 
REMARK    4  A    between atoms: O_4  and  C_10 
REMARK    5  A    between atoms: O_6  and  C_12 
REMARK    6  A    between atoms: C_7  and  C_8 
REMARK    7  A    between atoms: C_7  and  C_9 
REMARK    8  A    between atoms: C_8  and  C_10 
REMARK    9  A    between atoms: C_9  and  C_11 
REMARK   10  A    between atoms: C_11  and  C_12 
ROOT
HETATM    1  C   UNK N   1      35.241  14.956  11.873  0.00  0.00     0.185 C 
ENDROOT
BRANCH   1   2
HETATM    2  O   UNK N   1      34.118  14.170  11.603  0.00  0.00    -0.390 OA
HETATM    3  H   UNK N   1      33.457  14.430  10.943  0.00  0.00     0.210 HD
ENDBRANCH   1   2
BRANCH   1   4
HETATM    4  C   UNK N   1      36.228  14.125  12.716  0.00  0.00     0.173 C 
BRANCH   4   5
HETATM    5  O   UNK N   1      36.790  14.898  13.732  0.00  0.00    -0.391 OA
HETATM    6  H   UNK N   1      37.431  15.601  13.540  0.00  0.00     0.210 HD
ENDBRANCH   4   5
BRANCH   4   7
HETATM    7  C   UNK N   1      35.553  12.918  13.361  0.00  0.00     0.198 C 
BRANCH   7   8
HETATM    8  O   UNK N   1      34.642  13.319  14.339  0.00  0.00    -0.398 OA
HETATM    9  H   UNK N   1      33.960  12.739  14.712  0.00  0.00     0.209 HD
ENDBRANCH   7   8
ENDBRANCH   4   7
ENDBRANCH   1   4
BRANCH   1  10
HETATM   10  C   UNK N   1      35.876  15.436  10.548  0.00  0.00     0.221 C 
BRANCH  10  11
HETATM   11  O   UNK N   1      37.220  15.751  10.763  0.00  0.00    -0.385 OA
HETATM   12  H   UNK N   1      37.875  15.093  11.045  0.00  0.00     0.210 HD
ENDBRANCH  10  11
BRANCH  10  13
HETATM   13  C   UNK N   1      35.141  16.600   9.881  0.00  0.00     0.181 C 
HETATM   14  O   UNK N   1      35.472  17.743  10.150  0.00  0.00    -0.293 OA
BRANCH  13  15
HETATM   15  C   UNK N   1      33.938  16.429   8.983  0.00  0.00     0.245 C 
BRANCH  15  16
HETATM   16  O   UNK N   1      32.792  16.004   9.653  0.00  0.00    -0.393 OA
HETATM   17  H   UNK N   1      32.623  16.267  10.571  0.00  0.00     0.209 HD
ENDBRANCH  15  16
ENDBRANCH  13  15
ENDBRANCH  10  13
ENDBRANCH   1  10
TORSDOF 10
ENDMDL
MODEL 4
REMARK VINA RESULT:      -4.3     17.186     18.081
REMARK  10 active torsions:
REMARK  status: ('A' for Active; 'I' for Inactive)
REMARK    1  A    between atoms: C_7  and  O_1 
REMARK    2  A    between atoms: C_8  and  O_2 
REMARK    3  A    between atoms: C_9  and  O_3 
REMARK    4  A    between atoms: O_4  and  C_10 
REMARK    5  A    between atoms: O_6  and  C_12 
REMARK    6  A    between atoms: C_7  and  C_8 
REMARK    7  A    between atoms: C_7  and  C_9 
REMARK    8  A    between atoms: C_8  and  C_10 
REMARK    9  A    between atoms: C_9  and  C_11 
REMARK   10  A    between atoms: C_11  and  C_12 
ROOT
HETATM    1  C   UNK N   1      35.742  14.306  11.193  0.00  0.00     0.185 C 
ENDROOT
BRANCH   1   2
HETATM    2  O   UNK N   1      37.035  14.779  10.950  0.00  0.00    -0.390 OA
HETATM    3  H   UNK N   1      37.614  14.370  10.289  0.00  0.00     0.210 HD
ENDBRANCH   1   2
BRANCH   1   4
HETATM    4  C   UNK N   1      35.756  13.501  12.508  0.00  0.00     0.173 C 
BRANCH   4   5
HETATM    5  O   UNK N   1      34.460  13.152  12.892  0.00  0.00    -0.391 OA
HETATM    6  H   UNK N   1      34.236  12.246  13.156  0.00  0.00     0.210 HD
ENDBRANCH   4   5
BRANCH   4   7
HETATM    7  C   UNK N   1      36.571  12.216  12.382  0.00  0.00     0.198 C 
BRANCH   7   8
HETATM    8  O   UNK N   1      37.936  12.476  12.503  0.00  0.00    -0.398 OA
HETATM    9  H   UNK N   1      38.317  13.368  12.524  0.00  0.00     0.209 HD
ENDBRANCH   7   8
ENDBRANCH   4   7
ENDBRANCH   1   4
BRANCH   1  10
HETATM   10  C   UNK N   1      34.753  15.492  11.254  0.00  0.00     0.221 C 
BRANCH  10  11
HETATM   11  O   UNK N   1      33.446  15.013  11.141  0.00  0.00    -0.385 OA
HETATM   12  H   UNK N   1      33.031  14.809  10.288  0.00  0.00     0.210 HD
ENDBRANCH  10  11
BRANCH  10  13
HETATM   13  C   UNK N   1      35.024  16.592  10.227  0.00  0.00     0.181 C 
HETATM   14  O   UNK N   1      35.879  17.430  10.465  0.00  0.00    -0.293 OA
BRANCH  13  15
HETATM   15  C   UNK N   1      34.214  16.780   8.965  0.00  0.00     0.245 C 
BRANCH  15  16
HETATM   16  O   UNK N   1      32.897  17.176   9.197  0.00  0.00    -0.393 OA
HETATM   17  H   UNK N   1      32.152  16.623   8.915  0.00  0.00     0.209 HD
ENDBRANCH  15  16
ENDBRANCH  13  15
ENDBRANCH  10  13
ENDBRANCH   1  10
TORSDOF 10
ENDMDL
MODEL 5
REMARK VINA RESULT:      -4.3     18.202     19.390
REMARK  10 active torsions:
REMARK  status: ('A' for Active; 'I' for Inactive)
REMARK    1  A    between atoms: C_7  and  O_1 
REMARK    2  A    between atoms: C_8  and  O_2 
REMARK    3  A    between atoms: C_9  and  O_3 
REMARK    4  A    between atoms: O_4  and  C_10 
REMARK    5  A    between atoms: O_6  and  C_12 
REMARK    6  A    between atoms: C_7  and  C_8 
REMARK    7  A    between atoms: C_7  and  C_9 
REMARK    8  A    between atoms: C_8  and  C_10 
REMARK    9  A    between atoms: C_9  and  C_11 
REMARK   10  A    between atoms: C_11  and  C_12 
ROOT
HETATM    1  C   UNK N   1      35.360  14.634  12.475  0.00  0.00     0.185 C 
ENDROOT
BRANCH   1   2
HETATM    2  O   UNK N   1      36.648  15.173  12.417  0.00  0.00    -0.390 OA
HETATM    3  H   UNK N   1      36.827  16.097  12.645  0.00  0.00     0.210 HD
ENDBRANCH   1   2
BRANCH   1   4
HETATM    4  C   UNK N   1      34.720  14.745  11.077  0.00  0.00     0.173 C 
BRANCH   4   5
HETATM    5  O   UNK N   1      33.342  14.938  11.174  0.00  0.00    -0.391 OA
HETATM    6  H   UNK N   1      32.967  15.793  11.439  0.00  0.00     0.210 HD
ENDBRANCH   4   5
BRANCH   4   7
HETATM    7  C   UNK N   1      35.303  15.904  10.272  0.00  0.00     0.198 C 
BRANCH   7   8
HETATM    8  O   UNK N   1      35.006  17.128  10.873  0.00  0.00    -0.398 OA
HETATM    9  H   UNK N   1      35.665  17.818  11.046  0.00  0.00     0.209 HD
ENDBRANCH   7   8
ENDBRANCH   4   7
ENDBRANCH   1   4
BRANCH   1  10
HETATM   10  C   UNK N   1      35.427  13.169  12.964  0.00  0.00     0.221 C 
BRANCH  10  11
HETATM   11  O   UNK N   1      34.382  12.440  12.391  0.00  0.00    -0.385 OA
HETATM   12  H   UNK N   1      33.688  12.012  12.917  0.00  0.00     0.210 HD
ENDBRANCH  10  11
BRANCH  10  13
HETATM   13  C   UNK N   1      35.435  13.011  14.485  0.00  0.00     0.181 C 
HETATM   14  O   UNK N   1      34.377  13.049  15.092  0.00  0.00    -0.293 OA
BRANCH  13  15
HETATM   15  C   UNK N   1      36.696  12.922  15.313  0.00  0.00     0.245 C 
BRANCH  15  16
HETATM   16  O   UNK N   1      37.525  14.037  15.196  0.00  0.00    -0.393 OA
HETATM   17  H   UNK N   1      37.542  14.721  15.884  0.00  0.00     0.209 HD
ENDBRANCH  15  16
ENDBRANCH  13  15
ENDBRANCH  10  13
ENDBRANCH   1  10
TORSDOF 10
ENDMDL
MODEL 6
REMARK VINA RESULT:      -4.2     17.580     18.822
REMARK  10 active torsions:
REMARK  status: ('A' for Active; 'I' for Inactive)
REMARK    1  A    between atoms: C_7  and  O_1 
REMARK    2  A    between atoms: C_8  and  O_2 
REMARK    3  A    between atoms: C_9  and  O_3 
REMARK    4  A    between atoms: O_4  and  C_10 
REMARK    5  A    between atoms: O_6  and  C_12 
REMARK    6  A    between atoms: C_7  and  C_8 
REMARK    7  A    between atoms: C_7  and  C_9 
REMARK    8  A    between atoms: C_8  and  C_10 
REMARK    9  A    between atoms: C_9  and  C_11 
REMARK   10  A    between atoms: C_11  and  C_12 
ROOT
HETATM    1  C   UNK N   1      35.256  14.581  11.332  0.00  0.00     0.185 C 
ENDROOT
BRANCH   1   2
HETATM    2  O   UNK N   1      33.871  14.553  11.521  0.00  0.00    -0.390 OA
HETATM    3  H   UNK N   1      33.258  14.371  10.792  0.00  0.00     0.210 HD
ENDBRANCH   1   2
BRANCH   1   4
HETATM    4  C   UNK N   1      35.670  16.021  10.970  0.00  0.00     0.173 C 
BRANCH   4   5
HETATM    5  O   UNK N   1      37.058  16.132  10.879  0.00  0.00    -0.391 OA
HETATM    6  H   UNK N   1      37.635  15.354  10.941  0.00  0.00     0.210 HD
ENDBRANCH   4   5
BRANCH   4   7
HETATM    7  C   UNK N   1      35.074  16.471   9.639  0.00  0.00     0.198 C 
BRANCH   7   8
HETATM    8  O   UNK N   1      33.867  17.142   9.833  0.00  0.00    -0.398 OA
HETATM    9  H   UNK N   1      33.529  17.829   9.237  0.00  0.00     0.209 HD
ENDBRANCH   7   8
ENDBRANCH   4   7
ENDBRANCH   1   4
BRANCH   1  10
HETATM   10  C   UNK N   1      35.969  14.079  12.608  0.00  0.00     0.221 C 
BRANCH  10  11
HETATM   11  O   UNK N   1      37.243  13.612  12.274  0.00  0.00    -0.385 OA
HETATM   12  H   UNK N   1      37.455  12.668  12.201  0.00  0.00     0.210 HD
ENDBRANCH  10  11
BRANCH  10  13
HETATM   13  C   UNK N   1      35.187  13.026  13.394  0.00  0.00     0.181 C 
HETATM   14  O   UNK N   1      34.710  13.326  14.476  0.00  0.00    -0.293 OA
BRANCH  13  15
HETATM   15  C   UNK N   1      35.059  11.583  12.966  0.00  0.00     0.245 C 
BRANCH  15  16
HETATM   16  O   UNK N   1      34.110  11.376  11.965  0.00  0.00    -0.393 OA
HETATM   17  H   UNK N   1      33.754  10.491  11.789  0.00  0.00     0.209 HD
ENDBRANCH  15  16
ENDBRANCH  13  15
ENDBRANCH  10  13
ENDBRANCH   1  10
TORSDOF 10
ENDMDL
MODEL 7
REMARK VINA RESULT:      -4.2     16.196     17.449
REMARK  10 active torsions:
REMARK  status: ('A' for Active; 'I' for Inactive)
REMARK    1  A    between atoms: C_7  and  O_1 
REMARK    2  A    between atoms: C_8  and  O_2 
REMARK    3  A    between atoms: C_9  and  O_3 
REMARK    4  A    between atoms: O_4  and  C_10 
REMARK    5  A    between atoms: O_6  and  C_12 
REMARK    6  A    between atoms: C_7  and  C_8 
REMARK    7  A    between atoms: C_7  and  C_9 
REMARK    8  A    between atoms: C_8  and  C_10 
REMARK    9  A    between atoms: C_9  and  C_11 
REMARK   10  A    between atoms: C_11  and  C_12 
ROOT
HETATM    1  C   UNK N   1      34.706  15.593   9.061  0.00  0.00     0.185 C 
ENDROOT
BRANCH   1   2
HETATM    2  O   UNK N   1      33.849  15.330   7.988  0.00  0.00    -0.390 OA
HETATM    3  H   UNK N   1      34.123  15.468   7.069  0.00  0.00     0.210 HD
ENDBRANCH   1   2
BRANCH   1   4
HETATM    4  C   UNK N   1      34.531  17.067   9.476  0.00  0.00     0.173 C 
BRANCH   4   5
HETATM    5  O   UNK N   1      35.561  17.470  10.328  0.00  0.00    -0.391 OA
HETATM    6  H   UNK N   1      35.653  18.393  10.611  0.00  0.00     0.210 HD
ENDBRANCH   4   5
BRANCH   4   7
HETATM    7  C   UNK N   1      34.523  18.004   8.272  0.00  0.00     0.198 C 
BRANCH   7   8
HETATM    8  O   UNK N   1      35.268  19.155   8.528  0.00  0.00    -0.398 OA
HETATM    9  H   UNK N   1      34.905  20.054   8.488  0.00  0.00     0.209 HD
ENDBRANCH   7   8
ENDBRANCH   4   7
ENDBRANCH   1   4
BRANCH   1  10
HETATM   10  C   UNK N   1      34.399  14.625  10.226  0.00  0.00     0.221 C 
BRANCH  10  11
HETATM   11  O   UNK N   1      33.443  15.199  11.067  0.00  0.00    -0.385 OA
HETATM   12  H   UNK N   1      32.532  14.872  11.129  0.00  0.00     0.210 HD
ENDBRANCH  10  11
BRANCH  10  13
HETATM   13  C   UNK N   1      35.629  14.180  11.017  0.00  0.00     0.181 C 
HETATM   14  O   UNK N   1      36.724  14.628  10.716  0.00  0.00    -0.293 OA
BRANCH  13  15
HETATM   15  C   UNK N   1      35.596  13.119  12.093  0.00  0.00     0.245 C 
BRANCH  15  16
HETATM   16  O   UNK N   1      34.424  13.121  12.849  0.00  0.00    -0.393 OA
HETATM   17  H   UNK N   1      34.057  12.298  13.205  0.00  0.00     0.209 HD
ENDBRANCH  15  16
ENDBRANCH  13  15
ENDBRANCH  10  13
ENDBRANCH   1  10
TORSDOF 10
ENDMDL
MODEL 8
REMARK VINA RESULT:      -4.2     14.405     15.396
REMARK  10 active torsions:
REMARK  status: ('A' for Active; 'I' for Inactive)
REMARK    1  A    between atoms: C_7  and  O_1 
REMARK    2  A    between atoms: C_8  and  O_2 
REMARK    3  A    between atoms: C_9  and  O_3 
REMARK    4  A    between atoms: O_4  and  C_10 
REMARK    5  A    between atoms: O_6  and  C_12 
REMARK    6  A    between atoms: C_7  and  C_8 
REMARK    7  A    between atoms: C_7  and  C_9 
REMARK    8  A    between atoms: C_8  and  C_10 
REMARK    9  A    between atoms: C_9  and  C_11 
REMARK   10  A    between atoms: C_11  and  C_12 
ROOT
HETATM    1  C   UNK N   1      34.290  15.869   8.804  0.00  0.00     0.185 C 
ENDROOT
BRANCH   1   2
HETATM    2  O   UNK N   1      35.188  15.518   7.791  0.00  0.00    -0.390 OA
HETATM    3  H   UNK N   1      35.217  14.623   7.420  0.00  0.00     0.210 HD
ENDBRANCH   1   2
BRANCH   1   4
HETATM    4  C   UNK N   1      35.061  15.942  10.136  0.00  0.00     0.173 C 
BRANCH   4   5
HETATM    5  O   UNK N   1      35.015  17.232  10.667  0.00  0.00    -0.391 OA
HETATM    6  H   UNK N   1      35.816  17.680  10.983  0.00  0.00     0.210 HD
ENDBRANCH   4   5
BRANCH   4   7
HETATM    7  C   UNK N   1      34.493  14.984  11.179  0.00  0.00     0.198 C 
BRANCH   7   8
HETATM    8  O   UNK N   1      33.099  14.959  11.129  0.00  0.00    -0.398 OA
HETATM    9  H   UNK N   1      32.591  14.448  10.480  0.00  0.00     0.209 HD
ENDBRANCH   7   8
ENDBRANCH   4   7
ENDBRANCH   1   4
BRANCH   1  10
HETATM   10  C   UNK N   1      33.609  17.212   8.457  0.00  0.00     0.221 C 
BRANCH  10  11
HETATM   11  O   UNK N   1      32.396  17.308   9.144  0.00  0.00    -0.385 OA
HETATM   12  H   UNK N   1      31.546  17.057   8.750  0.00  0.00     0.210 HD
ENDBRANCH  10  11
BRANCH  10  13
HETATM   13  C   UNK N   1      33.410  17.451   6.959  0.00  0.00     0.181 C 
HETATM   14  O   UNK N   1      34.300  17.988   6.320  0.00  0.00    -0.293 OA
BRANCH  13  15
HETATM   15  C   UNK N   1      32.120  17.161   6.227  0.00  0.00     0.245 C 
BRANCH  15  16
HETATM   16  O   UNK N   1      31.378  16.122   6.787  0.00  0.00    -0.393 OA
HETATM   17  H   UNK N   1      30.439  16.238   7.002  0.00  0.00     0.209 HD
ENDBRANCH  15  16
ENDBRANCH  13  15
ENDBRANCH  10  13
ENDBRANCH   1  10
TORSDOF 10
ENDMDL
MODEL 9
REMARK VINA RESULT:      -4.1     15.281     16.299
REMARK  10 active torsions:
REMARK  status: ('A' for Active; 'I' for Inactive)
REMARK    1  A    between atoms: C_7  and  O_1 
REMARK    2  A    between atoms: C_8  and  O_2 
REMARK    3  A    between atoms: C_9  and  O_3 
REMARK    4  A    between atoms: O_4  and  C_10 
REMARK    5  A    between atoms: O_6  and  C_12 
REMARK    6  A    between atoms: C_7  and  C_8 
REMARK    7  A    between atoms: C_7  and  C_9 
REMARK    8  A    between atoms: C_8  and  C_10 
REMARK    9  A    between atoms: C_9  and  C_11 
REMARK   10  A    between atoms: C_11  and  C_12 
ROOT
HETATM    1  C   UNK N   1      34.597  15.618   9.094  0.00  0.00     0.185 C 
ENDROOT
BRANCH   1   2
HETATM    2  O   UNK N   1      35.558  14.680   8.706  0.00  0.00    -0.390 OA
HETATM    3  H   UNK N   1      36.116  14.812   7.924  0.00  0.00     0.210 HD
ENDBRANCH   1   2
BRANCH   1   4
HETATM    4  C   UNK N   1      34.608  15.720  10.632  0.00  0.00     0.173 C 
BRANCH   4   5
HETATM    5  O   UNK N   1      33.555  14.990  11.187  0.00  0.00    -0.391 OA
HETATM    6  H   UNK N   1      33.527  14.781  12.134  0.00  0.00     0.210 HD
ENDBRANCH   4   5
BRANCH   4   7
HETATM    7  C   UNK N   1      35.910  15.196  11.231  0.00  0.00     0.198 C 
BRANCH   7   8
HETATM    8  O   UNK N   1      36.975  16.047  10.934  0.00  0.00    -0.398 OA
HETATM    9  H   UNK N   1      37.215  16.819  11.470  0.00  0.00     0.209 HD
ENDBRANCH   7   8
ENDBRANCH   4   7
ENDBRANCH   1   4
BRANCH   1  10
HETATM   10  C   UNK N   1      34.892  16.978   8.423  0.00  0.00     0.221 C 
BRANCH  10  11
HETATM   11  O   UNK N   1      35.077  17.951   9.409  0.00  0.00    -0.385 OA
HETATM   12  H   UNK N   1      35.879  18.005   9.951  0.00  0.00     0.210 HD
ENDBRANCH  10  11
BRANCH  10  13
HETATM   13  C   UNK N   1      33.840  17.422   7.406  0.00  0.00     0.181 C 
HETATM   14  O   UNK N   1      34.205  17.903   6.345  0.00  0.00    -0.293 OA
BRANCH  13  15
HETATM   15  C   UNK N   1      32.354  17.407   7.675  0.00  0.00     0.245 C 
BRANCH  15  16
HETATM   16  O   UNK N   1      32.010  17.848   8.953  0.00  0.00    -0.393 OA
HETATM   17  H   UNK N   1      31.898  17.221   9.685  0.00  0.00     0.209 HD
ENDBRANCH  15  16
ENDBRANCH  13  15
ENDBRANCH  10  13
ENDBRANCH   1  10
TORSDOF 10
ENDMDL
