REMARK  4 active torsions:
REMARK  status: ('A' for Active; 'I' for Inactive)
REMARK    1  A    between atoms: N_3  and  C_10 
REMARK    2  A    between atoms: N_4  and  C_11 
REMARK    3  A    between atoms: C_10  and  C_12 
REMARK    4  A    between atoms: C_20  and  C_24 
ROOT
HETATM    1  N   UNK N   1       7.029   1.725   0.841  0.00  0.00     0.095 N 
HETATM    2  N   UNK N   1       6.332  -0.775  -0.276  0.00  0.00    -0.375 N 
HETATM    3  C   UNK N   1       8.075   0.783   0.416  0.00  0.00     0.292 C 
HETATM    4  C   UNK N   1       5.830   0.976   1.275  0.00  0.00     0.292 C 
HETATM    5  C   UNK N   1       7.579  -0.164  -0.686  0.00  0.00     0.153 C 
HETATM    6  C   UNK N   1       5.275   0.092   0.151  0.00  0.00     0.153 C 
ENDROOT
BRANCH   1   7
HETATM    7  C   UNK N   1       6.819   2.735  -0.222  0.00  0.00     0.311 C 
BRANCH   7   8
HETATM    8  C   UNK N   1       5.522   3.488  -0.118  0.00  0.00    -0.029 A 
HETATM    9  C   UNK N   1       4.336   2.790  -0.281  0.00  0.00     0.021 A 
HETATM   10  C   UNK N   1       3.094   3.393  -0.156  0.00  0.00    -0.025 A 
HETATM   11  C   UNK N   1       3.039   4.772   0.099  0.00  0.00     0.012 A 
HETATM   12  C   UNK N   1       4.231   5.508   0.229  0.00  0.00     0.001 A 
HETATM   13  C   UNK N   1       5.476   4.863   0.132  0.00  0.00     0.009 A 
BRANCH  10  14
HETATM   14  C   UNK N   1       1.890   2.532  -0.224  0.00  0.00    -0.026 A 
HETATM   15  C   UNK N   1       2.039   1.140  -0.384  0.00  0.00     0.012 A 
HETATM   16  C   UNK N   1       0.927   0.299  -0.401  0.00  0.00     0.001 A 
HETATM   17  C   UNK N   1      -0.351   0.840  -0.259  0.00  0.00     0.000 A 
HETATM   18  C   UNK N   1      -0.513   2.220  -0.103  0.00  0.00     0.001 A 
HETATM   19  C   UNK N   1       0.603   3.065  -0.081  0.00  0.00     0.012 A 
ENDBRANCH  10  14
ENDBRANCH   7   8
ENDBRANCH   1   7
BRANCH   2  20
HETATM   20  C   UNK N   1       6.188  -2.184  -0.140  0.00  0.00     0.067 A 
HETATM   21  C   UNK N   1       7.294  -3.028  -0.068  0.00  0.00     0.134 A 
HETATM   22  O   UNK N   1       8.565  -2.724  -0.100  0.00  0.00    -0.257 OA
HETATM   23  C   UNK N   1       7.171  -4.374   0.115  0.00  0.00     0.073 A 
HETATM   24  C   UNK N   1       9.223  -3.853   0.059  0.00  0.00     0.370 A 
HETATM   25  O   UNK N   1      10.436  -3.927   0.096  0.00  0.00    -0.238 OA
HETATM   26  N   UNK N   1       8.392  -4.930   0.197  0.00  0.00    -0.300 N 
HETATM   27  H   UNK N   1       8.628  -5.877   0.325  0.00  0.00     0.171 HD
HETATM   28  C   UNK N   1       5.933  -4.998   0.222  0.00  0.00     0.032 A 
HETATM   29  C   UNK N   1       4.786  -4.183   0.150  0.00  0.00     0.005 A 
HETATM   30  C   UNK N   1       4.911  -2.783  -0.014  0.00  0.00     0.032 A 
ENDBRANCH   2  20
TORSDOF 4
