REMARK  2 active torsions:
REMARK  status: ('A' for Active; 'I' for Inactive)
REMARK    1  A    between atoms: O_2  and  C_3 
REMARK    2  A    between atoms: C_23  and  O_24 
ROOT
HETATM    1  C   UNK N   1      -2.621  -2.801  -0.007  0.00  0.00     0.102 A 
HETATM    2  C   UNK N   1      -1.879  -1.612  -0.019  0.00  0.00     0.040 A 
HETATM    3  C   UNK N   1      -0.495  -1.601  -0.016  0.00  0.00     0.015 A 
HETATM    4  C   UNK N   1       0.200  -2.795  -0.003  0.00  0.00    -0.019 A 
HETATM    5  C   UNK N   1       1.582  -2.778  -0.006  0.00  0.00     0.043 A 
HETATM    6  C   UNK N   1       2.299  -3.980   0.001  0.00  0.00     0.046 A 
HETATM    7  C   UNK N   1       3.762  -3.928  -0.002  0.00  0.00    -0.000 A 
HETATM    8  C   UNK N   1       4.420  -2.679  -0.003  0.00  0.00     0.054 A 
HETATM    9  C   UNK N   1       5.803  -2.674  -0.003  0.00  0.00     0.105 A 
HETATM   10  C   UNK N   1       6.520  -3.800  -0.002  0.00  0.00     0.105 A 
HETATM   11  O   UNK N   1       7.815  -3.490   0.001  0.00  0.00    -0.323 OA
HETATM   12  C   UNK N   1       7.937  -2.096   0.002  0.00  0.00     0.352 A 
HETATM   13  O   UNK N   1       6.620  -1.625  -0.001  0.00  0.00    -0.323 OA
HETATM   14  C   UNK N   1       5.926  -5.061  -0.002  0.00  0.00     0.047 A 
HETATM   15  C   UNK N   1       4.517  -5.124  -0.001  0.00  0.00    -0.041 A 
HETATM   16  C   UNK N   1       3.852  -6.463   0.001  0.00  0.00     0.060 A 
HETATM   17  C   UNK N   1       2.315  -6.477   0.018  0.00  0.00     0.133 A 
HETATM   18  N   UNK N   1       1.632  -5.177   0.011  0.00  0.00    -0.355 N 
HETATM   19  C   UNK N   1       0.269  -5.203   0.016  0.00  0.00     0.106 A 
HETATM   20  C   UNK N   1      -0.484  -4.017   0.009  0.00  0.00     0.026 A 
HETATM   21  C   UNK N   1      -1.898  -4.066   0.008  0.00  0.00     0.114 A 
ENDROOT
BRANCH   1  22
HETATM   22  O   UNK N   1      -3.968  -2.599  -0.011  0.00  0.00    -0.353 OA
HETATM   23  C   UNK N   1      -5.017  -3.472   0.031  0.00  0.00     0.210 C 
ENDBRANCH   1  22
BRANCH  21  24
HETATM   24  O   UNK N   1      -2.423  -5.328   0.020  0.00  0.00    -0.352 OA
HETATM   25  C   UNK N   1      -3.706  -5.791  -0.042  0.00  0.00     0.210 C 
ENDBRANCH  21  24
TORSDOF 2
