MODEL 1
REMARK VINA RESULT:      -7.0      0.000      0.000
REMARK  10 active torsions:
REMARK  status: ('A' for Active; 'I' for Inactive)
REMARK    1  A    between atoms: O_1  and  C_11 
REMARK    2  A    between atoms: C_12  and  O_2 
REMARK    3  A    between atoms: O_2  and  C_27 
REMARK    4  A    between atoms: O_3  and  C_19 
REMARK    5  A    between atoms: O_5  and  C_28 
REMARK    6  A    between atoms: O_6  and  C_29 
REMARK    7  A    between atoms: C_11  and  C_12 
REMARK    8  A    between atoms: C_11  and  C_13 
REMARK    9  A    between atoms: C_11  and  C_14 
REMARK   10  A    between atoms: C_12  and  C_19 
ROOT
HETATM    1  C   UNK N   1      29.439  17.837   7.909  0.00  0.00     0.273 C 
ENDROOT
BRANCH   1   2
HETATM    2  O   UNK N   1      30.821  17.933   7.922  0.00  0.00    -0.302 OA
BRANCH   2   3
HETATM    3  C   UNK N   1      31.741  17.040   8.348  0.00  0.00     0.228 A 
HETATM    4  N   UNK N   1      31.556  15.698   8.215  0.00  0.00    -0.302 N 
HETATM    5  C   UNK N   1      32.481  14.815   8.692  0.00  0.00     0.148 A 
ATOM      6  HN  UNK N   1      30.717  15.347   7.753  1.00  0.00     0.171 HD
HETATM    7  C   UNK N   1      33.643  15.290   9.298  0.00  0.00     0.112 A 
HETATM    8  C   UNK N   1      33.821  16.673   9.423  0.00  0.00     0.148 A 
HETATM    9  N   UNK N   1      32.859  17.507   8.963  0.00  0.00    -0.302 N 
ATOM     10  HN  UNK N   1      32.976  18.512   9.082  1.00  0.00     0.171 HD
BRANCH   5  11
HETATM   11  O   UNK N   1      32.284  13.481   8.602  0.00  0.00    -0.341 OA
HETATM   12  C   UNK N   1      33.287  12.570   8.837  0.00  0.00     0.211 C 
ENDBRANCH   5  11
BRANCH   8  13
HETATM   13  O   UNK N   1      34.931  17.202   9.990  0.00  0.00    -0.341 OA
HETATM   14  C   UNK N   1      35.692  16.541  10.927  0.00  0.00     0.211 C 
ENDBRANCH   8  13
ENDBRANCH   2   3
ENDBRANCH   1   2
BRANCH   1  15
HETATM   15  C   UNK N   1      28.797  17.288   6.565  0.00  0.00     0.151 C 
BRANCH  15  16
HETATM   16  O   UNK N   1      27.999  16.131   6.825  0.00  0.00    -0.372 OA
HETATM   17  C   UNK N   1      26.670  16.266   6.385  0.00  0.00     0.203 C 
ENDBRANCH  15  16
BRANCH  15  18
HETATM   18  C   UNK N   1      28.086  18.455   5.851  0.00  0.00    -0.016 A 
HETATM   19  C   UNK N   1      27.775  18.439   4.480  0.00  0.00     0.011 A 
HETATM   20  C   UNK N   1      27.218  19.565   3.862  0.00  0.00     0.001 A 
HETATM   21  C   UNK N   1      26.975  20.724   4.603  0.00  0.00     0.000 A 
HETATM   22  C   UNK N   1      27.282  20.758   5.963  0.00  0.00     0.001 A 
HETATM   23  C   UNK N   1      27.838  19.636   6.580  0.00  0.00     0.011 A 
ENDBRANCH  15  18
BRANCH  15  24
HETATM   24  C   UNK N   1      29.809  16.824   5.499  0.00  0.00    -0.016 A 
HETATM   25  C   UNK N   1      30.680  17.782   4.942  0.00  0.00     0.011 A 
HETATM   26  C   UNK N   1      31.624  17.422   3.978  0.00  0.00     0.001 A 
HETATM   27  C   UNK N   1      31.719  16.095   3.556  0.00  0.00     0.000 A 
HETATM   28  C   UNK N   1      30.874  15.130   4.102  0.00  0.00     0.001 A 
HETATM   29  C   UNK N   1      29.932  15.493   5.066  0.00  0.00     0.011 A 
ENDBRANCH  15  24
ENDBRANCH   1  15
BRANCH   1  30
HETATM   30  C   UNK N   1      28.799  17.508   9.237  0.00  0.00     0.174 C 
HETATM   31  O   UNK N   1      29.474  17.034  10.133  0.00  0.00    -0.648 OA
BRANCH  30  32
HETATM   32  O   UNK N   1      27.486  17.738   9.445  0.00  0.00    -0.774 OA
HETATM   33  H   UNK N   1      26.660  17.454   9.107  0.00  0.00     0.167 HD
ENDBRANCH  30  32
ENDBRANCH   1  30
TORSDOF 10
ENDMDL
MODEL 2
REMARK VINA RESULT:      -6.9      5.237     11.198
REMARK  10 active torsions:
REMARK  status: ('A' for Active; 'I' for Inactive)
REMARK    1  A    between atoms: O_1  and  C_11 
REMARK    2  A    between atoms: C_12  and  O_2 
REMARK    3  A    between atoms: O_2  and  C_27 
REMARK    4  A    between atoms: O_3  and  C_19 
REMARK    5  A    between atoms: O_5  and  C_28 
REMARK    6  A    between atoms: O_6  and  C_29 
REMARK    7  A    between atoms: C_11  and  C_12 
REMARK    8  A    between atoms: C_11  and  C_13 
REMARK    9  A    between atoms: C_11  and  C_14 
REMARK   10  A    between atoms: C_12  and  C_19 
ROOT
HETATM    1  C   UNK N   1      35.502  12.944  13.008  0.00  0.00     0.273 C 
ENDROOT
BRANCH   1   2
HETATM    2  O   UNK N   1      35.054  14.227  12.739  0.00  0.00    -0.302 OA
BRANCH   2   3
HETATM    3  C   UNK N   1      34.725  14.791  11.557  0.00  0.00     0.228 A 
HETATM    4  N   UNK N   1      35.200  16.011  11.184  0.00  0.00    -0.302 N 
HETATM    5  C   UNK N   1      34.819  16.579  10.004  0.00  0.00     0.148 A 
ATOM      6  HN  UNK N   1      35.849  16.508  11.795  1.00  0.00     0.171 HD
HETATM    7  C   UNK N   1      33.955  15.891   9.153  0.00  0.00     0.112 A 
HETATM    8  C   UNK N   1      33.478  14.635   9.547  0.00  0.00     0.148 A 
HETATM    9  N   UNK N   1      33.860  14.130  10.743  0.00  0.00    -0.302 N 
ATOM     10  HN  UNK N   1      33.489  13.229  11.042  1.00  0.00     0.171 HD
BRANCH   5  11
HETATM   11  O   UNK N   1      35.252  17.809   9.648  0.00  0.00    -0.341 OA
HETATM   12  C   UNK N   1      34.840  18.431   8.493  0.00  0.00     0.211 C 
ENDBRANCH   5  11
BRANCH   8  13
HETATM   13  O   UNK N   1      32.646  13.909   8.763  0.00  0.00    -0.341 OA
HETATM   14  C   UNK N   1      32.375  14.222   7.451  0.00  0.00     0.211 C 
ENDBRANCH   8  13
ENDBRANCH   2   3
ENDBRANCH   1   2
BRANCH   1  15
HETATM   15  C   UNK N   1      35.341  12.456  14.510  0.00  0.00     0.151 C 
BRANCH  15  16
HETATM   16  O   UNK N   1      33.966  12.212  14.815  0.00  0.00    -0.372 OA
HETATM   17  C   UNK N   1      33.616  10.852  14.741  0.00  0.00     0.203 C 
ENDBRANCH  15  16
BRANCH  15  18
HETATM   18  C   UNK N   1      36.307  11.277  14.746  0.00  0.00    -0.016 A 
HETATM   19  C   UNK N   1      36.011  10.205  15.607  0.00  0.00     0.011 A 
HETATM   20  C   UNK N   1      36.964   9.212  15.861  0.00  0.00     0.001 A 
HETATM   21  C   UNK N   1      38.226   9.281  15.268  0.00  0.00     0.000 A 
HETATM   22  C   UNK N   1      38.537  10.340  14.415  0.00  0.00     0.001 A 
HETATM   23  C   UNK N   1      37.588  11.332  14.162  0.00  0.00     0.011 A 
ENDBRANCH  15  18
BRANCH  15  24
HETATM   24  C   UNK N   1      35.797  13.469  15.578  0.00  0.00    -0.016 A 
HETATM   25  C   UNK N   1      36.832  14.368  15.248  0.00  0.00     0.011 A 
HETATM   26  C   UNK N   1      37.284  15.313  16.172  0.00  0.00     0.001 A 
HETATM   27  C   UNK N   1      36.707  15.382  17.440  0.00  0.00     0.000 A 
HETATM   28  C   UNK N   1      35.675  14.509  17.782  0.00  0.00     0.001 A 
HETATM   29  C   UNK N   1      35.225  13.565  16.858  0.00  0.00     0.011 A 
ENDBRANCH  15  24
ENDBRANCH   1  15
BRANCH   1  30
HETATM   30  C   UNK N   1      35.355  11.954  11.876  0.00  0.00     0.174 C 
HETATM   31  O   UNK N   1      36.276  11.784  11.098  0.00  0.00    -0.648 OA
BRANCH  30  32
HETATM   32  O   UNK N   1      34.215  11.251  11.720  0.00  0.00    -0.774 OA
HETATM   33  H   UNK N   1      33.944  10.412  11.403  0.00  0.00     0.167 HD
ENDBRANCH  30  32
ENDBRANCH   1  30
TORSDOF 10
ENDMDL
MODEL 3
REMARK VINA RESULT:      -6.7      5.437     11.082
REMARK  10 active torsions:
REMARK  status: ('A' for Active; 'I' for Inactive)
REMARK    1  A    between atoms: O_1  and  C_11 
REMARK    2  A    between atoms: C_12  and  O_2 
REMARK    3  A    between atoms: O_2  and  C_27 
REMARK    4  A    between atoms: O_3  and  C_19 
REMARK    5  A    between atoms: O_5  and  C_28 
REMARK    6  A    between atoms: O_6  and  C_29 
REMARK    7  A    between atoms: C_11  and  C_12 
REMARK    8  A    between atoms: C_11  and  C_13 
REMARK    9  A    between atoms: C_11  and  C_14 
REMARK   10  A    between atoms: C_12  and  C_19 
ROOT
HETATM    1  C   UNK N   1      35.617  13.036  12.960  0.00  0.00     0.273 C 
ENDROOT
BRANCH   1   2
HETATM    2  O   UNK N   1      34.820  14.102  12.574  0.00  0.00    -0.302 OA
BRANCH   2   3
HETATM    3  C   UNK N   1      34.513  14.540  11.334  0.00  0.00     0.228 A 
HETATM    4  N   UNK N   1      33.960  13.721  10.398  0.00  0.00    -0.302 N 
HETATM    5  C   UNK N   1      33.698  14.176   9.138  0.00  0.00     0.148 A 
ATOM      6  HN  UNK N   1      33.738  12.755  10.640  1.00  0.00     0.171 HD
HETATM    7  C   UNK N   1      33.973  15.503   8.811  0.00  0.00     0.112 A 
HETATM    8  C   UNK N   1      34.538  16.335   9.786  0.00  0.00     0.148 A 
HETATM    9  N   UNK N   1      34.809  15.826  11.010  0.00  0.00    -0.302 N 
ATOM     10  HN  UNK N   1      35.248  16.424  11.710  1.00  0.00     0.171 HD
BRANCH   5  11
HETATM   11  O   UNK N   1      33.189  13.357   8.191  0.00  0.00    -0.341 OA
HETATM   12  C   UNK N   1      33.539  12.031   8.096  0.00  0.00     0.211 C 
ENDBRANCH   5  11
BRANCH   8  13
HETATM   13  O   UNK N   1      34.819  17.637   9.539  0.00  0.00    -0.341 OA
HETATM   14  C   UNK N   1      34.537  18.259   8.345  0.00  0.00     0.211 C 
ENDBRANCH   8  13
ENDBRANCH   2   3
ENDBRANCH   1   2
BRANCH   1  15
HETATM   15  C   UNK N   1      35.422  12.532  14.453  0.00  0.00     0.151 C 
BRANCH  15  16
HETATM   16  O   UNK N   1      34.039  12.301  14.729  0.00  0.00    -0.372 OA
HETATM   17  C   UNK N   1      33.633  10.982  14.457  0.00  0.00     0.203 C 
ENDBRANCH  15  16
BRANCH  15  18
HETATM   18  C   UNK N   1      36.369  11.339  14.692  0.00  0.00    -0.016 A 
HETATM   19  C   UNK N   1      35.974  10.172  15.371  0.00  0.00     0.011 A 
HETATM   20  C   UNK N   1      36.902   9.161  15.647  0.00  0.00     0.001 A 
HETATM   21  C   UNK N   1      38.236   9.306  15.259  0.00  0.00     0.000 A 
HETATM   22  C   UNK N   1      38.644  10.459  14.589  0.00  0.00     0.001 A 
HETATM   23  C   UNK N   1      37.720  11.468  14.314  0.00  0.00     0.011 A 
ENDBRANCH  15  18
BRANCH  15  24
HETATM   24  C   UNK N   1      35.870  13.526  15.542  0.00  0.00    -0.016 A 
HETATM   25  C   UNK N   1      35.255  13.452  16.808  0.00  0.00     0.011 A 
HETATM   26  C   UNK N   1      35.623  14.321  17.838  0.00  0.00     0.001 A 
HETATM   27  C   UNK N   1      36.618  15.275  17.623  0.00  0.00     0.000 A 
HETATM   28  C   UNK N   1      37.246  15.357  16.382  0.00  0.00     0.001 A 
HETATM   29  C   UNK N   1      36.876  14.488  15.354  0.00  0.00     0.011 A 
ENDBRANCH  15  24
ENDBRANCH   1  15
BRANCH   1  30
HETATM   30  C   UNK N   1      35.949  12.045  11.870  0.00  0.00     0.174 C 
HETATM   31  O   UNK N   1      35.155  11.163  11.592  0.00  0.00    -0.648 OA
BRANCH  30  32
HETATM   32  O   UNK N   1      37.113  12.128  11.195  0.00  0.00    -0.774 OA
HETATM   33  H   UNK N   1      37.419  12.389  10.348  0.00  0.00     0.167 HD
ENDBRANCH  30  32
ENDBRANCH   1  30
TORSDOF 10
ENDMDL
MODEL 4
REMARK VINA RESULT:      -6.7      2.855      4.428
REMARK  10 active torsions:
REMARK  status: ('A' for Active; 'I' for Inactive)
REMARK    1  A    between atoms: O_1  and  C_11 
REMARK    2  A    between atoms: C_12  and  O_2 
REMARK    3  A    between atoms: O_2  and  C_27 
REMARK    4  A    between atoms: O_3  and  C_19 
REMARK    5  A    between atoms: O_5  and  C_28 
REMARK    6  A    between atoms: O_6  and  C_29 
REMARK    7  A    between atoms: C_11  and  C_12 
REMARK    8  A    between atoms: C_11  and  C_13 
REMARK    9  A    between atoms: C_11  and  C_14 
REMARK   10  A    between atoms: C_12  and  C_19 
ROOT
HETATM    1  C   UNK N   1      33.438  16.326   7.993  0.00  0.00     0.273 C 
ENDROOT
BRANCH   1   2
HETATM    2  O   UNK N   1      33.431  16.011   9.342  0.00  0.00    -0.302 OA
BRANCH   2   3
HETATM    3  C   UNK N   1      34.331  15.308  10.065  0.00  0.00     0.228 A 
HETATM    4  N   UNK N   1      34.025  14.784  11.283  0.00  0.00    -0.302 N 
HETATM    5  C   UNK N   1      34.964  14.115  12.012  0.00  0.00     0.148 A 
ATOM      6  HN  UNK N   1      33.081  14.892  11.655  1.00  0.00     0.171 HD
HETATM    7  C   UNK N   1      36.246  13.939  11.493  0.00  0.00     0.112 A 
HETATM    8  C   UNK N   1      36.546  14.480  10.237  0.00  0.00     0.148 A 
HETATM    9  N   UNK N   1      35.588  15.164   9.568  0.00  0.00    -0.302 N 
ATOM     10  HN  UNK N   1      35.816  15.583   8.667  1.00  0.00     0.171 HD
BRANCH   5  11
HETATM   11  O   UNK N   1      34.680  13.629  13.240  0.00  0.00    -0.341 OA
HETATM   12  C   UNK N   1      35.639  13.477  14.214  0.00  0.00     0.211 C 
ENDBRANCH   5  11
BRANCH   8  13
HETATM   13  O   UNK N   1      37.767  14.336   9.669  0.00  0.00    -0.341 OA
HETATM   14  C   UNK N   1      38.697  13.418  10.097  0.00  0.00     0.211 C 
ENDBRANCH   8  13
ENDBRANCH   2   3
ENDBRANCH   1   2
BRANCH   1  15
HETATM   15  C   UNK N   1      32.105  15.992   7.199  0.00  0.00     0.151 C 
BRANCH  15  16
HETATM   16  O   UNK N   1      31.823  14.592   7.254  0.00  0.00    -0.372 OA
HETATM   17  C   UNK N   1      32.982  13.795   7.275  0.00  0.00     0.203 C 
ENDBRANCH  15  16
BRANCH  15  18
HETATM   18  C   UNK N   1      30.988  16.929   7.703  0.00  0.00    -0.016 A 
HETATM   19  C   UNK N   1      31.212  17.949   8.645  0.00  0.00     0.011 A 
HETATM   20  C   UNK N   1      30.145  18.706   9.142  0.00  0.00     0.001 A 
HETATM   21  C   UNK N   1      28.841  18.447   8.715  0.00  0.00     0.000 A 
HETATM   22  C   UNK N   1      28.601  17.434   7.785  0.00  0.00     0.001 A 
HETATM   23  C   UNK N   1      29.664  16.679   7.289  0.00  0.00     0.011 A 
ENDBRANCH  15  18
BRANCH  15  24
HETATM   24  C   UNK N   1      32.144  16.316   5.692  0.00  0.00    -0.016 A 
HETATM   25  C   UNK N   1      32.697  15.359   4.817  0.00  0.00     0.011 A 
HETATM   26  C   UNK N   1      32.755  15.592   3.441  0.00  0.00     0.001 A 
HETATM   27  C   UNK N   1      32.254  16.782   2.913  0.00  0.00     0.000 A 
HETATM   28  C   UNK N   1      31.692  17.736   3.761  0.00  0.00     0.001 A 
HETATM   29  C   UNK N   1      31.636  17.502   5.135  0.00  0.00     0.011 A 
ENDBRANCH  15  24
ENDBRANCH   1  15
BRANCH   1  30
HETATM   30  C   UNK N   1      34.255  17.538   7.613  0.00  0.00     0.174 C 
HETATM   31  O   UNK N   1      34.649  17.667   6.467  0.00  0.00    -0.648 OA
BRANCH  30  32
HETATM   32  O   UNK N   1      34.552  18.483   8.528  0.00  0.00    -0.774 OA
HETATM   33  H   UNK N   1      35.287  18.764   9.036  0.00  0.00     0.167 HD
ENDBRANCH  30  32
ENDBRANCH   1  30
TORSDOF 10
ENDMDL
MODEL 5
REMARK VINA RESULT:      -6.6      6.437      9.767
REMARK  10 active torsions:
REMARK  status: ('A' for Active; 'I' for Inactive)
REMARK    1  A    between atoms: O_1  and  C_11 
REMARK    2  A    between atoms: C_12  and  O_2 
REMARK    3  A    between atoms: O_2  and  C_27 
REMARK    4  A    between atoms: O_3  and  C_19 
REMARK    5  A    between atoms: O_5  and  C_28 
REMARK    6  A    between atoms: O_6  and  C_29 
REMARK    7  A    between atoms: C_11  and  C_12 
REMARK    8  A    between atoms: C_11  and  C_13 
REMARK    9  A    between atoms: C_11  and  C_14 
REMARK   10  A    between atoms: C_12  and  C_19 
ROOT
HETATM    1  C   UNK N   1      21.733  17.046   5.171  0.00  0.00     0.273 C 
ENDROOT
BRANCH   1   2
HETATM    2  O   UNK N   1      23.055  17.250   4.813  0.00  0.00    -0.302 OA
BRANCH   2   3
HETATM    3  C   UNK N   1      23.625  18.310   4.198  0.00  0.00     0.228 A 
HETATM    4  N   UNK N   1      24.976  18.441   4.093  0.00  0.00    -0.302 N 
HETATM    5  C   UNK N   1      25.527  19.542   3.505  0.00  0.00     0.148 A 
ATOM      6  HN  UNK N   1      25.583  17.709   4.460  1.00  0.00     0.171 HD
HETATM    7  C   UNK N   1      24.699  20.532   2.977  0.00  0.00     0.112 A 
HETATM    8  C   UNK N   1      23.312  20.381   3.087  0.00  0.00     0.148 A 
HETATM    9  N   UNK N   1      22.815  19.286   3.709  0.00  0.00    -0.302 N 
ATOM     10  HN  UNK N   1      21.806  19.192   3.816  1.00  0.00     0.171 HD
BRANCH   5  11
HETATM   11  O   UNK N   1      26.868  19.700   3.437  0.00  0.00    -0.341 OA
HETATM   12  C   UNK N   1      27.680  19.599   4.541  0.00  0.00     0.211 C 
ENDBRANCH   5  11
BRANCH   8  13
HETATM   13  O   UNK N   1      22.451  21.298   2.586  0.00  0.00    -0.341 OA
HETATM   14  C   UNK N   1      21.133  21.025   2.302  0.00  0.00     0.211 C 
ENDBRANCH   8  13
ENDBRANCH   2   3
ENDBRANCH   1   2
BRANCH   1  15
HETATM   15  C   UNK N   1      21.075  15.699   4.647  0.00  0.00     0.151 C 
BRANCH  15  16
HETATM   16  O   UNK N   1      20.104  15.218   5.578  0.00  0.00    -0.372 OA
HETATM   17  C   UNK N   1      18.787  15.574   5.236  0.00  0.00     0.203 C 
ENDBRANCH  15  16
BRANCH  15  18
HETATM   18  C   UNK N   1      20.577  15.928   3.206  0.00  0.00    -0.016 A 
HETATM   19  C   UNK N   1      20.342  14.878   2.301  0.00  0.00     0.011 A 
HETATM   20  C   UNK N   1      19.985  15.147   0.974  0.00  0.00     0.001 A 
HETATM   21  C   UNK N   1      19.869  16.467   0.532  0.00  0.00     0.000 A 
HETATM   22  C   UNK N   1      20.103  17.520   1.416  0.00  0.00     0.001 A 
HETATM   23  C   UNK N   1      20.460  17.253   2.738  0.00  0.00     0.011 A 
ENDBRANCH  15  18
BRANCH  15  24
HETATM   24  C   UNK N   1      22.053  14.521   4.469  0.00  0.00    -0.016 A 
HETATM   25  C   UNK N   1      21.865  13.371   5.263  0.00  0.00     0.011 A 
HETATM   26  C   UNK N   1      22.714  12.268   5.142  0.00  0.00     0.001 A 
HETATM   27  C   UNK N   1      23.762  12.291   4.222  0.00  0.00     0.000 A 
HETATM   28  C   UNK N   1      23.958  13.415   3.420  0.00  0.00     0.001 A 
HETATM   29  C   UNK N   1      23.108  14.516   3.542  0.00  0.00     0.011 A 
ENDBRANCH  15  24
ENDBRANCH   1  15
BRANCH   1  30
HETATM   30  C   UNK N   1      21.330  17.606   6.514  0.00  0.00     0.174 C 
HETATM   31  O   UNK N   1      21.119  18.800   6.633  0.00  0.00    -0.648 OA
BRANCH  30  32
HETATM   32  O   UNK N   1      21.195  16.798   7.586  0.00  0.00    -0.774 OA
HETATM   33  H   UNK N   1      21.563  16.003   7.918  0.00  0.00     0.167 HD
ENDBRANCH  30  32
ENDBRANCH   1  30
TORSDOF 10
ENDMDL
MODEL 6
REMARK VINA RESULT:      -6.6      3.636      6.836
REMARK  10 active torsions:
REMARK  status: ('A' for Active; 'I' for Inactive)
REMARK    1  A    between atoms: O_1  and  C_11 
REMARK    2  A    between atoms: C_12  and  O_2 
REMARK    3  A    between atoms: O_2  and  C_27 
REMARK    4  A    between atoms: O_3  and  C_19 
REMARK    5  A    between atoms: O_5  and  C_28 
REMARK    6  A    between atoms: O_6  and  C_29 
REMARK    7  A    between atoms: C_11  and  C_12 
REMARK    8  A    between atoms: C_11  and  C_13 
REMARK    9  A    between atoms: C_11  and  C_14 
REMARK   10  A    between atoms: C_12  and  C_19 
ROOT
HETATM    1  C   UNK N   1      27.381  15.553   5.396  0.00  0.00     0.273 C 
ENDROOT
BRANCH   1   2
HETATM    2  O   UNK N   1      26.766  15.402   6.627  0.00  0.00    -0.302 OA
BRANCH   2   3
HETATM    3  C   UNK N   1      25.524  14.956   6.919  0.00  0.00     0.228 A 
HETATM    4  N   UNK N   1      24.407  15.611   6.500  0.00  0.00    -0.302 N 
HETATM    5  C   UNK N   1      23.164  15.164   6.844  0.00  0.00     0.148 A 
ATOM      6  HN  UNK N   1      24.499  16.447   5.923  1.00  0.00     0.171 HD
HETATM    7  C   UNK N   1      23.034  14.005   7.609  0.00  0.00     0.112 A 
HETATM    8  C   UNK N   1      24.192  13.339   8.028  0.00  0.00     0.148 A 
HETATM    9  N   UNK N   1      25.401  13.842   7.688  0.00  0.00    -0.302 N 
ATOM     10  HN  UNK N   1      26.244  13.373   8.019  1.00  0.00     0.171 HD
BRANCH   5  11
HETATM   11  O   UNK N   1      22.052  15.833   6.469  0.00  0.00    -0.341 OA
HETATM   12  C   UNK N   1      21.144  16.322   7.378  0.00  0.00     0.211 C 
ENDBRANCH   5  11
BRANCH   8  13
HETATM   13  O   UNK N   1      24.136  12.202   8.762  0.00  0.00    -0.341 OA
HETATM   14  C   UNK N   1      24.230  12.182  10.134  0.00  0.00     0.211 C 
ENDBRANCH   8  13
ENDBRANCH   2   3
ENDBRANCH   1   2
BRANCH   1  15
HETATM   15  C   UNK N   1      28.419  16.749   5.283  0.00  0.00     0.151 C 
BRANCH  15  16
HETATM   16  O   UNK N   1      29.618  16.315   4.639  0.00  0.00    -0.372 OA
HETATM   17  C   UNK N   1      29.599  16.511   3.246  0.00  0.00     0.203 C 
ENDBRANCH  15  16
BRANCH  15  18
HETATM   18  C   UNK N   1      27.705  17.957   4.643  0.00  0.00    -0.016 A 
HETATM   19  C   UNK N   1      28.235  19.259   4.665  0.00  0.00     0.011 A 
HETATM   20  C   UNK N   1      27.499  20.336   4.155  0.00  0.00     0.001 A 
HETATM   21  C   UNK N   1      26.222  20.128   3.629  0.00  0.00     0.000 A 
HETATM   22  C   UNK N   1      25.679  18.843   3.605  0.00  0.00     0.001 A 
HETATM   23  C   UNK N   1      26.412  17.769   4.113  0.00  0.00     0.011 A 
ENDBRANCH  15  18
BRANCH  15  24
HETATM   24  C   UNK N   1      28.895  17.329   6.629  0.00  0.00    -0.016 A 
HETATM   25  C   UNK N   1      30.246  17.152   6.993  0.00  0.00     0.011 A 
HETATM   26  C   UNK N   1      30.738  17.661   8.197  0.00  0.00     0.001 A 
HETATM   27  C   UNK N   1      29.892  18.362   9.056  0.00  0.00     0.000 A 
HETATM   28  C   UNK N   1      28.556  18.558   8.710  0.00  0.00     0.001 A 
HETATM   29  C   UNK N   1      28.066  18.048   7.506  0.00  0.00     0.011 A 
ENDBRANCH  15  24
ENDBRANCH   1  15
BRANCH   1  30
HETATM   30  C   UNK N   1      27.622  14.274   4.629  0.00  0.00     0.174 C 
HETATM   31  O   UNK N   1      26.856  13.949   3.738  0.00  0.00    -0.648 OA
BRANCH  30  32
HETATM   32  O   UNK N   1      28.679  13.488   4.915  0.00  0.00    -0.774 OA
HETATM   33  H   UNK N   1      28.898  12.577   4.914  0.00  0.00     0.167 HD
ENDBRANCH  30  32
ENDBRANCH   1  30
TORSDOF 10
ENDMDL
MODEL 7
REMARK VINA RESULT:      -6.5      2.951      5.373
REMARK  10 active torsions:
REMARK  status: ('A' for Active; 'I' for Inactive)
REMARK    1  A    between atoms: O_1  and  C_11 
REMARK    2  A    between atoms: C_12  and  O_2 
REMARK    3  A    between atoms: O_2  and  C_27 
REMARK    4  A    between atoms: O_3  and  C_19 
REMARK    5  A    between atoms: O_5  and  C_28 
REMARK    6  A    between atoms: O_6  and  C_29 
REMARK    7  A    between atoms: C_11  and  C_12 
REMARK    8  A    between atoms: C_11  and  C_13 
REMARK    9  A    between atoms: C_11  and  C_14 
REMARK   10  A    between atoms: C_12  and  C_19 
ROOT
HETATM    1  C   UNK N   1      33.381  15.914   8.239  0.00  0.00     0.273 C 
ENDROOT
BRANCH   1   2
HETATM    2  O   UNK N   1      34.475  15.309   7.643  0.00  0.00    -0.302 OA
BRANCH   2   3
HETATM    3  C   UNK N   1      35.515  14.661   8.213  0.00  0.00     0.228 A 
HETATM    4  N   UNK N   1      35.651  14.568   9.565  0.00  0.00    -0.302 N 
HETATM    5  C   UNK N   1      36.733  13.945  10.116  0.00  0.00     0.148 A 
ATOM      6  HN  UNK N   1      34.937  14.969  10.172  1.00  0.00     0.171 HD
HETATM    7  C   UNK N   1      37.696  13.369   9.288  0.00  0.00     0.112 A 
HETATM    8  C   UNK N   1      37.539  13.468   7.901  0.00  0.00     0.148 A 
HETATM    9  N   UNK N   1      36.466  14.126   7.403  0.00  0.00    -0.302 N 
ATOM     10  HN  UNK N   1      36.369  14.223   6.393  1.00  0.00     0.171 HD
BRANCH   5  11
HETATM   11  O   UNK N   1      36.898  13.887  11.456  0.00  0.00    -0.341 OA
HETATM   12  C   UNK N   1      37.144  12.708  12.119  0.00  0.00     0.211 C 
ENDBRANCH   5  11
BRANCH   8  13
HETATM   13  O   UNK N   1      38.431  12.922   7.040  0.00  0.00    -0.341 OA
HETATM   14  C   UNK N   1      39.126  11.765   7.303  0.00  0.00     0.211 C 
ENDBRANCH   8  13
ENDBRANCH   2   3
ENDBRANCH   1   2
BRANCH   1  15
HETATM   15  C   UNK N   1      32.699  17.082   7.408  0.00  0.00     0.151 C 
BRANCH  15  16
HETATM   16  O   UNK N   1      33.356  18.327   7.659  0.00  0.00    -0.372 OA
HETATM   17  C   UNK N   1      34.595  18.177   8.309  0.00  0.00     0.203 C 
ENDBRANCH  15  16
BRANCH  15  18
HETATM   18  C   UNK N   1      32.614  16.646   5.932  0.00  0.00    -0.016 A 
HETATM   19  C   UNK N   1      32.468  15.305   5.536  0.00  0.00     0.011 A 
HETATM   20  C   UNK N   1      32.496  14.955   4.181  0.00  0.00     0.001 A 
HETATM   21  C   UNK N   1      32.679  15.936   3.205  0.00  0.00     0.000 A 
HETATM   22  C   UNK N   1      32.830  17.272   3.581  0.00  0.00     0.001 A 
HETATM   23  C   UNK N   1      32.804  17.622   4.932  0.00  0.00     0.011 A 
ENDBRANCH  15  18
BRANCH  15  24
HETATM   24  C   UNK N   1      31.221  17.352   7.753  0.00  0.00    -0.016 A 
HETATM   25  C   UNK N   1      30.933  18.189   8.850  0.00  0.00     0.011 A 
HETATM   26  C   UNK N   1      29.614  18.477   9.207  0.00  0.00     0.001 A 
HETATM   27  C   UNK N   1      28.558  17.939   8.471  0.00  0.00     0.000 A 
HETATM   28  C   UNK N   1      28.822  17.118   7.375  0.00  0.00     0.001 A 
HETATM   29  C   UNK N   1      30.141  16.832   7.020  0.00  0.00     0.011 A 
ENDBRANCH  15  24
ENDBRANCH   1  15
BRANCH   1  30
HETATM   30  C   UNK N   1      32.531  15.012   9.103  0.00  0.00     0.174 C 
HETATM   31  O   UNK N   1      31.963  14.056   8.604  0.00  0.00    -0.648 OA
BRANCH  30  32
HETATM   32  O   UNK N   1      32.397  15.248  10.423  0.00  0.00    -0.774 OA
HETATM   33  H   UNK N   1      32.333  15.981  11.003  0.00  0.00     0.167 HD
ENDBRANCH  30  32
ENDBRANCH   1  30
TORSDOF 10
ENDMDL
MODEL 8
REMARK VINA RESULT:      -6.5      2.455      4.378
REMARK  10 active torsions:
REMARK  status: ('A' for Active; 'I' for Inactive)
REMARK    1  A    between atoms: O_1  and  C_11 
REMARK    2  A    between atoms: C_12  and  O_2 
REMARK    3  A    between atoms: O_2  and  C_27 
REMARK    4  A    between atoms: O_3  and  C_19 
REMARK    5  A    between atoms: O_5  and  C_28 
REMARK    6  A    between atoms: O_6  and  C_29 
REMARK    7  A    between atoms: C_11  and  C_12 
REMARK    8  A    between atoms: C_11  and  C_13 
REMARK    9  A    between atoms: C_11  and  C_14 
REMARK   10  A    between atoms: C_12  and  C_19 
ROOT
HETATM    1  C   UNK N   1      29.616  16.232   5.126  0.00  0.00     0.273 C 
ENDROOT
BRANCH   1   2
HETATM    2  O   UNK N   1      30.560  15.688   5.980  0.00  0.00    -0.302 OA
BRANCH   2   3
HETATM    3  C   UNK N   1      31.905  15.639   5.856  0.00  0.00     0.228 A 
HETATM    4  N   UNK N   1      32.534  14.601   5.240  0.00  0.00    -0.302 N 
HETATM    5  C   UNK N   1      33.895  14.554   5.165  0.00  0.00     0.148 A 
ATOM      6  HN  UNK N   1      31.981  13.848   4.829  1.00  0.00     0.171 HD
HETATM    7  C   UNK N   1      34.654  15.595   5.699  0.00  0.00     0.112 A 
HETATM    8  C   UNK N   1      33.993  16.659   6.325  0.00  0.00     0.148 A 
HETATM    9  N   UNK N   1      32.642  16.642   6.403  0.00  0.00    -0.302 N 
ATOM     10  HN  UNK N   1      32.164  17.402   6.885  1.00  0.00     0.171 HD
BRANCH   5  11
HETATM   11  O   UNK N   1      34.528  13.505   4.593  0.00  0.00    -0.341 OA
HETATM   12  C   UNK N   1      35.892  13.469   4.425  0.00  0.00     0.211 C 
ENDBRANCH   5  11
BRANCH   8  13
HETATM   13  O   UNK N   1      34.668  17.707   6.854  0.00  0.00    -0.341 OA
HETATM   14  C   UNK N   1      34.311  18.321   8.032  0.00  0.00     0.211 C 
ENDBRANCH   8  13
ENDBRANCH   2   3
ENDBRANCH   1   2
BRANCH   1  15
HETATM   15  C   UNK N   1      28.289  16.769   5.813  0.00  0.00     0.151 C 
BRANCH  15  16
HETATM   16  O   UNK N   1      27.272  15.765   5.795  0.00  0.00    -0.372 OA
HETATM   17  C   UNK N   1      27.722  14.531   5.289  0.00  0.00     0.203 C 
ENDBRANCH  15  16
BRANCH  15  18
HETATM   18  C   UNK N   1      28.653  17.340   7.198  0.00  0.00    -0.016 A 
HETATM   19  C   UNK N   1      29.831  18.070   7.440  0.00  0.00     0.011 A 
HETATM   20  C   UNK N   1      30.160  18.480   8.737  0.00  0.00     0.001 A 
HETATM   21  C   UNK N   1      29.325  18.159   9.809  0.00  0.00     0.000 A 
HETATM   22  C   UNK N   1      28.156  17.431   9.587  0.00  0.00     0.001 A 
HETATM   23  C   UNK N   1      27.827  17.021   8.294  0.00  0.00     0.011 A 
ENDBRANCH  15  18
BRANCH  15  24
HETATM   24  C   UNK N   1      27.641  17.984   5.121  0.00  0.00    -0.016 A 
HETATM   25  C   UNK N   1      26.626  17.749   4.170  0.00  0.00     0.011 A 
HETATM   26  C   UNK N   1      25.996  18.809   3.515  0.00  0.00     0.001 A 
HETATM   27  C   UNK N   1      26.363  20.124   3.802  0.00  0.00     0.000 A 
HETATM   28  C   UNK N   1      27.357  20.378   4.747  0.00  0.00     0.001 A 
HETATM   29  C   UNK N   1      27.985  19.317   5.400  0.00  0.00     0.011 A 
ENDBRANCH  15  24
ENDBRANCH   1  15
BRANCH   1  30
HETATM   30  C   UNK N   1      30.170  16.937   3.910  0.00  0.00     0.174 C 
HETATM   31  O   UNK N   1      29.906  16.519   2.796  0.00  0.00    -0.648 OA
BRANCH  30  32
HETATM   32  O   UNK N   1      30.951  18.028   4.041  0.00  0.00    -0.774 OA
HETATM   33  H   UNK N   1      31.849  18.269   3.923  0.00  0.00     0.167 HD
ENDBRANCH  30  32
ENDBRANCH   1  30
TORSDOF 10
ENDMDL
MODEL 9
REMARK VINA RESULT:      -6.5      3.644      6.799
REMARK  10 active torsions:
REMARK  status: ('A' for Active; 'I' for Inactive)
REMARK    1  A    between atoms: O_1  and  C_11 
REMARK    2  A    between atoms: C_12  and  O_2 
REMARK    3  A    between atoms: O_2  and  C_27 
REMARK    4  A    between atoms: O_3  and  C_19 
REMARK    5  A    between atoms: O_5  and  C_28 
REMARK    6  A    between atoms: O_6  and  C_29 
REMARK    7  A    between atoms: C_11  and  C_12 
REMARK    8  A    between atoms: C_11  and  C_13 
REMARK    9  A    between atoms: C_11  and  C_14 
REMARK   10  A    between atoms: C_12  and  C_19 
ROOT
HETATM    1  C   UNK N   1      27.426  15.508   5.431  0.00  0.00     0.273 C 
ENDROOT
BRANCH   1   2
HETATM    2  O   UNK N   1      26.831  15.349   6.672  0.00  0.00    -0.302 OA
BRANCH   2   3
HETATM    3  C   UNK N   1      25.571  14.971   6.978  0.00  0.00     0.228 A 
HETATM    4  N   UNK N   1      25.315  13.886   7.759  0.00  0.00    -0.302 N 
HETATM    5  C   UNK N   1      24.032  13.500   8.019  0.00  0.00     0.148 A 
ATOM      6  HN  UNK N   1      26.090  13.355   8.155  1.00  0.00     0.171 HD
HETATM    7  C   UNK N   1      22.969  14.240   7.504  0.00  0.00     0.112 A 
HETATM    8  C   UNK N   1      23.248  15.356   6.706  0.00  0.00     0.148 A 
HETATM    9  N   UNK N   1      24.537  15.679   6.451  0.00  0.00    -0.302 N 
ATOM     10  HN  UNK N   1      24.739  16.474   5.845  1.00  0.00     0.171 HD
BRANCH   5  11
HETATM   11  O   UNK N   1      23.770  12.399   8.757  0.00  0.00    -0.341 OA
HETATM   12  C   UNK N   1      24.382  12.156   9.964  0.00  0.00     0.211 C 
ENDBRANCH   5  11
BRANCH   8  13
HETATM   13  O   UNK N   1      22.263  16.126   6.184  0.00  0.00    -0.341 OA
HETATM   14  C   UNK N   1      21.147  16.509   6.890  0.00  0.00     0.211 C 
ENDBRANCH   8  13
ENDBRANCH   2   3
ENDBRANCH   1   2
BRANCH   1  15
HETATM   15  C   UNK N   1      28.475  16.693   5.313  0.00  0.00     0.151 C 
BRANCH  15  16
HETATM   16  O   UNK N   1      29.671  16.245   4.671  0.00  0.00    -0.372 OA
HETATM   17  C   UNK N   1      29.712  16.558   3.300  0.00  0.00     0.203 C 
ENDBRANCH  15  16
BRANCH  15  18
HETATM   18  C   UNK N   1      27.773  17.905   4.668  0.00  0.00    -0.016 A 
HETATM   19  C   UNK N   1      28.297  19.209   4.716  0.00  0.00     0.011 A 
HETATM   20  C   UNK N   1      27.570  20.288   4.199  0.00  0.00     0.001 A 
HETATM   21  C   UNK N   1      26.307  20.081   3.639  0.00  0.00     0.000 A 
HETATM   22  C   UNK N   1      25.771  18.794   3.589  0.00  0.00     0.001 A 
HETATM   23  C   UNK N   1      26.495  17.717   4.104  0.00  0.00     0.011 A 
ENDBRANCH  15  18
BRANCH  15  24
HETATM   24  C   UNK N   1      28.957  17.275   6.657  0.00  0.00    -0.016 A 
HETATM   25  C   UNK N   1      28.007  17.891   7.498  0.00  0.00     0.011 A 
HETATM   26  C   UNK N   1      28.381  18.430   8.730  0.00  0.00     0.001 A 
HETATM   27  C   UNK N   1      29.710  18.359   9.149  0.00  0.00     0.000 A 
HETATM   28  C   UNK N   1      30.662  17.744   8.338  0.00  0.00     0.001 A 
HETATM   29  C   UNK N   1      30.286  17.206   7.106  0.00  0.00     0.011 A 
ENDBRANCH  15  24
ENDBRANCH   1  15
BRANCH   1  30
HETATM   30  C   UNK N   1      27.639  14.235   4.645  0.00  0.00     0.174 C 
HETATM   31  O   UNK N   1      26.827  13.904   3.799  0.00  0.00    -0.648 OA
BRANCH  30  32
HETATM   32  O   UNK N   1      28.721  13.462   4.866  0.00  0.00    -0.774 OA
HETATM   33  H   UNK N   1      28.990  12.574   4.733  0.00  0.00     0.167 HD
ENDBRANCH  30  32
ENDBRANCH   1  30
TORSDOF 10
ENDMDL
