MODEL 1
REMARK VINA RESULT:      -5.7      0.000      0.000
REMARK  1 active torsions:
REMARK  status: ('A' for Active; 'I' for Inactive)
REMARK    1  A    between atoms: N_2  and  C_3 
ROOT
HETATM    1  O   UNK N   1      26.873  23.690  -2.572  0.00  0.00    -0.268 OA
HETATM    2  N   UNK N   1      28.131  25.029  -3.922  0.00  0.00    -0.289 N 
HETATM    3  C   UNK N   1      29.388  25.334  -4.371  0.00  0.00     0.107 A 
HETATM    4  C   UNK N   1      30.506  24.637  -3.927  0.00  0.00    -0.046 A 
HETATM    5  C   UNK N   1      27.973  23.995  -2.999  0.00  0.00     0.252 A 
HETATM    6  C   UNK N   1      30.354  23.606  -3.008  0.00  0.00     0.013 A 
HETATM    7  C   UNK N   1      29.085  23.283  -2.541  0.00  0.00     0.075 A 
HETATM    8  C   UNK N   1      31.855  24.996  -4.437  0.00  0.00     0.049 C 
ENDROOT
BRANCH   2   9
HETATM    9  C   UNK N   1      27.019  25.810  -4.439  0.00  0.00     0.042 A 
HETATM   10  C   UNK N   1      26.607  26.984  -3.777  0.00  0.00     0.030 A 
HETATM   11  C   UNK N   1      25.540  27.744  -4.263  0.00  0.00     0.002 A 
HETATM   12  C   UNK N   1      24.869  27.343  -5.418  0.00  0.00     0.000 A 
HETATM   13  C   UNK N   1      25.262  26.184  -6.088  0.00  0.00     0.002 A 
HETATM   14  C   UNK N   1      26.327  25.425  -5.602  0.00  0.00     0.030 A 
ENDBRANCH   2   9
TORSDOF 1
ENDMDL
MODEL 2
REMARK VINA RESULT:      -5.5     16.938     18.545
REMARK  1 active torsions:
REMARK  status: ('A' for Active; 'I' for Inactive)
REMARK    1  A    between atoms: N_2  and  C_3 
ROOT
HETATM    1  O   UNK N   1      19.389  13.476  10.194  0.00  0.00    -0.268 OA
HETATM    2  N   UNK N   1      21.490  13.808   9.374  0.00  0.00    -0.289 N 
HETATM    3  C   UNK N   1      22.818  13.495   9.483  0.00  0.00     0.107 A 
HETATM    4  C   UNK N   1      23.277  12.609  10.452  0.00  0.00    -0.046 A 
HETATM    5  C   UNK N   1      20.580  13.225  10.255  0.00  0.00     0.252 A 
HETATM    6  C   UNK N   1      22.374  12.025  11.333  0.00  0.00     0.013 A 
HETATM    7  C   UNK N   1      21.022  12.333  11.236  0.00  0.00     0.075 A 
HETATM    8  C   UNK N   1      24.725  12.292  10.541  0.00  0.00     0.049 C 
ENDROOT
BRANCH   2   9
HETATM    9  C   UNK N   1      21.099  14.745   8.331  0.00  0.00     0.042 A 
HETATM   10  C   UNK N   1      21.045  14.326   6.986  0.00  0.00     0.030 A 
HETATM   11  C   UNK N   1      20.671  15.214   5.975  0.00  0.00     0.002 A 
HETATM   12  C   UNK N   1      20.347  16.534   6.291  0.00  0.00     0.000 A 
HETATM   13  C   UNK N   1      20.395  16.967   7.616  0.00  0.00     0.002 A 
HETATM   14  C   UNK N   1      20.768  16.079   8.626  0.00  0.00     0.030 A 
ENDBRANCH   2   9
TORSDOF 1
ENDMDL
MODEL 3
REMARK VINA RESULT:      -5.4      2.370      3.237
REMARK  1 active torsions:
REMARK  status: ('A' for Active; 'I' for Inactive)
REMARK    1  A    between atoms: N_2  and  C_3 
ROOT
HETATM    1  O   UNK N   1      30.457  23.420  -1.831  0.00  0.00    -0.268 OA
HETATM    2  N   UNK N   1      29.595  23.194  -3.929  0.00  0.00    -0.289 N 
HETATM    3  C   UNK N   1      29.556  22.437  -5.070  0.00  0.00     0.107 A 
HETATM    4  C   UNK N   1      30.295  21.265  -5.187  0.00  0.00    -0.046 A 
HETATM    5  C   UNK N   1      30.393  22.777  -2.864  0.00  0.00     0.252 A 
HETATM    6  C   UNK N   1      31.092  20.845  -4.129  0.00  0.00     0.013 A 
HETATM    7  C   UNK N   1      31.143  21.602  -2.964  0.00  0.00     0.075 A 
HETATM    8  C   UNK N   1      30.229  20.469  -6.440  0.00  0.00     0.049 C 
ENDROOT
BRANCH   2   9
HETATM    9  C   UNK N   1      28.790  24.405  -3.893  0.00  0.00     0.042 A 
HETATM   10  C   UNK N   1      27.419  24.337  -3.571  0.00  0.00     0.030 A 
HETATM   11  C   UNK N   1      26.635  25.492  -3.533  0.00  0.00     0.002 A 
HETATM   12  C   UNK N   1      27.207  26.733  -3.816  0.00  0.00     0.000 A 
HETATM   13  C   UNK N   1      28.561  26.821  -4.137  0.00  0.00     0.002 A 
HETATM   14  C   UNK N   1      29.345  25.666  -4.175  0.00  0.00     0.030 A 
ENDBRANCH   2   9
TORSDOF 1
ENDMDL
MODEL 4
REMARK VINA RESULT:      -5.4      1.202      5.016
REMARK  1 active torsions:
REMARK  status: ('A' for Active; 'I' for Inactive)
REMARK    1  A    between atoms: N_2  and  C_3 
ROOT
HETATM    1  O   UNK N   1      26.653  23.578  -5.742  0.00  0.00    -0.268 OA
HETATM    2  N   UNK N   1      27.284  25.239  -4.315  0.00  0.00    -0.289 N 
HETATM    3  C   UNK N   1      27.057  26.519  -3.885  0.00  0.00     0.107 A 
HETATM    4  C   UNK N   1      26.050  27.302  -4.439  0.00  0.00    -0.046 A 
HETATM    5  C   UNK N   1      26.486  24.712  -5.329  0.00  0.00     0.252 A 
HETATM    6  C   UNK N   1      25.252  26.782  -5.450  0.00  0.00     0.013 A 
HETATM    7  C   UNK N   1      25.469  25.483  -5.898  0.00  0.00     0.075 A 
HETATM    8  C   UNK N   1      25.833  28.687  -3.947  0.00  0.00     0.049 C 
ENDROOT
BRANCH   2   9
HETATM    9  C   UNK N   1      28.359  24.492  -3.679  0.00  0.00     0.042 A 
HETATM   10  C   UNK N   1      29.688  24.645  -4.123  0.00  0.00     0.030 A 
HETATM   11  C   UNK N   1      30.729  23.934  -3.521  0.00  0.00     0.002 A 
HETATM   12  C   UNK N   1      30.459  23.059  -2.468  0.00  0.00     0.000 A 
HETATM   13  C   UNK N   1      29.150  22.894  -2.015  0.00  0.00     0.002 A 
HETATM   14  C   UNK N   1      28.110  23.605  -2.616  0.00  0.00     0.030 A 
ENDBRANCH   2   9
TORSDOF 1
ENDMDL
MODEL 5
REMARK VINA RESULT:      -5.2     22.867     25.250
REMARK  1 active torsions:
REMARK  status: ('A' for Active; 'I' for Inactive)
REMARK    1  A    between atoms: N_2  and  C_3 
ROOT
HETATM    1  O   UNK N   1      36.801  14.034  15.045  0.00  0.00    -0.268 OA
HETATM    2  N   UNK N   1      35.366  12.280  15.283  0.00  0.00    -0.289 N 
HETATM    3  C   UNK N   1      34.606  11.335  14.646  0.00  0.00     0.107 A 
HETATM    4  C   UNK N   1      34.563  11.254  13.258  0.00  0.00    -0.046 A 
HETATM    5  C   UNK N   1      36.111  13.178  14.520  0.00  0.00     0.252 A 
HETATM    6  C   UNK N   1      35.304  12.147  12.494  0.00  0.00     0.013 A 
HETATM    7  C   UNK N   1      36.081  13.112  13.125  0.00  0.00     0.075 A 
HETATM    8  C   UNK N   1      33.727  10.216  12.602  0.00  0.00     0.049 C 
ENDROOT
BRANCH   2   9
HETATM    9  C   UNK N   1      35.351  12.292  16.738  0.00  0.00     0.042 A 
HETATM   10  C   UNK N   1      35.104  13.492  17.435  0.00  0.00     0.030 A 
HETATM   11  C   UNK N   1      35.087  13.518  18.831  0.00  0.00     0.002 A 
HETATM   12  C   UNK N   1      35.317  12.346  19.553  0.00  0.00     0.000 A 
HETATM   13  C   UNK N   1      35.563  11.149  18.881  0.00  0.00     0.002 A 
HETATM   14  C   UNK N   1      35.580  11.123  17.485  0.00  0.00     0.030 A 
ENDBRANCH   2   9
TORSDOF 1
ENDMDL
MODEL 6
REMARK VINA RESULT:      -5.2     10.301     12.319
REMARK  1 active torsions:
REMARK  status: ('A' for Active; 'I' for Inactive)
REMARK    1  A    between atoms: N_2  and  C_3 
ROOT
HETATM    1  O   UNK N   1      29.901  17.089   4.439  0.00  0.00    -0.268 OA
HETATM    2  N   UNK N   1      28.700  18.191   6.031  0.00  0.00    -0.289 N 
HETATM    3  C   UNK N   1      28.609  18.539   7.353  0.00  0.00     0.107 A 
HETATM    4  C   UNK N   1      29.571  18.140   8.275  0.00  0.00    -0.046 A 
HETATM    5  C   UNK N   1      29.781  17.420   5.605  0.00  0.00     0.252 A 
HETATM    6  C   UNK N   1      30.650  17.372   7.855  0.00  0.00     0.013 A 
HETATM    7  C   UNK N   1      30.757  17.010   6.516  0.00  0.00     0.075 A 
HETATM    8  C   UNK N   1      29.440  18.536   9.701  0.00  0.00     0.049 C 
ENDROOT
BRANCH   2   9
HETATM    9  C   UNK N   1      27.649  18.652   5.137  0.00  0.00     0.042 A 
HETATM   10  C   UNK N   1      27.747  19.915   4.518  0.00  0.00     0.030 A 
HETATM   11  C   UNK N   1      26.746  20.370   3.657  0.00  0.00     0.002 A 
HETATM   12  C   UNK N   1      25.631  19.571   3.401  0.00  0.00     0.000 A 
HETATM   13  C   UNK N   1      25.516  18.318   4.004  0.00  0.00     0.002 A 
HETATM   14  C   UNK N   1      26.517  17.864   4.864  0.00  0.00     0.030 A 
ENDBRANCH   2   9
TORSDOF 1
ENDMDL
MODEL 7
REMARK VINA RESULT:      -5.1     24.408     26.157
REMARK  1 active torsions:
REMARK  status: ('A' for Active; 'I' for Inactive)
REMARK    1  A    between atoms: N_2  and  C_3 
ROOT
HETATM    1  O   UNK N   1      34.985   9.238  17.901  0.00  0.00    -0.268 OA
HETATM    2  N   UNK N   1      35.077  11.245  16.825  0.00  0.00    -0.289 N 
HETATM    3  C   UNK N   1      35.177  12.605  16.955  0.00  0.00     0.107 A 
HETATM    4  C   UNK N   1      35.274  13.208  18.205  0.00  0.00    -0.046 A 
HETATM    5  C   UNK N   1      35.073  10.452  17.971  0.00  0.00     0.252 A 
HETATM    6  C   UNK N   1      35.271  12.421  19.351  0.00  0.00     0.013 A 
HETATM    7  C   UNK N   1      35.170  11.039  19.235  0.00  0.00     0.075 A 
HETATM    8  C   UNK N   1      35.381  14.686  18.309  0.00  0.00     0.049 C 
ENDROOT
BRANCH   2   9
HETATM    9  C   UNK N   1      34.979  10.701  15.479  0.00  0.00     0.042 A 
HETATM   10  C   UNK N   1      33.799  10.874  14.727  0.00  0.00     0.030 A 
HETATM   11  C   UNK N   1      33.692  10.356  13.435  0.00  0.00     0.002 A 
HETATM   12  C   UNK N   1      34.761   9.657  12.873  0.00  0.00     0.000 A 
HETATM   13  C   UNK N   1      35.937   9.475  13.601  0.00  0.00     0.002 A 
HETATM   14  C   UNK N   1      36.044   9.993  14.893  0.00  0.00     0.030 A 
ENDBRANCH   2   9
TORSDOF 1
ENDMDL
MODEL 8
REMARK VINA RESULT:      -5.1     12.702     15.457
REMARK  1 active torsions:
REMARK  status: ('A' for Active; 'I' for Inactive)
REMARK    1  A    between atoms: N_2  and  C_3 
ROOT
HETATM    1  O   UNK N   1      30.001  18.685   9.794  0.00  0.00    -0.268 OA
HETATM    2  N   UNK N   1      30.569  17.663   7.838  0.00  0.00    -0.289 N 
HETATM    3  C   UNK N   1      30.168  17.313   6.577  0.00  0.00     0.107 A 
HETATM    4  C   UNK N   1      28.899  17.634   6.105  0.00  0.00    -0.046 A 
HETATM    5  C   UNK N   1      29.685  18.355   8.665  0.00  0.00     0.252 A 
HETATM    6  C   UNK N   1      28.014  18.323   6.924  0.00  0.00     0.013 A 
HETATM    7  C   UNK N   1      28.407  18.686   8.208  0.00  0.00     0.075 A 
HETATM    8  C   UNK N   1      28.498  17.238   4.730  0.00  0.00     0.049 C 
ENDROOT
BRANCH   2   9
HETATM    9  C   UNK N   1      31.914  17.287   8.249  0.00  0.00     0.042 A 
HETATM   10  C   UNK N   1      32.152  16.022   8.826  0.00  0.00     0.030 A 
HETATM   11  C   UNK N   1      33.437  15.649   9.225  0.00  0.00     0.002 A 
HETATM   12  C   UNK N   1      34.504  16.531   9.054  0.00  0.00     0.000 A 
HETATM   13  C   UNK N   1      34.288  17.787   8.485  0.00  0.00     0.002 A 
HETATM   14  C   UNK N   1      33.004  18.160   8.087  0.00  0.00     0.030 A 
ENDBRANCH   2   9
TORSDOF 1
ENDMDL
MODEL 9
REMARK VINA RESULT:      -5.1     13.107     14.722
REMARK  1 active torsions:
REMARK  status: ('A' for Active; 'I' for Inactive)
REMARK    1  A    between atoms: N_2  and  C_3 
ROOT
HETATM    1  O   UNK N   1      34.592  17.796   6.826  0.00  0.00    -0.268 OA
HETATM    2  N   UNK N   1      32.553  16.918   6.312  0.00  0.00    -0.289 N 
HETATM    3  C   UNK N   1      31.236  16.808   6.671  0.00  0.00     0.107 A 
HETATM    4  C   UNK N   1      30.741  17.433   7.811  0.00  0.00    -0.046 A 
HETATM    5  C   UNK N   1      33.413  17.673   7.109  0.00  0.00     0.252 A 
HETATM    6  C   UNK N   1      31.594  18.185   8.609  0.00  0.00     0.013 A 
HETATM    7  C   UNK N   1      32.935  18.307   8.258  0.00  0.00     0.075 A 
HETATM    8  C   UNK N   1      29.307  17.292   8.170  0.00  0.00     0.049 C 
ENDROOT
BRANCH   2   9
HETATM    9  C   UNK N   1      32.984  16.232   5.103  0.00  0.00     0.042 A 
HETATM   10  C   UNK N   1      32.866  16.864   3.848  0.00  0.00     0.030 A 
HETATM   11  C   UNK N   1      33.276  16.216   2.681  0.00  0.00     0.002 A 
HETATM   12  C   UNK N   1      33.810  14.929   2.748  0.00  0.00     0.000 A 
HETATM   13  C   UNK N   1      33.934  14.288   3.980  0.00  0.00     0.002 A 
HETATM   14  C   UNK N   1      33.525  14.935   5.147  0.00  0.00     0.030 A 
ENDBRANCH   2   9
TORSDOF 1
ENDMDL
