MODEL 1
REMARK VINA RESULT:      -6.5      0.000      0.000
REMARK  5 active torsions:
REMARK  status: ('A' for Active; 'I' for Inactive)
REMARK    1  A    between atoms: O_3  and  C_15 
REMARK    2  A    between atoms: N_5  and  C_13 
REMARK    3  A    between atoms: C_8  and  C_15 
REMARK    4  A    between atoms: C_9  and  C_14 
REMARK    5  A    between atoms: C_13  and  C_16 
ROOT
HETATM    1  N   UNK N   1      22.474  13.939   5.745  0.00  0.00     0.102 N 
HETATM    2  C   UNK N   1      21.506  14.741   6.492  0.00  0.00     0.238 C 
HETATM    3  C   UNK N   1      21.911  12.592   5.860  0.00  0.00     0.224 C 
HETATM    4  C   UNK N   1      21.600  14.475   8.031  0.00  0.00     0.127 C 
HETATM    5  C   UNK N   1      21.499  12.963   8.360  0.00  0.00     0.036 C 
HETATM    6  C   UNK N   1      22.104  12.041   7.286  0.00  0.00     0.046 C 
HETATM    7  C   UNK N   1      20.172  14.250   5.932  0.00  0.00     0.039 C 
HETATM    8  C   UNK N   1      20.429  12.789   5.572  0.00  0.00     0.038 C 
ENDROOT
BRANCH   5   9
HETATM    9  C   UNK N   1      22.048  12.619   9.721  0.00  0.00    -0.053 A 
HETATM   10  C   UNK N   1      23.433  12.569   9.922  0.00  0.00     0.010 A 
HETATM   11  C   UNK N   1      23.951  12.241  11.180  0.00  0.00     0.043 A 
HETATM   12  C   UNK N   1      23.088  11.986  12.249  0.00  0.00     0.116 A 
HETATM   13  F   UNK N   1      23.592  11.678  13.468  0.00  0.00    -0.206 F 
HETATM   14  C   UNK N   1      21.704  12.048  12.059  0.00  0.00     0.043 A 
HETATM   15  C   UNK N   1      21.185  12.354  10.797  0.00  0.00     0.010 A 
ENDBRANCH   5   9
BRANCH   4  16
HETATM   16  C   UNK N   1      20.526  15.230   8.795  0.00  0.00     0.265 C 
HETATM   17  O   UNK N   1      19.517  14.631   9.172  0.00  0.00    -0.265 OA
BRANCH  16  18
HETATM   18  O   UNK N   1      20.647  16.557   9.032  0.00  0.00    -0.326 OA
HETATM   19  C   UNK N   1      19.674  17.472   8.708  0.00  0.00     0.213 C 
ENDBRANCH  16  18
ENDBRANCH   4  16
BRANCH   1  20
HETATM   20  C   UNK N   1      23.866  14.071   6.194  0.00  0.00     0.301 C 
BRANCH  20  21
HETATM   21  C   UNK N   1      24.407  15.417   5.813  0.00  0.00     0.009 C 
HETATM   22  C   UNK N   1      24.844  15.651   4.577  0.00  0.00     0.048 C 
HETATM   23  I   UNK N   1      25.537  17.561   4.020  0.00  0.00    -0.057 I 
ENDBRANCH  20  21
ENDBRANCH   1  20
TORSDOF 5
ENDMDL
MODEL 2
REMARK VINA RESULT:      -6.3      1.506      2.182
REMARK  5 active torsions:
REMARK  status: ('A' for Active; 'I' for Inactive)
REMARK    1  A    between atoms: O_3  and  C_15 
REMARK    2  A    between atoms: N_5  and  C_13 
REMARK    3  A    between atoms: C_8  and  C_15 
REMARK    4  A    between atoms: C_9  and  C_14 
REMARK    5  A    between atoms: C_13  and  C_16 
ROOT
HETATM    1  N   UNK N   1      21.352  15.708   5.003  0.00  0.00     0.102 N 
HETATM    2  C   UNK N   1      20.591  16.427   6.024  0.00  0.00     0.238 C 
HETATM    3  C   UNK N   1      20.677  14.409   4.974  0.00  0.00     0.224 C 
HETATM    4  C   UNK N   1      20.878  15.872   7.458  0.00  0.00     0.127 C 
HETATM    5  C   UNK N   1      20.672  14.338   7.534  0.00  0.00     0.036 C 
HETATM    6  C   UNK N   1      21.018  13.589   6.234  0.00  0.00     0.046 C 
HETATM    7  C   UNK N   1      19.146  16.149   5.610  0.00  0.00     0.039 C 
HETATM    8  C   UNK N   1      19.197  14.766   4.967  0.00  0.00     0.038 C 
ENDROOT
BRANCH   5   9
HETATM    9  C   UNK N   1      21.375  13.707   8.708  0.00  0.00    -0.053 A 
HETATM   10  C   UNK N   1      20.629  13.223   9.790  0.00  0.00     0.010 A 
HETATM   11  C   UNK N   1      21.274  12.644  10.889  0.00  0.00     0.043 A 
HETATM   12  C   UNK N   1      22.666  12.524  10.902  0.00  0.00     0.116 A 
HETATM   13  F   UNK N   1      23.288  11.956  11.962  0.00  0.00    -0.206 F 
HETATM   14  C   UNK N   1      23.417  12.993   9.818  0.00  0.00     0.043 A 
HETATM   15  C   UNK N   1      22.775  13.591   8.730  0.00  0.00     0.010 A 
ENDBRANCH   5   9
BRANCH   4  16
HETATM   16  C   UNK N   1      20.010  16.551   8.504  0.00  0.00     0.265 C 
HETATM   17  O   UNK N   1      20.429  17.559   9.076  0.00  0.00    -0.265 OA
BRANCH  16  18
HETATM   18  O   UNK N   1      18.803  16.040   8.840  0.00  0.00    -0.326 OA
HETATM   19  C   UNK N   1      17.713  16.821   9.141  0.00  0.00     0.213 C 
ENDBRANCH  16  18
ENDBRANCH   4  16
BRANCH   1  20
HETATM   20  C   UNK N   1      22.801  15.650   5.238  0.00  0.00     0.301 C 
BRANCH  20  21
HETATM   21  C   UNK N   1      23.409  17.009   5.055  0.00  0.00     0.009 C 
HETATM   22  C   UNK N   1      24.434  17.191   4.225  0.00  0.00     0.048 C 
HETATM   23  I   UNK N   1      25.243  19.110   3.911  0.00  0.00    -0.057 I 
ENDBRANCH  20  21
ENDBRANCH   1  20
TORSDOF 5
ENDMDL
MODEL 3
REMARK VINA RESULT:      -6.0     16.546     19.321
REMARK  5 active torsions:
REMARK  status: ('A' for Active; 'I' for Inactive)
REMARK    1  A    between atoms: O_3  and  C_15 
REMARK    2  A    between atoms: N_5  and  C_13 
REMARK    3  A    between atoms: C_8  and  C_15 
REMARK    4  A    between atoms: C_9  and  C_14 
REMARK    5  A    between atoms: C_13  and  C_16 
ROOT
HETATM    1  N   UNK N   1      27.455  27.792  -5.329  0.00  0.00     0.102 N 
HETATM    2  C   UNK N   1      27.617  26.831  -4.238  0.00  0.00     0.238 C 
HETATM    3  C   UNK N   1      26.021  27.699  -5.610  0.00  0.00     0.224 C 
HETATM    4  C   UNK N   1      27.473  25.356  -4.741  0.00  0.00     0.127 C 
HETATM    5  C   UNK N   1      26.156  25.143  -5.530  0.00  0.00     0.036 C 
HETATM    6  C   UNK N   1      25.690  26.375  -6.326  0.00  0.00     0.046 C 
HETATM    7  C   UNK N   1      26.469  27.203  -3.301  0.00  0.00     0.039 C 
HETATM    8  C   UNK N   1      25.376  27.723  -4.231  0.00  0.00     0.038 C 
ENDROOT
BRANCH   5   9
HETATM    9  C   UNK N   1      26.191  23.925  -6.416  0.00  0.00    -0.053 A 
HETATM   10  C   UNK N   1      27.223  23.771  -7.349  0.00  0.00     0.010 A 
HETATM   11  C   UNK N   1      27.258  22.647  -8.183  0.00  0.00     0.043 A 
HETATM   12  C   UNK N   1      26.275  21.660  -8.071  0.00  0.00     0.116 A 
HETATM   13  F   UNK N   1      26.316  20.569  -8.873  0.00  0.00    -0.206 F 
HETATM   14  C   UNK N   1      25.249  21.801  -7.131  0.00  0.00     0.043 A 
HETATM   15  C   UNK N   1      25.200  22.933  -6.313  0.00  0.00     0.010 A 
ENDBRANCH   5   9
BRANCH   4  16
HETATM   16  C   UNK N   1      27.538  24.365  -3.591  0.00  0.00     0.265 C 
HETATM   17  O   UNK N   1      26.497  24.027  -3.024  0.00  0.00    -0.265 OA
BRANCH  16  18
HETATM   18  O   UNK N   1      28.726  23.881  -3.160  0.00  0.00    -0.326 OA
HETATM   19  C   UNK N   1      28.852  23.067  -2.059  0.00  0.00     0.213 C 
ENDBRANCH  16  18
ENDBRANCH   4  16
BRANCH   1  20
HETATM   20  C   UNK N   1      28.330  27.568  -6.487  0.00  0.00     0.301 C 
BRANCH  20  21
HETATM   21  C   UNK N   1      28.663  28.875  -7.143  0.00  0.00     0.009 C 
HETATM   22  C   UNK N   1      29.904  29.135  -7.551  0.00  0.00     0.048 C 
HETATM   23  I   UNK N   1      30.359  30.940  -8.538  0.00  0.00    -0.057 I 
ENDBRANCH  20  21
ENDBRANCH   1  20
TORSDOF 5
ENDMDL
MODEL 4
REMARK VINA RESULT:      -6.0     17.073     18.667
REMARK  5 active torsions:
REMARK  status: ('A' for Active; 'I' for Inactive)
REMARK    1  A    between atoms: O_3  and  C_15 
REMARK    2  A    between atoms: N_5  and  C_13 
REMARK    3  A    between atoms: C_8  and  C_15 
REMARK    4  A    between atoms: C_9  and  C_14 
REMARK    5  A    between atoms: C_13  and  C_16 
ROOT
HETATM    1  N   UNK N   1      26.339  26.044  -5.521  0.00  0.00     0.102 N 
HETATM    2  C   UNK N   1      27.633  26.692  -5.311  0.00  0.00     0.238 C 
HETATM    3  C   UNK N   1      26.032  25.530  -4.184  0.00  0.00     0.224 C 
HETATM    4  C   UNK N   1      28.774  25.645  -5.089  0.00  0.00     0.127 C 
HETATM    5  C   UNK N   1      28.423  24.641  -3.961  0.00  0.00     0.036 C 
HETATM    6  C   UNK N   1      26.923  24.318  -3.848  0.00  0.00     0.046 C 
HETATM    7  C   UNK N   1      27.388  27.510  -4.044  0.00  0.00     0.039 C 
HETATM    8  C   UNK N   1      26.363  26.694  -3.260  0.00  0.00     0.038 C 
ENDROOT
BRANCH   5   9
HETATM    9  C   UNK N   1      29.232  23.372  -4.031  0.00  0.00    -0.053 A 
HETATM   10  C   UNK N   1      29.293  22.648  -5.228  0.00  0.00     0.010 A 
HETATM   11  C   UNK N   1      30.034  21.462  -5.298  0.00  0.00     0.043 A 
HETATM   12  C   UNK N   1      30.738  21.008  -4.179  0.00  0.00     0.116 A 
HETATM   13  F   UNK N   1      31.462  19.866  -4.252  0.00  0.00    -0.206 F 
HETATM   14  C   UNK N   1      30.693  21.733  -2.985  0.00  0.00     0.043 A 
HETATM   15  C   UNK N   1      29.935  22.906  -2.907  0.00  0.00     0.010 A 
ENDBRANCH   5   9
BRANCH   4  16
HETATM   16  C   UNK N   1      30.098  26.321  -4.769  0.00  0.00     0.265 C 
HETATM   17  O   UNK N   1      30.811  26.720  -5.692  0.00  0.00    -0.265 OA
BRANCH  16  18
HETATM   18  O   UNK N   1      30.517  26.454  -3.489  0.00  0.00    -0.326 OA
HETATM   19  C   UNK N   1      31.097  27.602  -3.003  0.00  0.00     0.213 C 
ENDBRANCH  16  18
ENDBRANCH   4  16
BRANCH   1  20
HETATM   20  C   UNK N   1      26.315  25.040  -6.592  0.00  0.00     0.301 C 
BRANCH  20  21
HETATM   21  C   UNK N   1      25.946  25.684  -7.896  0.00  0.00     0.009 C 
HETATM   22  C   UNK N   1      25.724  24.946  -8.981  0.00  0.00     0.048 C 
HETATM   23  I   UNK N   1      25.137  25.842 -10.795  0.00  0.00    -0.057 I 
ENDBRANCH  20  21
ENDBRANCH   1  20
TORSDOF 5
ENDMDL
MODEL 5
REMARK VINA RESULT:      -5.9      1.514      1.965
REMARK  5 active torsions:
REMARK  status: ('A' for Active; 'I' for Inactive)
REMARK    1  A    between atoms: O_3  and  C_15 
REMARK    2  A    between atoms: N_5  and  C_13 
REMARK    3  A    between atoms: C_8  and  C_15 
REMARK    4  A    between atoms: C_9  and  C_14 
REMARK    5  A    between atoms: C_13  and  C_16 
ROOT
HETATM    1  N   UNK N   1      24.061  12.746   5.830  0.00  0.00     0.102 N 
HETATM    2  C   UNK N   1      22.891  13.549   6.182  0.00  0.00     0.238 C 
HETATM    3  C   UNK N   1      23.583  11.383   6.075  0.00  0.00     0.224 C 
HETATM    4  C   UNK N   1      22.639  13.559   7.726  0.00  0.00     0.127 C 
HETATM    5  C   UNK N   1      22.570  12.124   8.307  0.00  0.00     0.036 C 
HETATM    6  C   UNK N   1      23.474  11.107   7.587  0.00  0.00     0.046 C 
HETATM    7  C   UNK N   1      21.763  12.823   5.449  0.00  0.00     0.039 C 
HETATM    8  C   UNK N   1      22.200  11.361   5.439  0.00  0.00     0.038 C 
ENDROOT
BRANCH   5   9
HETATM    9  C   UNK N   1      22.808  12.079   9.795  0.00  0.00    -0.053 A 
HETATM   10  C   UNK N   1      21.719  12.026  10.674  0.00  0.00     0.010 A 
HETATM   11  C   UNK N   1      21.930  11.994  12.057  0.00  0.00     0.043 A 
HETATM   12  C   UNK N   1      23.231  11.990  12.568  0.00  0.00     0.116 A 
HETATM   13  F   UNK N   1      23.433  11.950  13.907  0.00  0.00    -0.206 F 
HETATM   14  C   UNK N   1      24.323  12.029  11.696  0.00  0.00     0.043 A 
HETATM   15  C   UNK N   1      24.113  12.083  10.315  0.00  0.00     0.010 A 
ENDBRANCH   5   9
BRANCH   4  16
HETATM   16  C   UNK N   1      21.365  14.308   8.080  0.00  0.00     0.265 C 
HETATM   17  O   UNK N   1      20.301  13.689   8.155  0.00  0.00    -0.265 OA
BRANCH  16  18
HETATM   18  O   UNK N   1      21.378  15.647   8.275  0.00  0.00    -0.326 OA
HETATM   19  C   UNK N   1      20.240  16.390   8.474  0.00  0.00     0.213 C 
ENDBRANCH  16  18
ENDBRANCH   4  16
BRANCH   1  20
HETATM   20  C   UNK N   1      25.296  13.107   6.539  0.00  0.00     0.301 C 
BRANCH  20  21
HETATM   21  C   UNK N   1      26.155  13.976   5.668  0.00  0.00     0.009 C 
HETATM   22  C   UNK N   1      26.387  13.650   4.398  0.00  0.00     0.048 C 
HETATM   23  I   UNK N   1      27.535  14.904   3.154  0.00  0.00    -0.057 I 
ENDBRANCH  20  21
ENDBRANCH   1  20
TORSDOF 5
ENDMDL
MODEL 6
REMARK VINA RESULT:      -5.7      7.147      9.080
REMARK  5 active torsions:
REMARK  status: ('A' for Active; 'I' for Inactive)
REMARK    1  A    between atoms: O_3  and  C_15 
REMARK    2  A    between atoms: N_5  and  C_13 
REMARK    3  A    between atoms: C_8  and  C_15 
REMARK    4  A    between atoms: C_9  and  C_14 
REMARK    5  A    between atoms: C_13  and  C_16 
ROOT
HETATM    1  N   UNK N   1      28.664  15.808   5.535  0.00  0.00     0.102 N 
HETATM    2  C   UNK N   1      28.752  17.001   6.376  0.00  0.00     0.238 C 
HETATM    3  C   UNK N   1      29.105  16.315   4.234  0.00  0.00     0.224 C 
HETATM    4  C   UNK N   1      27.634  18.038   6.028  0.00  0.00     0.127 C 
HETATM    5  C   UNK N   1      27.613  18.377   4.516  0.00  0.00     0.036 C 
HETATM    6  C   UNK N   1      28.020  17.209   3.601  0.00  0.00     0.046 C 
HETATM    7  C   UNK N   1      30.134  17.549   6.021  0.00  0.00     0.039 C 
HETATM    8  C   UNK N   1      30.338  17.145   4.564  0.00  0.00     0.038 C 
ENDROOT
BRANCH   5   9
HETATM    9  C   UNK N   1      26.303  18.970   4.064  0.00  0.00    -0.053 A 
HETATM   10  C   UNK N   1      25.096  18.423   4.517  0.00  0.00     0.010 A 
HETATM   11  C   UNK N   1      23.876  18.961   4.094  0.00  0.00     0.043 A 
HETATM   12  C   UNK N   1      23.855  20.063   3.235  0.00  0.00     0.116 A 
HETATM   13  F   UNK N   1      22.672  20.588   2.835  0.00  0.00    -0.206 F 
HETATM   14  C   UNK N   1      25.056  20.624   2.790  0.00  0.00     0.043 A 
HETATM   15  C   UNK N   1      26.276  20.073   3.194  0.00  0.00     0.010 A 
ENDBRANCH   5   9
BRANCH   4  16
HETATM   16  C   UNK N   1      27.790  19.319   6.831  0.00  0.00     0.265 C 
HETATM   17  O   UNK N   1      27.822  19.260   8.062  0.00  0.00    -0.265 OA
BRANCH  16  18
HETATM   18  O   UNK N   1      27.856  20.521   6.213  0.00  0.00    -0.326 OA
HETATM   19  C   UNK N   1      27.010  21.564   6.506  0.00  0.00     0.213 C 
ENDBRANCH  16  18
ENDBRANCH   4  16
BRANCH   1  20
HETATM   20  C   UNK N   1      27.351  15.149   5.531  0.00  0.00     0.301 C 
BRANCH  20  21
HETATM   21  C   UNK N   1      27.396  13.912   4.684  0.00  0.00     0.009 C 
HETATM   22  C   UNK N   1      26.533  13.739   3.685  0.00  0.00     0.048 C 
HETATM   23  I   UNK N   1      26.640  12.037   2.448  0.00  0.00    -0.057 I 
ENDBRANCH  20  21
ENDBRANCH   1  20
TORSDOF 5
ENDMDL
MODEL 7
REMARK VINA RESULT:      -5.6      7.622      9.297
REMARK  5 active torsions:
REMARK  status: ('A' for Active; 'I' for Inactive)
REMARK    1  A    between atoms: O_3  and  C_15 
REMARK    2  A    between atoms: N_5  and  C_13 
REMARK    3  A    between atoms: C_8  and  C_15 
REMARK    4  A    between atoms: C_9  and  C_14 
REMARK    5  A    between atoms: C_13  and  C_16 
ROOT
HETATM    1  N   UNK N   1      29.680  15.437   5.290  0.00  0.00     0.102 N 
HETATM    2  C   UNK N   1      29.519  16.360   6.413  0.00  0.00     0.238 C 
HETATM    3  C   UNK N   1      30.186  16.320   4.237  0.00  0.00     0.224 C 
HETATM    4  C   UNK N   1      28.316  17.336   6.192  0.00  0.00     0.127 C 
HETATM    5  C   UNK N   1      28.411  18.068   4.830  0.00  0.00     0.036 C 
HETATM    6  C   UNK N   1      29.066  17.239   3.711  0.00  0.00     0.046 C 
HETATM    7  C   UNK N   1      30.846  17.119   6.405  0.00  0.00     0.039 C 
HETATM    8  C   UNK N   1      31.256  17.148   4.935  0.00  0.00     0.038 C 
ENDROOT
BRANCH   5   9
HETATM    9  C   UNK N   1      27.090  18.627   4.368  0.00  0.00    -0.053 A 
HETATM   10  C   UNK N   1      27.041  19.884   3.753  0.00  0.00     0.010 A 
HETATM   11  C   UNK N   1      25.816  20.415   3.331  0.00  0.00     0.043 A 
HETATM   12  C   UNK N   1      24.639  19.681   3.497  0.00  0.00     0.116 A 
HETATM   13  F   UNK N   1      23.456  20.192   3.079  0.00  0.00    -0.206 F 
HETATM   14  C   UNK N   1      24.683  18.418   4.097  0.00  0.00     0.043 A 
HETATM   15  C   UNK N   1      25.902  17.897   4.540  0.00  0.00     0.010 A 
ENDBRANCH   5   9
BRANCH   4  16
HETATM   16  C   UNK N   1      28.214  18.360   7.310  0.00  0.00     0.265 C 
HETATM   17  O   UNK N   1      28.302  19.559   7.040  0.00  0.00    -0.265 OA
BRANCH  16  18
HETATM   18  O   UNK N   1      28.066  17.969   8.597  0.00  0.00    -0.326 OA
HETATM   19  C   UNK N   1      29.020  18.185   9.563  0.00  0.00     0.213 C 
ENDBRANCH  16  18
ENDBRANCH   4  16
BRANCH   1  20
HETATM   20  C   UNK N   1      28.475  14.676   4.937  0.00  0.00     0.301 C 
BRANCH  20  21
HETATM   21  C   UNK N   1      28.830  13.542   4.020  0.00  0.00     0.009 C 
HETATM   22  C   UNK N   1      28.261  13.431   2.822  0.00  0.00     0.048 C 
HETATM   23  I   UNK N   1      28.810  11.882   1.505  0.00  0.00    -0.057 I 
ENDBRANCH  20  21
ENDBRANCH   1  20
TORSDOF 5
ENDMDL
MODEL 8
REMARK VINA RESULT:      -5.6      5.407      7.270
REMARK  5 active torsions:
REMARK  status: ('A' for Active; 'I' for Inactive)
REMARK    1  A    between atoms: O_3  and  C_15 
REMARK    2  A    between atoms: N_5  and  C_13 
REMARK    3  A    between atoms: C_8  and  C_15 
REMARK    4  A    between atoms: C_9  and  C_14 
REMARK    5  A    between atoms: C_13  and  C_16 
ROOT
HETATM    1  N   UNK N   1      20.792  15.656   3.049  0.00  0.00     0.102 N 
HETATM    2  C   UNK N   1      20.343  16.895   3.683  0.00  0.00     0.238 C 
HETATM    3  C   UNK N   1      21.625  15.059   4.095  0.00  0.00     0.224 C 
HETATM    4  C   UNK N   1      21.506  17.933   3.813  0.00  0.00     0.127 C 
HETATM    5  C   UNK N   1      22.747  17.323   4.513  0.00  0.00     0.036 C 
HETATM    6  C   UNK N   1      22.956  15.824   4.235  0.00  0.00     0.046 C 
HETATM    7  C   UNK N   1      19.887  16.411   5.060  0.00  0.00     0.039 C 
HETATM    8  C   UNK N   1      20.794  15.221   5.361  0.00  0.00     0.038 C 
ENDROOT
BRANCH   5   9
HETATM    9  C   UNK N   1      24.014  18.092   4.240  0.00  0.00    -0.053 A 
HETATM   10  C   UNK N   1      25.249  17.565   4.638  0.00  0.00     0.010 A 
HETATM   11  C   UNK N   1      26.430  18.277   4.397  0.00  0.00     0.043 A 
HETATM   12  C   UNK N   1      26.384  19.507   3.735  0.00  0.00     0.116 A 
HETATM   13  F   UNK N   1      27.529  20.190   3.495  0.00  0.00    -0.206 F 
HETATM   14  C   UNK N   1      25.156  20.032   3.322  0.00  0.00     0.043 A 
HETATM   15  C   UNK N   1      23.974  19.332   3.582  0.00  0.00     0.010 A 
ENDBRANCH   5   9
BRANCH   4  16
HETATM   16  C   UNK N   1      21.063  19.177   4.564  0.00  0.00     0.265 C 
HETATM   17  O   UNK N   1      21.175  19.214   5.791  0.00  0.00    -0.265 OA
BRANCH  16  18
HETATM   18  O   UNK N   1      20.516  20.226   3.908  0.00  0.00    -0.326 OA
HETATM   19  C   UNK N   1      20.694  20.449   2.563  0.00  0.00     0.213 C 
ENDBRANCH  16  18
ENDBRANCH   4  16
BRANCH   1  20
HETATM   20  C   UNK N   1      21.456  15.831   1.751  0.00  0.00     0.301 C 
BRANCH  20  21
HETATM   21  C   UNK N   1      21.778  14.494   1.151  0.00  0.00     0.009 C 
HETATM   22  C   UNK N   1      23.030  14.178   0.824  0.00  0.00     0.048 C 
HETATM   23  I   UNK N   1      23.496  12.276   0.048  0.00  0.00    -0.057 I 
ENDBRANCH  20  21
ENDBRANCH   1  20
TORSDOF 5
ENDMDL
MODEL 9
REMARK VINA RESULT:      -5.6      4.923      7.399
REMARK  5 active torsions:
REMARK  status: ('A' for Active; 'I' for Inactive)
REMARK    1  A    between atoms: O_3  and  C_15 
REMARK    2  A    between atoms: N_5  and  C_13 
REMARK    3  A    between atoms: C_8  and  C_15 
REMARK    4  A    between atoms: C_9  and  C_14 
REMARK    5  A    between atoms: C_13  and  C_16 
ROOT
HETATM    1  N   UNK N   1      22.543  14.304   4.760  0.00  0.00     0.102 N 
HETATM    2  C   UNK N   1      21.978  15.099   5.850  0.00  0.00     0.238 C 
HETATM    3  C   UNK N   1      23.791  15.016   4.477  0.00  0.00     0.224 C 
HETATM    4  C   UNK N   1      21.461  16.487   5.346  0.00  0.00     0.127 C 
HETATM    5  C   UNK N   1      22.551  17.254   4.555  0.00  0.00     0.036 C 
HETATM    6  C   UNK N   1      23.508  16.349   3.759  0.00  0.00     0.046 C 
HETATM    7  C   UNK N   1      23.174  15.268   6.786  0.00  0.00     0.039 C 
HETATM    8  C   UNK N   1      24.383  15.279   5.855  0.00  0.00     0.038 C 
ENDROOT
BRANCH   5   9
HETATM    9  C   UNK N   1      21.984  18.333   3.668  0.00  0.00    -0.053 A 
HETATM   10  C   UNK N   1      20.738  18.150   3.056  0.00  0.00     0.010 A 
HETATM   11  C   UNK N   1      20.210  19.142   2.222  0.00  0.00     0.043 A 
HETATM   12  C   UNK N   1      20.912  20.332   2.016  0.00  0.00     0.116 A 
HETATM   13  F   UNK N   1      20.394  21.295   1.217  0.00  0.00    -0.206 F 
HETATM   14  C   UNK N   1      22.151  20.528   2.636  0.00  0.00     0.043 A 
HETATM   15  C   UNK N   1      22.690  19.528   3.451  0.00  0.00     0.010 A 
ENDBRANCH   5   9
BRANCH   4  16
HETATM   16  C   UNK N   1      20.969  17.351   6.496  0.00  0.00     0.265 C 
HETATM   17  O   UNK N   1      21.520  18.431   6.718  0.00  0.00    -0.265 OA
BRANCH  16  18
HETATM   18  O   UNK N   1      19.962  16.932   7.297  0.00  0.00    -0.326 OA
HETATM   19  C   UNK N   1      20.066  16.870   8.666  0.00  0.00     0.213 C 
ENDBRANCH  16  18
ENDBRANCH   4  16
BRANCH   1  20
HETATM   20  C   UNK N   1      21.657  14.121   3.604  0.00  0.00     0.301 C 
BRANCH  20  21
HETATM   21  C   UNK N   1      22.285  13.183   2.615  0.00  0.00     0.009 C 
HETATM   22  C   UNK N   1      22.556  13.583   1.374  0.00  0.00     0.048 C 
HETATM   23  I   UNK N   1      23.503  12.292   0.006  0.00  0.00    -0.057 I 
ENDBRANCH  20  21
ENDBRANCH   1  20
TORSDOF 5
ENDMDL
