MODEL 1
REMARK VINA RESULT:      -6.9      0.000      0.000
REMARK WARNING: 32 MAX_TORS EXCEEDED!!!
REMARK  55 active torsions:
REMARK  status: ('A' for Active; 'I' for Inactive)
REMARK    1  A    between atoms: O_12  and  C_101 
REMARK    2  A    between atoms: O_13  and  C_105 
REMARK    3  A    between atoms: O_17  and  C_115 
REMARK    4  A    between atoms: O_18  and  C_118 
REMARK       I    between atoms: N_20  and  C_47 
REMARK       I    between atoms: N_21  and  C_48 
REMARK    5  A    between atoms: C_51  and  N_21 
REMARK    6  A    between atoms: C_49  and  N_22 
REMARK       I    between atoms: N_22  and  C_58 
REMARK       I    between atoms: N_23  and  C_55 
REMARK    7  A    between atoms: N_24  and  C_59 
REMARK    8  A    between atoms: N_25  and  C_60 
REMARK       I    between atoms: N_25  and  C_62 
REMARK    9  A    between atoms: C_61  and  N_26 
REMARK       I    between atoms: N_26  and  C_66 
REMARK   10  A    between atoms: C_65  and  N_27 
REMARK       I    between atoms: N_27  and  C_73 
REMARK   11  A    between atoms: C_72  and  N_29 
REMARK       I    between atoms: N_29  and  C_81 
REMARK   12  A    between atoms: C_77  and  N_30 
REMARK       I    between atoms: N_30  and  C_87 
REMARK   13  A    between atoms: C_79  and  N_31 
REMARK       I    between atoms: N_31  and  C_89 
REMARK   14  A    between atoms: N_32  and  C_75 
REMARK       I    between atoms: N_32  and  C_98 
REMARK   15  A    between atoms: C_80  and  N_33 
REMARK       I    between atoms: N_33  and  C_95 
REMARK   16  A    between atoms: C_94  and  N_35 
REMARK       I    between atoms: N_35  and  C_106 
REMARK   17  A    between atoms: C_102  and  N_38 
REMARK       I    between atoms: N_38  and  C_111 
REMARK       I    between atoms: N_39  and  C_98 
REMARK   18  A    between atoms: C_112  and  N_42 
REMARK       I    between atoms: N_42  and  C_119 
REMARK   19  A    between atoms: C_43  and  C_48 
REMARK   20  A    between atoms: C_47  and  C_49 
REMARK   21  A    between atoms: C_49  and  C_50 
REMARK   22  A    between atoms: C_50  and  C_52 
REMARK   23  A    between atoms: C_51  and  C_53 
REMARK   24  A    between atoms: C_51  and  C_55 
REMARK   25  A    between atoms: C_52  and  C_54 
REMARK   26  A    between atoms: C_54  and  C_59 
REMARK   27  A    between atoms: C_58  and  C_60 
REMARK   28  A    between atoms: C_61  and  C_62 
REMARK   29  A    between atoms: C_61  and  C_63 
REMARK   30  A    between atoms: C_63  and  C_64 
REMARK   31  A    between atoms: C_65  and  C_66 
REMARK   32  A    between atoms: C_65  and  C_67 
REMARK   33  A    between atoms: C_67  and  C_71 
REMARK   34  A    between atoms: C_71  and  C_75 
REMARK   35  A    between atoms: C_72  and  C_73 
REMARK   36  A    between atoms: C_72  and  C_76 
REMARK   37  A    between atoms: C_76  and  C_88 
REMARK   38  A    between atoms: C_77  and  C_81 
REMARK   39  A    between atoms: C_77  and  C_84 
REMARK   40  A    between atoms: C_79  and  C_86 
REMARK   41  A    between atoms: C_79  and  C_87 
REMARK   42  A    between atoms: C_80  and  C_83 
REMARK   43  A    between atoms: C_80  and  C_89 
REMARK   44  A    between atoms: C_83  and  C_90 
REMARK   45  A    between atoms: C_84  and  C_91 
REMARK   46  A    between atoms: C_86  and  C_92 
REMARK   47  A    between atoms: C_90  and  C_93 
REMARK   48  A    between atoms: C_92  and  C_105 
REMARK   49  A    between atoms: C_94  and  C_95 
REMARK   50  A    between atoms: C_94  and  C_101 
REMARK   51  A    between atoms: C_102  and  C_106 
REMARK   52  A    between atoms: C_102  and  C_107 
REMARK   53  A    between atoms: C_107  and  C_110 
REMARK   54  A    between atoms: C_111  and  C_112 
REMARK   55  A    between atoms: C_112  and  C_115 
ROOT
HETATM    1  C   UNK N   1      25.242  18.529   4.820  0.00  0.00     0.180 C 
ENDROOT
BRANCH   1   2
HETATM    2  N   UNK N   1      26.138  19.476   5.464  0.00  0.00    -0.346 N 
HETATM    3  C   UNK N   1      27.410  19.229   5.898  0.00  0.00     0.241 C 
HETATM    4  O   UNK N   1      28.033  20.131   6.430  0.00  0.00    -0.271 OA
HETATM    5  H   UNK N   1      25.793  20.388   5.601  0.00  0.00     0.163 HD
BRANCH   3   6
HETATM    6  C   UNK N   1      28.039  17.858   5.868  0.00  0.00     0.182 C 
BRANCH   6   7
HETATM    7  N   UNK N   1      29.445  17.945   5.603  0.00  0.00    -0.346 N 
HETATM    8  C   UNK N   1      30.119  17.197   4.700  0.00  0.00     0.241 C 
HETATM    9  O   UNK N   1      29.560  16.353   4.016  0.00  0.00    -0.271 OA
HETATM   10  H   UNK N   1      29.961  18.604   6.120  0.00  0.00     0.163 HD
BRANCH   8  11
HETATM   11  C   UNK N   1      31.573  17.424   4.613  0.00  0.00     0.177 C 
BRANCH  11  12
HETATM   12  N   UNK N   1      32.200  16.691   5.677  0.00  0.00    -0.346 N 
HETATM   13  C   UNK N   1      33.355  17.066   6.294  0.00  0.00     0.241 C 
HETATM   14  O   UNK N   1      33.912  18.118   6.012  0.00  0.00    -0.271 OA
HETATM   15  H   UNK N   1      31.765  15.863   5.982  0.00  0.00     0.163 HD
BRANCH  13  16
HETATM   16  C   UNK N   1      33.984  16.127   7.276  0.00  0.00     0.176 C 
BRANCH  16  17
HETATM   17  N   UNK N   1      33.063  15.861   8.369  0.00  0.00    -0.346 N 
HETATM   18  C   UNK N   1      33.452  15.361   9.575  0.00  0.00     0.243 C 
HETATM   19  O   UNK N   1      32.621  15.229  10.459  0.00  0.00    -0.271 OA
HETATM   20  H   UNK N   1      32.109  16.054   8.230  0.00  0.00     0.163 HD
BRANCH  18  21
HETATM   21  C   UNK N   1      34.901  14.997   9.840  0.00  0.00     0.200 C 
BRANCH  21  22
HETATM   22  N   UNK N   1      34.942  13.758  10.570  0.00  0.00    -0.344 N 
HETATM   23  C   UNK N   1      35.813  12.781  10.236  0.00  0.00     0.241 C 
HETATM   24  O   UNK N   1      36.532  12.889   9.254  0.00  0.00    -0.271 OA
HETATM   25  H   UNK N   1      34.325  13.620  11.325  0.00  0.00     0.163 HD
BRANCH  23  26
HETATM   26  C   UNK N   1      35.911  11.568  11.059  0.00  0.00     0.180 C 
BRANCH  26  27
HETATM   27  N   UNK N   1      36.532  11.782  12.332  0.00  0.00    -0.346 N 
HETATM   28  C   UNK N   1      35.809  12.198  13.399  0.00  0.00     0.243 C 
HETATM   29  O   UNK N   1      34.597  12.338  13.322  0.00  0.00    -0.271 OA
HETATM   30  H   UNK N   1      37.498  11.624  12.433  0.00  0.00     0.163 HD
BRANCH  28  31
HETATM   31  C   UNK N   1      36.511  12.558  14.659  0.00  0.00     0.200 C 
BRANCH  31  32
HETATM   32  N   UNK N   1      35.724  12.054  15.759  0.00  0.00    -0.346 N 
HETATM   33  C   UNK N   1      36.053  10.926  16.430  0.00  0.00     0.214 C 
HETATM   34  O   UNK N   1      37.051  10.288  16.129  0.00  0.00    -0.274 OA
HETATM   35  C   UNK N   1      35.167  10.438  17.522  0.00  0.00     0.117 C 
HETATM   36  H   UNK N   1      34.917  12.549  16.032  0.00  0.00     0.163 HD
ENDBRANCH  31  32
BRANCH  31  37
HETATM   37  C   UNK N   1      36.654  14.069  14.781  0.00  0.00     0.199 C 
BRANCH  37  38
HETATM   38  O   UNK N   1      36.762  14.649  13.516  0.00  0.00    -0.398 OA
HETATM   39  H   UNK N   1      36.113  15.269  13.149  0.00  0.00     0.209 HD
ENDBRANCH  37  38
ENDBRANCH  31  37
ENDBRANCH  28  31
ENDBRANCH  26  27
BRANCH  26  40
HETATM   40  C   UNK N   1      36.168  10.233  10.394  0.00  0.00     0.073 C 
BRANCH  40  41
HETATM   41  C   UNK N   1      34.844   9.816   9.891  0.00  0.00    -0.056 A 
HETATM   42  C   UNK N   1      33.791   9.646  10.793  0.00  0.00     0.010 A 
HETATM   43  C   UNK N   1      32.496   9.451  10.317  0.00  0.00     0.037 A 
HETATM   44  C   UNK N   1      32.251   9.441   8.941  0.00  0.00     0.065 A 
HETATM   45  C   UNK N   1      33.306   9.601   8.038  0.00  0.00     0.037 A 
HETATM   46  C   UNK N   1      34.602   9.800   8.513  0.00  0.00     0.010 A 
BRANCH  44  47
HETATM   47  O   UNK N   1      30.999   9.288   8.486  0.00  0.00    -0.361 OA
HETATM   48  H   UNK N   1      30.236   9.044   8.973  0.00  0.00     0.217 HD
ENDBRANCH  44  47
ENDBRANCH  40  41
ENDBRANCH  26  40
ENDBRANCH  23  26
ENDBRANCH  21  22
BRANCH  21  49
HETATM   49  C   UNK N   1      35.711  16.088  10.540  0.00  0.00     0.199 C 
BRANCH  49  50
HETATM   50  O   UNK N   1      34.943  17.249  10.654  0.00  0.00    -0.398 OA
HETATM   51  H   UNK N   1      34.426  17.722  11.325  0.00  0.00     0.209 HD
ENDBRANCH  49  50
ENDBRANCH  21  49
ENDBRANCH  18  21
ENDBRANCH  16  17
BRANCH  16  52
HETATM   52  C   UNK N   1      34.203  14.823   6.516  0.00  0.00     0.035 C 
BRANCH  52  53
HETATM   53  C   UNK N   1      35.621  14.654   6.011  0.00  0.00     0.002 C 
BRANCH  53  54
HETATM   54  C   UNK N   1      35.675  13.566   4.957  0.00  0.00    -0.004 C 
HETATM   55  C   UNK N   1      35.792  12.212   5.625  0.00  0.00     0.005 C 
ENDBRANCH  53  54
ENDBRANCH  52  53
ENDBRANCH  16  52
ENDBRANCH  13  16
ENDBRANCH  11  12
BRANCH  11  56
HETATM   56  C   UNK N   1      32.258  17.227   3.279  0.00  0.00     0.045 C 
BRANCH  56  57
HETATM   57  C   UNK N   1      33.180  16.035   3.486  0.00  0.00     0.112 C 
BRANCH  57  58
HETATM   58  C   UNK N   1      32.685  14.764   2.881  0.00  0.00     0.139 C 
HETATM   59  O   UNK N   1      33.381  14.183   2.064  0.00  0.00    -0.650 OA
BRANCH  58  60
HETATM   60  O   UNK N   1      31.492  14.248   3.231  0.00  0.00    -0.776 OA
HETATM   61  H   UNK N   1      30.831  13.627   3.463  0.00  0.00     0.167 HD
ENDBRANCH  58  60
ENDBRANCH  57  58
ENDBRANCH  56  57
ENDBRANCH  11  56
ENDBRANCH   8  11
ENDBRANCH   6   7
BRANCH   6  62
HETATM   62  C   UNK N   1      27.859  17.045   7.147  0.00  0.00     0.093 C 
BRANCH  62  63
HETATM   63  C   UNK N   1      28.735  17.507   8.263  0.00  0.00     0.028 A 
HETATM   64  N   UNK N   1      28.465  18.543   9.069  0.00  0.00    -0.354 N 
HETATM   65  C   UNK N   1      29.480  18.566   9.956  0.00  0.00     0.180 A 
HETATM   66  H   UNK N   1      27.695  19.155   9.024  0.00  0.00     0.166 HD
HETATM   67  N   UNK N   1      30.360  17.568   9.734  0.00  0.00    -0.360 N 
HETATM   68  C   UNK N   1      29.889  16.893   8.671  0.00  0.00     0.114 A 
ATOM     69  HN  UNK N   1      31.209  17.368  10.263  1.00  0.00     0.166 HD
ENDBRANCH  62  63
ENDBRANCH   6  62
ENDBRANCH   3   6
ENDBRANCH   1   2
BRANCH   1  70
HETATM   70  C   UNK N   1      25.772  18.017   3.508  0.00  0.00     0.241 C 
HETATM   71  O   UNK N   1      26.355  18.801   2.777  0.00  0.00    -0.271 OA
HETATM   72  N   UNK N   1      25.661  16.721   3.118  0.00  0.00    -0.346 N 
HETATM   73  H   UNK N   1      26.090  16.478   2.266  0.00  0.00     0.163 HD
BRANCH  72  74
HETATM   74  C   UNK N   1      24.971  15.656   3.830  0.00  0.00     0.176 C 
BRANCH  74  75
HETATM   75  C   UNK N   1      25.898  14.508   4.161  0.00  0.00     0.241 C 
HETATM   76  O   UNK N   1      26.996  14.456   3.632  0.00  0.00    -0.271 OA
HETATM   77  N   UNK N   1      25.530  13.520   5.010  0.00  0.00    -0.346 N 
HETATM   78  H   UNK N   1      26.145  12.763   5.146  0.00  0.00     0.163 HD
BRANCH  77  79
HETATM   79  C   UNK N   1      24.275  13.529   5.725  0.00  0.00     0.181 C 
BRANCH  79  80
HETATM   80  C   UNK N   1      23.167  12.641   5.238  0.00  0.00     0.241 C 
HETATM   81  O   UNK N   1      22.064  13.114   5.021  0.00  0.00    -0.271 OA
HETATM   82  N   UNK N   1      23.380  11.317   5.033  0.00  0.00    -0.351 N 
HETATM   83  H   UNK N   1      22.623  10.739   4.781  0.00  0.00     0.163 HD
BRANCH  82  84
HETATM   84  C   UNK N   1      24.698  10.736   5.178  0.00  0.00     0.225 C 
BRANCH  84  85
HETATM   85  C   UNK N   1      25.155  10.179   3.860  0.00  0.00     0.236 C 
HETATM   86  O   UNK N   1      25.546   9.018   3.793  0.00  0.00    -0.272 OA
HETATM   87  N   UNK N   1      25.125  10.948   2.747  0.00  0.00    -0.346 N 
HETATM   88  H   UNK N   1      24.773  11.866   2.795  0.00  0.00     0.163 HD
BRANCH  87  89
HETATM   89  C   UNK N   1      25.607  10.430   1.484  0.00  0.00     0.176 C 
BRANCH  89  90
HETATM   90  C   UNK N   1      27.017  10.952   1.219  0.00  0.00     0.243 C 
HETATM   91  O   UNK N   1      27.292  12.039   1.689  0.00  0.00    -0.271 OA
HETATM   92  N   UNK N   1      27.951  10.304   0.458  0.00  0.00    -0.337 N 
HETATM   93  C   UNK N   1      29.197  10.948   0.121  0.00  0.00     0.179 A 
HETATM   94  C   UNK N   1      27.772   9.025  -0.140  0.00  0.00     0.127 A 
HETATM   95  C   UNK N   1      29.933   9.973  -0.778  0.00  0.00     0.037 A 
HETATM   96  C   UNK N   1      28.981   8.810  -1.031  0.00  0.00     0.022 A 
BRANCH  93  97
HETATM   97  C   UNK N   1      30.026  11.300   1.319  0.00  0.00     0.241 C 
HETATM   98  O   UNK N   1      30.533  12.408   1.421  0.00  0.00    -0.271 OA
HETATM   99  N   UNK N   1      30.159  10.383   2.307  0.00  0.00    -0.346 N 
HETATM  100  H   UNK N   1      29.803   9.477   2.164  0.00  0.00     0.163 HD
BRANCH  99 101
HETATM  101  C   UNK N   1      30.804  10.687   3.563  0.00  0.00     0.179 C 
BRANCH 101 102
HETATM  102  C   UNK N   1      32.147   9.942   3.687  0.00  0.00     0.009 C 
HETATM  103  C   UNK N   1      32.066   8.561   3.059  0.00  0.00     0.012 C 
HETATM  104  C   UNK N   1      33.254  10.707   2.979  0.00  0.00     0.012 C 
ENDBRANCH 101 102
BRANCH 101 105
HETATM  105  C   UNK N   1      29.813  10.350   4.651  0.00  0.00     0.238 C 
HETATM  106  O   UNK N   1      30.223  10.113   5.776  0.00  0.00    -0.271 OA
HETATM  107  N   UNK N   1      28.485  10.351   4.416  0.00  0.00    -0.368 N 
HETATM  108  H   UNK N   1      27.655  10.485   4.928  0.00  0.00     0.159 HD
HETATM  109  H   UNK N   1      28.291  10.165   3.469  0.00  0.00     0.159 HD
ENDBRANCH 101 105
ENDBRANCH  99 101
ENDBRANCH  93  97
ENDBRANCH  89  90
BRANCH  89 110
HETATM  110  C   UNK N   1      24.492  10.282   0.433  0.00  0.00     0.035 C 
BRANCH 110 111
HETATM  111  C   UNK N   1      23.626   9.024   0.499  0.00  0.00     0.004 C 
BRANCH 111 112
HETATM  112  C   UNK N   1      24.259   7.803  -0.138  0.00  0.00     0.019 C 
BRANCH 112 113
HETATM  113  C   UNK N   1      24.644   6.818   0.952  0.00  0.00     0.111 C 
BRANCH 113 114
HETATM  114  N   UNK N   1      23.905   7.110   2.169  0.00  0.00    -0.430 N 
HETATM  115  H   UNK N   1      23.270   7.907   2.226  0.00  0.00     0.149 HD
HETATM  116  H   UNK N   1      24.023   6.507   2.983  0.00  0.00     0.149 HD
ENDBRANCH 113 114
ENDBRANCH 112 113
ENDBRANCH 111 112
ENDBRANCH 110 111
ENDBRANCH  89 110
ENDBRANCH  87  89
ENDBRANCH  84  85
ENDBRANCH  82  84
ENDBRANCH  79  80
BRANCH  79 117
HETATM  117  C   UNK N   1      24.185  14.196   7.098  0.00  0.00     0.075 C 
BRANCH 117 118
HETATM  118  C   UNK N   1      23.728  13.335   8.242  0.00  0.00    -0.028 A 
HETATM  119  C   UNK N   1      22.523  13.465   8.877  0.00  0.00    -0.002 A 
HETATM  120  C   UNK N   1      22.480  12.516   9.854  0.00  0.00     0.042 A 
HETATM  121  C   UNK N   1      21.472  14.354   8.665  0.00  0.00     0.014 A 
HETATM  122  N   UNK N   1      23.609  11.787   9.869  0.00  0.00    -0.365 N 
HETATM  123  C   UNK N   1      21.380  12.378  10.697  0.00  0.00     0.030 A 
HETATM  124  C   UNK N   1      24.392  12.287   8.877  0.00  0.00     0.096 A 
HETATM  125  H   UNK N   1      23.826  11.042  10.475  0.00  0.00     0.165 HD
HETATM  126  C   UNK N   1      20.300  13.264  10.513  0.00  0.00     0.002 A 
HETATM  127  C   UNK N   1      20.348  14.249   9.501  0.00  0.00     0.001 A 
ENDBRANCH 117 118
ENDBRANCH  79 117
ENDBRANCH  77  79
ENDBRANCH  74  75
BRANCH  74 128
HETATM  128  C   UNK N   1      23.775  15.152   3.032  0.00  0.00     0.036 C 
BRANCH 128 129
HETATM  129  C   UNK N   1      24.167  14.621   1.659  0.00  0.00     0.023 C 
BRANCH 129 130
HETATM  130  C   UNK N   1      22.945  14.102   0.934  0.00  0.00     0.138 C 
BRANCH 130 131
HETATM  131  N   UNK N   1      21.883  13.898   1.881  0.00  0.00    -0.227 N 
HETATM  132  C   UNK N   1      21.003  12.796   1.772  0.00  0.00     0.665 C 
HETATM  133  N   UNK N   1      21.259  11.761   0.843  0.00  0.00    -0.235 N 
HETATM  134  N   UNK N   1      19.961  12.744   2.512  0.00  0.00    -0.235 N 
HETATM  135  H   UNK N   1      21.802  11.778   0.022  0.00  0.00     0.174 HD
HETATM  136  H   UNK N   1      20.833  10.898   1.048  0.00  0.00     0.174 HD
HETATM  137  H   UNK N   1      19.015  12.477   2.468  0.00  0.00     0.174 HD
ATOM    138  HN  UNK N   1      20.181  13.088   3.447  1.00  0.00     0.174 HD
HETATM  139  H   UNK N   1      21.765  14.539   2.619  0.00  0.00     0.177 HD
ENDBRANCH 130 131
ENDBRANCH 129 130
ENDBRANCH 128 129
ENDBRANCH  74 128
ENDBRANCH  72  74
ENDBRANCH   1  70
BRANCH   1 140
HETATM  140  C   UNK N   1      23.900  19.184   4.514  0.00  0.00     0.073 C 
BRANCH 140 141
HETATM  141  C   UNK N   1      22.719  18.289   4.673  0.00  0.00    -0.056 A 
HETATM  142  C   UNK N   1      22.580  17.485   5.811  0.00  0.00     0.007 A 
HETATM  143  C   UNK N   1      21.509  16.590   5.909  0.00  0.00     0.001 A 
HETATM  144  C   UNK N   1      20.584  16.487   4.866  0.00  0.00     0.000 A 
HETATM  145  C   UNK N   1      20.728  17.283   3.725  0.00  0.00     0.001 A 
HETATM  146  C   UNK N   1      21.797  18.179   3.628  0.00  0.00     0.007 A 
ENDBRANCH 140 141
ENDBRANCH   1 140
TORSDOF 55
ENDMDL
MODEL 2
REMARK VINA RESULT:      -6.9      2.231      4.361
REMARK WARNING: 32 MAX_TORS EXCEEDED!!!
REMARK  55 active torsions:
REMARK  status: ('A' for Active; 'I' for Inactive)
REMARK    1  A    between atoms: O_12  and  C_101 
REMARK    2  A    between atoms: O_13  and  C_105 
REMARK    3  A    between atoms: O_17  and  C_115 
REMARK    4  A    between atoms: O_18  and  C_118 
REMARK       I    between atoms: N_20  and  C_47 
REMARK       I    between atoms: N_21  and  C_48 
REMARK    5  A    between atoms: C_51  and  N_21 
REMARK    6  A    between atoms: C_49  and  N_22 
REMARK       I    between atoms: N_22  and  C_58 
REMARK       I    between atoms: N_23  and  C_55 
REMARK    7  A    between atoms: N_24  and  C_59 
REMARK    8  A    between atoms: N_25  and  C_60 
REMARK       I    between atoms: N_25  and  C_62 
REMARK    9  A    between atoms: C_61  and  N_26 
REMARK       I    between atoms: N_26  and  C_66 
REMARK   10  A    between atoms: C_65  and  N_27 
REMARK       I    between atoms: N_27  and  C_73 
REMARK   11  A    between atoms: C_72  and  N_29 
REMARK       I    between atoms: N_29  and  C_81 
REMARK   12  A    between atoms: C_77  and  N_30 
REMARK       I    between atoms: N_30  and  C_87 
REMARK   13  A    between atoms: C_79  and  N_31 
REMARK       I    between atoms: N_31  and  C_89 
REMARK   14  A    between atoms: N_32  and  C_75 
REMARK       I    between atoms: N_32  and  C_98 
REMARK   15  A    between atoms: C_80  and  N_33 
REMARK       I    between atoms: N_33  and  C_95 
REMARK   16  A    between atoms: C_94  and  N_35 
REMARK       I    between atoms: N_35  and  C_106 
REMARK   17  A    between atoms: C_102  and  N_38 
REMARK       I    between atoms: N_38  and  C_111 
REMARK       I    between atoms: N_39  and  C_98 
REMARK   18  A    between atoms: C_112  and  N_42 
REMARK       I    between atoms: N_42  and  C_119 
REMARK   19  A    between atoms: C_43  and  C_48 
REMARK   20  A    between atoms: C_47  and  C_49 
REMARK   21  A    between atoms: C_49  and  C_50 
REMARK   22  A    between atoms: C_50  and  C_52 
REMARK   23  A    between atoms: C_51  and  C_53 
REMARK   24  A    between atoms: C_51  and  C_55 
REMARK   25  A    between atoms: C_52  and  C_54 
REMARK   26  A    between atoms: C_54  and  C_59 
REMARK   27  A    between atoms: C_58  and  C_60 
REMARK   28  A    between atoms: C_61  and  C_62 
REMARK   29  A    between atoms: C_61  and  C_63 
REMARK   30  A    between atoms: C_63  and  C_64 
REMARK   31  A    between atoms: C_65  and  C_66 
REMARK   32  A    between atoms: C_65  and  C_67 
REMARK   33  A    between atoms: C_67  and  C_71 
REMARK   34  A    between atoms: C_71  and  C_75 
REMARK   35  A    between atoms: C_72  and  C_73 
REMARK   36  A    between atoms: C_72  and  C_76 
REMARK   37  A    between atoms: C_76  and  C_88 
REMARK   38  A    between atoms: C_77  and  C_81 
REMARK   39  A    between atoms: C_77  and  C_84 
REMARK   40  A    between atoms: C_79  and  C_86 
REMARK   41  A    between atoms: C_79  and  C_87 
REMARK   42  A    between atoms: C_80  and  C_83 
REMARK   43  A    between atoms: C_80  and  C_89 
REMARK   44  A    between atoms: C_83  and  C_90 
REMARK   45  A    between atoms: C_84  and  C_91 
REMARK   46  A    between atoms: C_86  and  C_92 
REMARK   47  A    between atoms: C_90  and  C_93 
REMARK   48  A    between atoms: C_92  and  C_105 
REMARK   49  A    between atoms: C_94  and  C_95 
REMARK   50  A    between atoms: C_94  and  C_101 
REMARK   51  A    between atoms: C_102  and  C_106 
REMARK   52  A    between atoms: C_102  and  C_107 
REMARK   53  A    between atoms: C_107  and  C_110 
REMARK   54  A    between atoms: C_111  and  C_112 
REMARK   55  A    between atoms: C_112  and  C_115 
ROOT
HETATM    1  C   UNK N   1      25.061  18.101   4.808  0.00  0.00     0.180 C 
ENDROOT
BRANCH   1   2
HETATM    2  N   UNK N   1      25.937  19.126   5.351  0.00  0.00    -0.346 N 
HETATM    3  C   UNK N   1      27.219  18.952   5.792  0.00  0.00     0.241 C 
HETATM    4  O   UNK N   1      27.823  19.915   6.231  0.00  0.00    -0.271 OA
HETATM    5  H   UNK N   1      25.570  20.038   5.407  0.00  0.00     0.163 HD
BRANCH   3   6
HETATM    6  C   UNK N   1      27.883  17.601   5.882  0.00  0.00     0.182 C 
BRANCH   6   7
HETATM    7  N   UNK N   1      29.283  17.697   5.588  0.00  0.00    -0.346 N 
HETATM    8  C   UNK N   1      29.931  17.005   4.624  0.00  0.00     0.241 C 
HETATM    9  O   UNK N   1      29.350  16.209   3.901  0.00  0.00    -0.271 OA
HETATM   10  H   UNK N   1      29.816  18.320   6.134  0.00  0.00     0.163 HD
BRANCH   8  11
HETATM   11  C   UNK N   1      31.384  17.230   4.517  0.00  0.00     0.177 C 
BRANCH  11  12
HETATM   12  N   UNK N   1      32.015  16.582   5.631  0.00  0.00    -0.346 N 
HETATM   13  C   UNK N   1      33.195  16.978   6.185  0.00  0.00     0.241 C 
HETATM   14  O   UNK N   1      33.773  17.983   5.793  0.00  0.00    -0.271 OA
HETATM   15  H   UNK N   1      31.565  15.799   6.022  0.00  0.00     0.163 HD
BRANCH  13  16
HETATM   16  C   UNK N   1      33.821  16.118   7.239  0.00  0.00     0.176 C 
BRANCH  16  17
HETATM   17  N   UNK N   1      32.829  15.751   8.235  0.00  0.00    -0.346 N 
HETATM   18  C   UNK N   1      33.143  15.368   9.504  0.00  0.00     0.243 C 
HETATM   19  O   UNK N   1      32.243  15.139  10.296  0.00  0.00    -0.271 OA
HETATM   20  H   UNK N   1      31.879  15.782   7.979  0.00  0.00     0.163 HD
BRANCH  18  21
HETATM   21  C   UNK N   1      34.589  15.251   9.949  0.00  0.00     0.200 C 
BRANCH  21  22
HETATM   22  N   UNK N   1      34.762  14.001  10.641  0.00  0.00    -0.344 N 
HETATM   23  C   UNK N   1      35.835  13.216  10.402  0.00  0.00     0.241 C 
HETATM   24  O   UNK N   1      36.644  13.504   9.532  0.00  0.00    -0.271 OA
HETATM   25  H   UNK N   1      34.089  13.714  11.299  0.00  0.00     0.163 HD
BRANCH  23  26
HETATM   26  C   UNK N   1      36.047  11.996  11.194  0.00  0.00     0.180 C 
BRANCH  26  27
HETATM   27  N   UNK N   1      36.692  12.229  12.451  0.00  0.00    -0.346 N 
HETATM   28  C   UNK N   1      35.976  12.559  13.552  0.00  0.00     0.243 C 
HETATM   29  O   UNK N   1      34.755  12.602  13.518  0.00  0.00    -0.271 OA
HETATM   30  H   UNK N   1      37.671  12.149  12.516  0.00  0.00     0.163 HD
BRANCH  28  31
HETATM   31  C   UNK N   1      36.689  12.944  14.798  0.00  0.00     0.200 C 
BRANCH  31  32
HETATM   32  N   UNK N   1      35.907  12.474  15.915  0.00  0.00    -0.346 N 
HETATM   33  C   UNK N   1      36.101  11.259  16.477  0.00  0.00     0.214 C 
HETATM   34  O   UNK N   1      36.967  10.507  16.056  0.00  0.00    -0.274 OA
HETATM   35  C   UNK N   1      35.222  10.820  17.595  0.00  0.00     0.117 C 
HETATM   36  H   UNK N   1      35.205  13.059  16.283  0.00  0.00     0.163 HD
ENDBRANCH  31  32
BRANCH  31  37
HETATM   37  C   UNK N   1      36.846  14.456  14.881  0.00  0.00     0.199 C 
BRANCH  37  38
HETATM   38  O   UNK N   1      36.702  15.030  13.616  0.00  0.00    -0.398 OA
HETATM   39  H   UNK N   1      35.936  15.561  13.348  0.00  0.00     0.209 HD
ENDBRANCH  37  38
ENDBRANCH  31  37
ENDBRANCH  28  31
ENDBRANCH  26  27
BRANCH  26  40
HETATM   40  C   UNK N   1      36.377  10.697  10.491  0.00  0.00     0.073 C 
BRANCH  40  41
HETATM   41  C   UNK N   1      35.068  10.187  10.036  0.00  0.00    -0.056 A 
HETATM   42  C   UNK N   1      34.064   9.943  10.976  0.00  0.00     0.010 A 
HETATM   43  C   UNK N   1      32.769   9.656  10.547  0.00  0.00     0.037 A 
HETATM   44  C   UNK N   1      32.475   9.628   9.180  0.00  0.00     0.065 A 
HETATM   45  C   UNK N   1      33.482   9.863   8.240  0.00  0.00     0.037 A 
HETATM   46  C   UNK N   1      34.777  10.154   8.667  0.00  0.00     0.010 A 
BRANCH  44  47
HETATM   47  O   UNK N   1      31.221   9.387   8.771  0.00  0.00    -0.361 OA
HETATM   48  H   UNK N   1      30.450   9.305   9.298  0.00  0.00     0.217 HD
ENDBRANCH  44  47
ENDBRANCH  40  41
ENDBRANCH  26  40
ENDBRANCH  23  26
ENDBRANCH  21  22
BRANCH  21  49
HETATM   49  C   UNK N   1      35.092  16.429  10.784  0.00  0.00     0.199 C 
BRANCH  49  50
HETATM   50  O   UNK N   1      35.423  17.497   9.947  0.00  0.00    -0.398 OA
HETATM   51  H   UNK N   1      35.148  18.413   9.785  0.00  0.00     0.209 HD
ENDBRANCH  49  50
ENDBRANCH  21  49
ENDBRANCH  18  21
ENDBRANCH  16  17
BRANCH  16  52
HETATM   52  C   UNK N   1      34.262  14.846   6.521  0.00  0.00     0.035 C 
BRANCH  52  53
HETATM   53  C   UNK N   1      35.765  14.734   6.369  0.00  0.00     0.002 C 
BRANCH  53  54
HETATM   54  C   UNK N   1      36.151  13.308   6.027  0.00  0.00    -0.004 C 
HETATM   55  C   UNK N   1      37.658  13.197   5.925  0.00  0.00     0.005 C 
ENDBRANCH  53  54
ENDBRANCH  52  53
ENDBRANCH  16  52
ENDBRANCH  13  16
ENDBRANCH  11  12
BRANCH  11  56
HETATM   56  C   UNK N   1      32.066  16.934   3.199  0.00  0.00     0.045 C 
BRANCH  56  57
HETATM   57  C   UNK N   1      32.860  15.660   3.448  0.00  0.00     0.112 C 
BRANCH  57  58
HETATM   58  C   UNK N   1      32.315  14.454   2.759  0.00  0.00     0.139 C 
HETATM   59  O   UNK N   1      33.036  13.824   2.003  0.00  0.00    -0.650 OA
BRANCH  58  60
HETATM   60  O   UNK N   1      31.049  14.048   2.969  0.00  0.00    -0.776 OA
HETATM   61  H   UNK N   1      30.137  14.068   3.180  0.00  0.00     0.167 HD
ENDBRANCH  58  60
ENDBRANCH  57  58
ENDBRANCH  56  57
ENDBRANCH  11  56
ENDBRANCH   8  11
ENDBRANCH   6   7
BRANCH   6  62
HETATM   62  C   UNK N   1      27.740  16.908   7.234  0.00  0.00     0.093 C 
BRANCH  62  63
HETATM   63  C   UNK N   1      28.644  17.471   8.278  0.00  0.00     0.028 A 
HETATM   64  N   UNK N   1      28.356  18.529   9.050  0.00  0.00    -0.354 N 
HETATM   65  C   UNK N   1      29.411  18.651   9.879  0.00  0.00     0.180 A 
HETATM   66  H   UNK N   1      27.550  19.095   9.017  0.00  0.00     0.166 HD
HETATM   67  N   UNK N   1      30.335  17.693   9.657  0.00  0.00    -0.360 N 
HETATM   68  C   UNK N   1      29.850  16.942   8.653  0.00  0.00     0.114 A 
ATOM     69  HN  UNK N   1      31.219  17.566  10.149  1.00  0.00     0.166 HD
ENDBRANCH  62  63
ENDBRANCH   6  62
ENDBRANCH   3   6
ENDBRANCH   1   2
BRANCH   1  70
HETATM   70  C   UNK N   1      25.600  17.471   3.553  0.00  0.00     0.241 C 
HETATM   71  O   UNK N   1      26.191  18.184   2.758  0.00  0.00    -0.271 OA
HETATM   72  N   UNK N   1      25.490  16.144   3.282  0.00  0.00    -0.346 N 
HETATM   73  H   UNK N   1      25.926  15.824   2.460  0.00  0.00     0.163 HD
BRANCH  72  74
HETATM   74  C   UNK N   1      24.792  15.150   4.083  0.00  0.00     0.176 C 
BRANCH  74  75
HETATM   75  C   UNK N   1      25.721  14.052   4.552  0.00  0.00     0.241 C 
HETATM   76  O   UNK N   1      26.776  13.872   3.965  0.00  0.00    -0.271 OA
HETATM   77  N   UNK N   1      25.399  13.245   5.590  0.00  0.00    -0.346 N 
HETATM   78  H   UNK N   1      26.009  12.506   5.818  0.00  0.00     0.163 HD
BRANCH  77  79
HETATM   79  C   UNK N   1      24.201  13.422   6.378  0.00  0.00     0.181 C 
BRANCH  79  80
HETATM   80  C   UNK N   1      23.022  12.536   6.095  0.00  0.00     0.241 C 
HETATM   81  O   UNK N   1      22.018  13.010   5.589  0.00  0.00    -0.271 OA
HETATM   82  N   UNK N   1      23.062  11.213   6.393  0.00  0.00    -0.351 N 
HETATM   83  H   UNK N   1      22.253  10.665   6.265  0.00  0.00     0.163 HD
BRANCH  82  84
HETATM   84  C   UNK N   1      24.268  10.592   6.896  0.00  0.00     0.225 C 
BRANCH  84  85
HETATM   85  C   UNK N   1      24.282   9.136   6.527  0.00  0.00     0.236 C 
HETATM   86  O   UNK N   1      25.035   8.740   5.644  0.00  0.00    -0.272 OA
HETATM   87  N   UNK N   1      23.477   8.261   7.173  0.00  0.00    -0.346 N 
HETATM   88  H   UNK N   1      22.902   8.575   7.908  0.00  0.00     0.163 HD
BRANCH  87  89
HETATM   89  C   UNK N   1      23.453   6.865   6.790  0.00  0.00     0.176 C 
BRANCH  89  90
HETATM   90  C   UNK N   1      22.258   6.603   5.876  0.00  0.00     0.243 C 
HETATM   91  O   UNK N   1      21.155   6.723   6.375  0.00  0.00    -0.271 OA
HETATM   92  N   UNK N   1      22.355   6.202   4.573  0.00  0.00    -0.337 N 
HETATM   93  C   UNK N   1      21.177   5.816   3.834  0.00  0.00     0.179 A 
HETATM   94  C   UNK N   1      23.575   6.035   3.858  0.00  0.00     0.127 A 
HETATM   95  C   UNK N   1      21.674   5.368   2.473  0.00  0.00     0.037 A 
HETATM   96  C   UNK N   1      23.196   5.402   2.532  0.00  0.00     0.022 A 
BRANCH  93  97
HETATM   97  C   UNK N   1      20.172   6.918   3.700  0.00  0.00     0.241 C 
HETATM   98  O   UNK N   1      18.980   6.698   3.863  0.00  0.00    -0.271 OA
HETATM   99  N   UNK N   1      20.616   8.173   3.445  0.00  0.00    -0.346 N 
HETATM  100  H   UNK N   1      21.570   8.306   3.246  0.00  0.00     0.163 HD
BRANCH  99 101
HETATM  101  C   UNK N   1      19.740   9.321   3.454  0.00  0.00     0.179 C 
BRANCH 101 102
HETATM  102  C   UNK N   1      19.903  10.148   2.165  0.00  0.00     0.009 C 
HETATM  103  C   UNK N   1      20.756   9.412   1.147  0.00  0.00     0.012 C 
HETATM  104  C   UNK N   1      18.550  10.418   1.525  0.00  0.00     0.012 C 
ENDBRANCH 101 102
BRANCH 101 105
HETATM  105  C   UNK N   1      20.046  10.088   4.718  0.00  0.00     0.238 C 
HETATM  106  O   UNK N   1      20.913   9.673   5.471  0.00  0.00    -0.271 OA
HETATM  107  N   UNK N   1      19.413  11.243   5.009  0.00  0.00    -0.368 N 
HETATM  108  H   UNK N   1      19.594  12.062   5.524  0.00  0.00     0.159 HD
HETATM  109  H   UNK N   1      18.523  11.276   4.590  0.00  0.00     0.159 HD
ENDBRANCH 101 105
ENDBRANCH  99 101
ENDBRANCH  93  97
ENDBRANCH  89  90
BRANCH  89 110
HETATM  110  C   UNK N   1      23.952   5.929   7.906  0.00  0.00     0.035 C 
BRANCH 110 111
HETATM  111  C   UNK N   1      25.443   5.966   8.239  0.00  0.00     0.004 C 
BRANCH 111 112
HETATM  112  C   UNK N   1      26.236   4.814   7.655  0.00  0.00     0.019 C 
BRANCH 112 113
HETATM  113  C   UNK N   1      26.997   5.304   6.435  0.00  0.00     0.111 C 
BRANCH 113 114
HETATM  114  N   UNK N   1      27.133   6.750   6.482  0.00  0.00    -0.430 N 
HETATM  115  H   UNK N   1      27.812   7.239   5.898  0.00  0.00     0.149 HD
HETATM  116  H   UNK N   1      26.538   7.289   7.112  0.00  0.00     0.149 HD
ENDBRANCH 113 114
ENDBRANCH 112 113
ENDBRANCH 111 112
ENDBRANCH 110 111
ENDBRANCH  89 110
ENDBRANCH  87  89
ENDBRANCH  84  85
ENDBRANCH  82  84
ENDBRANCH  79  80
BRANCH  79 117
HETATM  117  C   UNK N   1      24.241  14.275   7.645  0.00  0.00     0.075 C 
BRANCH 117 118
HETATM  118  C   UNK N   1      24.245  13.543   8.957  0.00  0.00    -0.028 A 
HETATM  119  C   UNK N   1      23.121  13.177   9.644  0.00  0.00    -0.002 A 
HETATM  120  C   UNK N   1      23.532  12.543  10.779  0.00  0.00     0.042 A 
HETATM  121  C   UNK N   1      21.773  13.365   9.352  0.00  0.00     0.014 A 
HETATM  122  N   UNK N   1      24.874  12.492  10.843  0.00  0.00    -0.365 N 
HETATM  123  C   UNK N   1      22.627  12.044  11.712  0.00  0.00     0.030 A 
HETATM  124  C   UNK N   1      25.327  13.110   9.722  0.00  0.00     0.096 A 
HETATM  125  H   UNK N   1      25.418  12.088  11.557  0.00  0.00     0.165 HD
HETATM  126  C   UNK N   1      21.254  12.220  11.449  0.00  0.00     0.002 A 
HETATM  127  C   UNK N   1      20.829  12.880  10.274  0.00  0.00     0.001 A 
ENDBRANCH 117 118
ENDBRANCH  79 117
ENDBRANCH  77  79
ENDBRANCH  74  75
BRANCH  74 128
HETATM  128  C   UNK N   1      23.621  14.554   3.313  0.00  0.00     0.036 C 
BRANCH 128 129
HETATM  129  C   UNK N   1      23.584  15.007   1.859  0.00  0.00     0.023 C 
BRANCH 129 130
HETATM  130  C   UNK N   1      22.774  14.032   1.031  0.00  0.00     0.138 C 
BRANCH 130 131
HETATM  131  N   UNK N   1      21.672  13.546   1.815  0.00  0.00    -0.227 N 
HETATM  132  C   UNK N   1      20.382  14.114   1.702  0.00  0.00     0.665 C 
HETATM  133  N   UNK N   1      20.095  15.047   0.678  0.00  0.00    -0.235 N 
HETATM  134  N   UNK N   1      19.473  13.789   2.541  0.00  0.00    -0.235 N 
HETATM  135  H   UNK N   1      20.709  15.621   0.167  0.00  0.00     0.174 HD
HETATM  136  H   UNK N   1      19.143  15.133   0.444  0.00  0.00     0.174 HD
HETATM  137  H   UNK N   1      18.729  14.192   3.044  0.00  0.00     0.174 HD
ATOM    138  HN  UNK N   1      19.538  12.794   2.757  1.00  0.00     0.174 HD
HETATM  139  H   UNK N   1      21.819  12.802   2.445  0.00  0.00     0.177 HD
ENDBRANCH 130 131
ENDBRANCH 129 130
ENDBRANCH 128 129
ENDBRANCH  74 128
ENDBRANCH  72  74
ENDBRANCH   1  70
BRANCH   1 140
HETATM  140  C   UNK N   1      23.706  18.695   4.440  0.00  0.00     0.073 C 
BRANCH 140 141
HETATM  141  C   UNK N   1      22.534  17.850   4.807  0.00  0.00    -0.056 A 
HETATM  142  C   UNK N   1      22.506  17.157   6.024  0.00  0.00     0.007 A 
HETATM  143  C   UNK N   1      21.437  16.303   6.318  0.00  0.00     0.001 A 
HETATM  144  C   UNK N   1      20.404  16.130   5.393  0.00  0.00     0.000 A 
HETATM  145  C   UNK N   1      20.437  16.813   4.173  0.00  0.00     0.001 A 
HETATM  146  C   UNK N   1      21.503  17.669   3.880  0.00  0.00     0.007 A 
ENDBRANCH 140 141
ENDBRANCH   1 140
TORSDOF 55
ENDMDL
MODEL 3
REMARK VINA RESULT:      -6.8      2.679     10.497
REMARK WARNING: 32 MAX_TORS EXCEEDED!!!
REMARK  55 active torsions:
REMARK  status: ('A' for Active; 'I' for Inactive)
REMARK    1  A    between atoms: O_12  and  C_101 
REMARK    2  A    between atoms: O_13  and  C_105 
REMARK    3  A    between atoms: O_17  and  C_115 
REMARK    4  A    between atoms: O_18  and  C_118 
REMARK       I    between atoms: N_20  and  C_47 
REMARK       I    between atoms: N_21  and  C_48 
REMARK    5  A    between atoms: C_51  and  N_21 
REMARK    6  A    between atoms: C_49  and  N_22 
REMARK       I    between atoms: N_22  and  C_58 
REMARK       I    between atoms: N_23  and  C_55 
REMARK    7  A    between atoms: N_24  and  C_59 
REMARK    8  A    between atoms: N_25  and  C_60 
REMARK       I    between atoms: N_25  and  C_62 
REMARK    9  A    between atoms: C_61  and  N_26 
REMARK       I    between atoms: N_26  and  C_66 
REMARK   10  A    between atoms: C_65  and  N_27 
REMARK       I    between atoms: N_27  and  C_73 
REMARK   11  A    between atoms: C_72  and  N_29 
REMARK       I    between atoms: N_29  and  C_81 
REMARK   12  A    between atoms: C_77  and  N_30 
REMARK       I    between atoms: N_30  and  C_87 
REMARK   13  A    between atoms: C_79  and  N_31 
REMARK       I    between atoms: N_31  and  C_89 
REMARK   14  A    between atoms: N_32  and  C_75 
REMARK       I    between atoms: N_32  and  C_98 
REMARK   15  A    between atoms: C_80  and  N_33 
REMARK       I    between atoms: N_33  and  C_95 
REMARK   16  A    between atoms: C_94  and  N_35 
REMARK       I    between atoms: N_35  and  C_106 
REMARK   17  A    between atoms: C_102  and  N_38 
REMARK       I    between atoms: N_38  and  C_111 
REMARK       I    between atoms: N_39  and  C_98 
REMARK   18  A    between atoms: C_112  and  N_42 
REMARK       I    between atoms: N_42  and  C_119 
REMARK   19  A    between atoms: C_43  and  C_48 
REMARK   20  A    between atoms: C_47  and  C_49 
REMARK   21  A    between atoms: C_49  and  C_50 
REMARK   22  A    between atoms: C_50  and  C_52 
REMARK   23  A    between atoms: C_51  and  C_53 
REMARK   24  A    between atoms: C_51  and  C_55 
REMARK   25  A    between atoms: C_52  and  C_54 
REMARK   26  A    between atoms: C_54  and  C_59 
REMARK   27  A    between atoms: C_58  and  C_60 
REMARK   28  A    between atoms: C_61  and  C_62 
REMARK   29  A    between atoms: C_61  and  C_63 
REMARK   30  A    between atoms: C_63  and  C_64 
REMARK   31  A    between atoms: C_65  and  C_66 
REMARK   32  A    between atoms: C_65  and  C_67 
REMARK   33  A    between atoms: C_67  and  C_71 
REMARK   34  A    between atoms: C_71  and  C_75 
REMARK   35  A    between atoms: C_72  and  C_73 
REMARK   36  A    between atoms: C_72  and  C_76 
REMARK   37  A    between atoms: C_76  and  C_88 
REMARK   38  A    between atoms: C_77  and  C_81 
REMARK   39  A    between atoms: C_77  and  C_84 
REMARK   40  A    between atoms: C_79  and  C_86 
REMARK   41  A    between atoms: C_79  and  C_87 
REMARK   42  A    between atoms: C_80  and  C_83 
REMARK   43  A    between atoms: C_80  and  C_89 
REMARK   44  A    between atoms: C_83  and  C_90 
REMARK   45  A    between atoms: C_84  and  C_91 
REMARK   46  A    between atoms: C_86  and  C_92 
REMARK   47  A    between atoms: C_90  and  C_93 
REMARK   48  A    between atoms: C_92  and  C_105 
REMARK   49  A    between atoms: C_94  and  C_95 
REMARK   50  A    between atoms: C_94  and  C_101 
REMARK   51  A    between atoms: C_102  and  C_106 
REMARK   52  A    between atoms: C_102  and  C_107 
REMARK   53  A    between atoms: C_107  and  C_110 
REMARK   54  A    between atoms: C_111  and  C_112 
REMARK   55  A    between atoms: C_112  and  C_115 
ROOT
HETATM    1  C   UNK N   1      23.649  16.192   5.617  0.00  0.00     0.180 C 
ENDROOT
BRANCH   1   2
HETATM    2  N   UNK N   1      24.581  15.576   6.548  0.00  0.00    -0.346 N 
HETATM    3  C   UNK N   1      24.379  14.430   7.264  0.00  0.00     0.241 C 
HETATM    4  O   UNK N   1      25.260  14.046   8.014  0.00  0.00    -0.271 OA
HETATM    5  H   UNK N   1      25.445  16.031   6.675  0.00  0.00     0.163 HD
BRANCH   3   6
HETATM    6  C   UNK N   1      23.069  13.682   7.271  0.00  0.00     0.182 C 
BRANCH   6   7
HETATM    7  N   UNK N   1      23.281  12.276   7.090  0.00  0.00    -0.346 N 
HETATM    8  C   UNK N   1      22.499  11.454   6.355  0.00  0.00     0.241 C 
HETATM    9  O   UNK N   1      21.508  11.862   5.767  0.00  0.00    -0.271 OA
HETATM   10  H   UNK N   1      24.061  11.877   7.538  0.00  0.00     0.163 HD
BRANCH   8  11
HETATM   11  C   UNK N   1      22.878  10.030   6.334  0.00  0.00     0.177 C 
BRANCH  11  12
HETATM   12  N   UNK N   1      23.331   9.711   5.010  0.00  0.00    -0.346 N 
HETATM   13  C   UNK N   1      24.473  10.198   4.449  0.00  0.00     0.241 C 
HETATM   14  O   UNK N   1      25.239  10.909   5.085  0.00  0.00    -0.271 OA
HETATM   15  H   UNK N   1      22.780   9.099   4.471  0.00  0.00     0.163 HD
BRANCH  13  16
HETATM   16  C   UNK N   1      24.743   9.913   3.003  0.00  0.00     0.176 C 
BRANCH  16  17
HETATM   17  N   UNK N   1      25.135   8.524   2.836  0.00  0.00    -0.346 N 
HETATM   18  C   UNK N   1      26.432   8.105   2.815  0.00  0.00     0.243 C 
HETATM   19  O   UNK N   1      26.669   6.911   2.734  0.00  0.00    -0.271 OA
HETATM   20  H   UNK N   1      24.426   7.850   2.734  0.00  0.00     0.163 HD
BRANCH  18  21
HETATM   21  C   UNK N   1      27.575   9.098   2.918  0.00  0.00     0.200 C 
BRANCH  21  22
HETATM   22  N   UNK N   1      28.592   8.735   1.968  0.00  0.00    -0.344 N 
HETATM   23  C   UNK N   1      28.695   9.372   0.780  0.00  0.00     0.241 C 
HETATM   24  O   UNK N   1      27.875  10.214   0.446  0.00  0.00    -0.271 OA
HETATM   25  H   UNK N   1      29.223   8.012   2.186  0.00  0.00     0.163 HD
BRANCH  23  26
HETATM   26  C   UNK N   1      29.804   9.058  -0.130  0.00  0.00     0.180 C 
BRANCH  26  27
HETATM   27  N   UNK N   1      29.472   8.089  -1.132  0.00  0.00    -0.346 N 
HETATM   28  C   UNK N   1      29.282   8.456  -2.422  0.00  0.00     0.243 C 
HETATM   29  O   UNK N   1      29.453   9.613  -2.777  0.00  0.00    -0.271 OA
HETATM   30  H   UNK N   1      29.381   7.142  -0.879  0.00  0.00     0.163 HD
BRANCH  28  31
HETATM   31  C   UNK N   1      28.788   7.453  -3.401  0.00  0.00     0.200 C 
BRANCH  31  32
HETATM   32  N   UNK N   1      27.713   8.059  -4.147  0.00  0.00    -0.346 N 
HETATM   33  C   UNK N   1      27.449   7.734  -5.433  0.00  0.00     0.214 C 
HETATM   34  O   UNK N   1      28.118   6.894  -6.016  0.00  0.00    -0.274 OA
HETATM   35  C   UNK N   1      26.355   8.438  -6.157  0.00  0.00     0.117 C 
HETATM   36  H   UNK N   1      27.150   8.736  -3.705  0.00  0.00     0.163 HD
ENDBRANCH  31  32
BRANCH  31  37
HETATM   37  C   UNK N   1      28.279   6.210  -2.684  0.00  0.00     0.199 C 
BRANCH  37  38
HETATM   38  O   UNK N   1      27.046   6.468  -2.080  0.00  0.00    -0.398 OA
HETATM   39  H   UNK N   1      26.766   7.347  -1.781  0.00  0.00     0.209 HD
ENDBRANCH  37  38
ENDBRANCH  31  37
ENDBRANCH  28  31
ENDBRANCH  26  27
BRANCH  26  40
HETATM   40  C   UNK N   1      31.221   9.027   0.401  0.00  0.00     0.073 C 
BRANCH  40  41
HETATM   41  C   UNK N   1      31.928  10.053  -0.391  0.00  0.00    -0.056 A 
HETATM   42  C   UNK N   1      32.983   9.671  -1.222  0.00  0.00     0.010 A 
HETATM   43  C   UNK N   1      33.526  10.588  -2.120  0.00  0.00     0.037 A 
HETATM   44  C   UNK N   1      33.003  11.882  -2.199  0.00  0.00     0.065 A 
HETATM   45  C   UNK N   1      31.952  12.268  -1.360  0.00  0.00     0.037 A 
HETATM   46  C   UNK N   1      31.407  11.351  -0.464  0.00  0.00     0.010 A 
BRANCH  44  47
HETATM   47  O   UNK N   1      33.502  12.752  -3.089  0.00  0.00    -0.361 OA
HETATM   48  H   UNK N   1      33.081  13.102  -3.850  0.00  0.00     0.217 HD
ENDBRANCH  44  47
ENDBRANCH  40  41
ENDBRANCH  26  40
ENDBRANCH  23  26
ENDBRANCH  21  22
BRANCH  21  49
HETATM   49  C   UNK N   1      28.152   9.256   4.325  0.00  0.00     0.199 C 
BRANCH  49  50
HETATM   50  O   UNK N   1      27.373   8.543   5.239  0.00  0.00    -0.398 OA
HETATM   51  H   UNK N   1      26.489   8.584   5.637  0.00  0.00     0.209 HD
ENDBRANCH  49  50
ENDBRANCH  21  49
ENDBRANCH  18  21
ENDBRANCH  16  17
BRANCH  16  52
HETATM   52  C   UNK N   1      23.411  10.117   2.289  0.00  0.00     0.035 C 
BRANCH  52  53
HETATM   53  C   UNK N   1      23.474   9.813   0.806  0.00  0.00     0.002 C 
BRANCH  53  54
HETATM   54  C   UNK N   1      24.362  10.822   0.103  0.00  0.00    -0.004 C 
HETATM   55  C   UNK N   1      23.551  12.043  -0.272  0.00  0.00     0.005 C 
ENDBRANCH  53  54
ENDBRANCH  52  53
ENDBRANCH  16  52
ENDBRANCH  13  16
ENDBRANCH  11  12
BRANCH  11  56
HETATM   56  C   UNK N   1      23.803   9.512   7.413  0.00  0.00     0.045 C 
BRANCH  56  57
HETATM   57  C   UNK N   1      23.654   7.999   7.363  0.00  0.00     0.112 C 
BRANCH  57  58
HETATM   58  C   UNK N   1      24.833   7.284   6.793  0.00  0.00     0.139 C 
HETATM   59  O   UNK N   1      24.804   6.924   5.627  0.00  0.00    -0.650 OA
BRANCH  58  60
HETATM   60  O   UNK N   1      25.925   7.042   7.541  0.00  0.00    -0.776 OA
HETATM   61  H   UNK N   1      26.501   6.999   8.279  0.00  0.00     0.167 HD
ENDBRANCH  58  60
ENDBRANCH  57  58
ENDBRANCH  56  57
ENDBRANCH  11  56
ENDBRANCH   8  11
ENDBRANCH   6   7
BRANCH   6  62
HETATM   62  C   UNK N   1      22.235  13.867   8.535  0.00  0.00     0.093 C 
BRANCH  62  63
HETATM   63  C   UNK N   1      22.667  12.981   9.655  0.00  0.00     0.028 A 
HETATM   64  N   UNK N   1      23.835  13.085  10.306  0.00  0.00    -0.354 N 
HETATM   65  C   UNK N   1      23.782  12.138  11.264  0.00  0.00     0.180 A 
HETATM   66  H   UNK N   1      24.570  13.713  10.124  0.00  0.00     0.166 HD
HETATM   67  N   UNK N   1      22.614  11.463  11.237  0.00  0.00    -0.360 N 
HETATM   68  C   UNK N   1      21.904  11.999  10.229  0.00  0.00     0.114 A 
ATOM     69  HN  UNK N   1      22.328  10.704  11.855  1.00  0.00     0.166 HD
ENDBRANCH  62  63
ENDBRANCH   6  62
ENDBRANCH   3   6
ENDBRANCH   1   2
BRANCH   1  70
HETATM   70  C   UNK N   1      24.322  17.105   4.629  0.00  0.00     0.241 C 
HETATM   71  O   UNK N   1      24.439  18.284   4.921  0.00  0.00    -0.271 OA
HETATM   72  N   UNK N   1      24.833  16.672   3.448  0.00  0.00    -0.346 N 
HETATM   73  H   UNK N   1      25.303  17.340   2.898  0.00  0.00     0.163 HD
BRANCH  72  74
HETATM   74  C   UNK N   1      24.756  15.322   2.911  0.00  0.00     0.176 C 
BRANCH  74  75
HETATM   75  C   UNK N   1      25.671  15.136   1.721  0.00  0.00     0.241 C 
HETATM   76  O   UNK N   1      25.186  15.042   0.604  0.00  0.00    -0.271 OA
HETATM   77  N   UNK N   1      27.014  15.044   1.865  0.00  0.00    -0.346 N 
HETATM   78  H   UNK N   1      27.561  14.862   1.067  0.00  0.00     0.163 HD
BRANCH  77  79
HETATM   79  C   UNK N   1      27.678  15.202   3.138  0.00  0.00     0.181 C 
BRANCH  79  80
HETATM   80  C   UNK N   1      27.558  14.098   4.149  0.00  0.00     0.241 C 
HETATM   81  O   UNK N   1      26.889  14.269   5.154  0.00  0.00    -0.271 OA
HETATM   82  N   UNK N   1      28.183  12.910   3.954  0.00  0.00    -0.351 N 
HETATM   83  H   UNK N   1      28.149  12.225   4.662  0.00  0.00     0.163 HD
BRANCH  82  84
HETATM   84  C   UNK N   1      28.898  12.628   2.728  0.00  0.00     0.225 C 
BRANCH  84  85
HETATM   85  C   UNK N   1      30.363  12.472   3.018  0.00  0.00     0.236 C 
HETATM   86  O   UNK N   1      30.790  11.402   3.438  0.00  0.00    -0.272 OA
HETATM   87  N   UNK N   1      31.215  13.503   2.806  0.00  0.00    -0.346 N 
HETATM   88  H   UNK N   1      30.876  14.348   2.431  0.00  0.00     0.163 HD
BRANCH  87  89
HETATM   89  C   UNK N   1      32.620  13.372   3.127  0.00  0.00     0.176 C 
BRANCH  89  90
HETATM   90  C   UNK N   1      32.910  14.065   4.458  0.00  0.00     0.243 C 
HETATM   91  O   UNK N   1      33.133  13.342   5.410  0.00  0.00    -0.271 OA
HETATM   92  N   UNK N   1      32.885  15.419   4.645  0.00  0.00    -0.337 N 
HETATM   93  C   UNK N   1      33.006  15.978   5.970  0.00  0.00     0.179 A 
HETATM   94  C   UNK N   1      32.653  16.381   3.621  0.00  0.00     0.127 A 
HETATM   95  C   UNK N   1      32.863  17.478   5.796  0.00  0.00     0.037 A 
HETATM   96  C   UNK N   1      32.528  17.718   4.329  0.00  0.00     0.022 A 
BRANCH  93  97
HETATM   97  C   UNK N   1      34.301  15.639   6.641  0.00  0.00     0.241 C 
HETATM   98  O   UNK N   1      35.369  15.901   6.104  0.00  0.00    -0.271 OA
HETATM   99  N   UNK N   1      34.265  15.082   7.876  0.00  0.00    -0.346 N 
HETATM  100  H   UNK N   1      33.395  14.815   8.250  0.00  0.00     0.163 HD
BRANCH  99 101
HETATM  101  C   UNK N   1      35.456  14.866   8.663  0.00  0.00     0.179 C 
BRANCH 101 102
HETATM  102  C   UNK N   1      35.732  13.361   8.842  0.00  0.00     0.009 C 
HETATM  103  C   UNK N   1      36.490  13.094  10.131  0.00  0.00     0.012 C 
HETATM  104  C   UNK N   1      34.429  12.578   8.901  0.00  0.00     0.012 C 
ENDBRANCH 101 102
BRANCH 101 105
HETATM  105  C   UNK N   1      35.259  15.612   9.960  0.00  0.00     0.238 C 
HETATM  106  O   UNK N   1      36.176  16.281  10.407  0.00  0.00    -0.271 OA
HETATM  107  N   UNK N   1      34.076  15.592  10.610  0.00  0.00    -0.368 N 
HETATM  108  H   UNK N   1      33.576  16.170  11.230  0.00  0.00     0.159 HD
HETATM  109  H   UNK N   1      33.574  14.769  10.409  0.00  0.00     0.159 HD
ENDBRANCH 101 105
ENDBRANCH  99 101
ENDBRANCH  93  97
ENDBRANCH  89  90
BRANCH  89 110
HETATM  110  C   UNK N   1      33.524  13.406   1.882  0.00  0.00     0.035 C 
BRANCH 110 111
HETATM  111  C   UNK N   1      34.318  12.141   1.556  0.00  0.00     0.004 C 
BRANCH 111 112
HETATM  112  C   UNK N   1      35.564  12.389   0.729  0.00  0.00     0.019 C 
BRANCH 112 113
HETATM  113  C   UNK N   1      35.674  13.875   0.433  0.00  0.00     0.111 C 
BRANCH 113 114
HETATM  114  N   UNK N   1      35.371  14.127  -0.966  0.00  0.00    -0.430 N 
HETATM  115  H   UNK N   1      34.564  13.698  -1.420  0.00  0.00     0.149 HD
HETATM  116  H   UNK N   1      35.977  14.743  -1.506  0.00  0.00     0.149 HD
ENDBRANCH 113 114
ENDBRANCH 112 113
ENDBRANCH 111 112
ENDBRANCH 110 111
ENDBRANCH  89 110
ENDBRANCH  87  89
ENDBRANCH  84  85
ENDBRANCH  82  84
ENDBRANCH  79  80
BRANCH  79 117
HETATM  117  C   UNK N   1      28.705  16.317   3.328  0.00  0.00     0.075 C 
BRANCH 117 118
HETATM  118  C   UNK N   1      28.294  17.479   4.189  0.00  0.00    -0.028 A 
HETATM  119  C   UNK N   1      28.578  17.596   5.522  0.00  0.00    -0.002 A 
HETATM  120  C   UNK N   1      28.038  18.773   5.946  0.00  0.00     0.042 A 
HETATM  121  C   UNK N   1      29.266  16.747   6.384  0.00  0.00     0.014 A 
HETATM  122  N   UNK N   1      27.419  19.412   4.937  0.00  0.00    -0.365 N 
HETATM  123  C   UNK N   1      28.145  19.197   7.268  0.00  0.00     0.030 A 
HETATM  124  C   UNK N   1      27.568  18.618   3.844  0.00  0.00     0.096 A 
HETATM  125  H   UNK N   1      26.953  20.277   4.980  0.00  0.00     0.165 HD
HETATM  126  C   UNK N   1      28.831  18.360   8.169  0.00  0.00     0.002 A 
HETATM  127  C   UNK N   1      29.388  17.138   7.728  0.00  0.00     0.001 A 
ENDBRANCH 117 118
ENDBRANCH  79 117
ENDBRANCH  77  79
ENDBRANCH  74  75
BRANCH  74 128
HETATM  128  C   UNK N   1      23.324  14.966   2.533  0.00  0.00     0.036 C 
BRANCH 128 129
HETATM  129  C   UNK N   1      22.885  13.621   3.098  0.00  0.00     0.023 C 
BRANCH 129 130
HETATM  130  C   UNK N   1      21.578  13.193   2.466  0.00  0.00     0.138 C 
BRANCH 130 131
HETATM  131  N   UNK N   1      20.991  14.315   1.785  0.00  0.00    -0.227 N 
HETATM  132  C   UNK N   1      19.637  14.301   1.379  0.00  0.00     0.665 C 
HETATM  133  N   UNK N   1      18.771  13.264   1.798  0.00  0.00    -0.235 N 
HETATM  134  N   UNK N   1      19.196  15.228   0.616  0.00  0.00    -0.235 N 
HETATM  135  H   UNK N   1      18.989  12.355   2.106  0.00  0.00     0.174 HD
HETATM  136  H   UNK N   1      17.812  13.484   1.778  0.00  0.00     0.174 HD
HETATM  137  H   UNK N   1      18.589  15.355  -0.148  0.00  0.00     0.174 HD
ATOM    138  HN  UNK N   1      19.603  16.124   0.886  1.00  0.00     0.174 HD
HETATM  139  H   UNK N   1      21.544  15.109   1.598  0.00  0.00     0.177 HD
ENDBRANCH 130 131
ENDBRANCH 129 130
ENDBRANCH 128 129
ENDBRANCH  74 128
ENDBRANCH  72  74
ENDBRANCH   1  70
BRANCH   1 140
HETATM  140  C   UNK N   1      22.631  17.045   6.364  0.00  0.00     0.073 C 
BRANCH 140 141
HETATM  141  C   UNK N   1      21.207  16.703   6.087  0.00  0.00    -0.056 A 
HETATM  142  C   UNK N   1      20.274  16.628   7.130  0.00  0.00     0.007 A 
HETATM  143  C   UNK N   1      18.961  16.225   6.865  0.00  0.00     0.001 A 
HETATM  144  C   UNK N   1      18.580  15.885   5.564  0.00  0.00     0.000 A 
HETATM  145  C   UNK N   1      19.514  15.950   4.524  0.00  0.00     0.001 A 
HETATM  146  C   UNK N   1      20.826  16.355   4.788  0.00  0.00     0.007 A 
ENDBRANCH 140 141
ENDBRANCH   1 140
TORSDOF 55
ENDMDL
MODEL 4
REMARK VINA RESULT:      -6.7      2.647      6.047
REMARK WARNING: 32 MAX_TORS EXCEEDED!!!
REMARK  55 active torsions:
REMARK  status: ('A' for Active; 'I' for Inactive)
REMARK    1  A    between atoms: O_12  and  C_101 
REMARK    2  A    between atoms: O_13  and  C_105 
REMARK    3  A    between atoms: O_17  and  C_115 
REMARK    4  A    between atoms: O_18  and  C_118 
REMARK       I    between atoms: N_20  and  C_47 
REMARK       I    between atoms: N_21  and  C_48 
REMARK    5  A    between atoms: C_51  and  N_21 
REMARK    6  A    between atoms: C_49  and  N_22 
REMARK       I    between atoms: N_22  and  C_58 
REMARK       I    between atoms: N_23  and  C_55 
REMARK    7  A    between atoms: N_24  and  C_59 
REMARK    8  A    between atoms: N_25  and  C_60 
REMARK       I    between atoms: N_25  and  C_62 
REMARK    9  A    between atoms: C_61  and  N_26 
REMARK       I    between atoms: N_26  and  C_66 
REMARK   10  A    between atoms: C_65  and  N_27 
REMARK       I    between atoms: N_27  and  C_73 
REMARK   11  A    between atoms: C_72  and  N_29 
REMARK       I    between atoms: N_29  and  C_81 
REMARK   12  A    between atoms: C_77  and  N_30 
REMARK       I    between atoms: N_30  and  C_87 
REMARK   13  A    between atoms: C_79  and  N_31 
REMARK       I    between atoms: N_31  and  C_89 
REMARK   14  A    between atoms: N_32  and  C_75 
REMARK       I    between atoms: N_32  and  C_98 
REMARK   15  A    between atoms: C_80  and  N_33 
REMARK       I    between atoms: N_33  and  C_95 
REMARK   16  A    between atoms: C_94  and  N_35 
REMARK       I    between atoms: N_35  and  C_106 
REMARK   17  A    between atoms: C_102  and  N_38 
REMARK       I    between atoms: N_38  and  C_111 
REMARK       I    between atoms: N_39  and  C_98 
REMARK   18  A    between atoms: C_112  and  N_42 
REMARK       I    between atoms: N_42  and  C_119 
REMARK   19  A    between atoms: C_43  and  C_48 
REMARK   20  A    between atoms: C_47  and  C_49 
REMARK   21  A    between atoms: C_49  and  C_50 
REMARK   22  A    between atoms: C_50  and  C_52 
REMARK   23  A    between atoms: C_51  and  C_53 
REMARK   24  A    between atoms: C_51  and  C_55 
REMARK   25  A    between atoms: C_52  and  C_54 
REMARK   26  A    between atoms: C_54  and  C_59 
REMARK   27  A    between atoms: C_58  and  C_60 
REMARK   28  A    between atoms: C_61  and  C_62 
REMARK   29  A    between atoms: C_61  and  C_63 
REMARK   30  A    between atoms: C_63  and  C_64 
REMARK   31  A    between atoms: C_65  and  C_66 
REMARK   32  A    between atoms: C_65  and  C_67 
REMARK   33  A    between atoms: C_67  and  C_71 
REMARK   34  A    between atoms: C_71  and  C_75 
REMARK   35  A    between atoms: C_72  and  C_73 
REMARK   36  A    between atoms: C_72  and  C_76 
REMARK   37  A    between atoms: C_76  and  C_88 
REMARK   38  A    between atoms: C_77  and  C_81 
REMARK   39  A    between atoms: C_77  and  C_84 
REMARK   40  A    between atoms: C_79  and  C_86 
REMARK   41  A    between atoms: C_79  and  C_87 
REMARK   42  A    between atoms: C_80  and  C_83 
REMARK   43  A    between atoms: C_80  and  C_89 
REMARK   44  A    between atoms: C_83  and  C_90 
REMARK   45  A    between atoms: C_84  and  C_91 
REMARK   46  A    between atoms: C_86  and  C_92 
REMARK   47  A    between atoms: C_90  and  C_93 
REMARK   48  A    between atoms: C_92  and  C_105 
REMARK   49  A    between atoms: C_94  and  C_95 
REMARK   50  A    between atoms: C_94  and  C_101 
REMARK   51  A    between atoms: C_102  and  C_106 
REMARK   52  A    between atoms: C_102  and  C_107 
REMARK   53  A    between atoms: C_107  and  C_110 
REMARK   54  A    between atoms: C_111  and  C_112 
REMARK   55  A    between atoms: C_112  and  C_115 
ROOT
HETATM    1  C   UNK N   1      25.893  16.463   4.732  0.00  0.00     0.180 C 
ENDROOT
BRANCH   1   2
HETATM    2  N   UNK N   1      26.184  15.124   5.217  0.00  0.00    -0.346 N 
HETATM    3  C   UNK N   1      27.206  14.314   4.809  0.00  0.00     0.241 C 
HETATM    4  O   UNK N   1      27.312  13.207   5.309  0.00  0.00    -0.271 OA
HETATM    5  H   UNK N   1      25.585  14.764   5.910  0.00  0.00     0.163 HD
BRANCH   3   6
HETATM    6  C   UNK N   1      28.138  14.669   3.677  0.00  0.00     0.182 C 
BRANCH   6   7
HETATM    7  N   UNK N   1      29.489  14.783   4.141  0.00  0.00    -0.346 N 
HETATM    8  C   UNK N   1      30.410  15.651   3.666  0.00  0.00     0.241 C 
HETATM    9  O   UNK N   1      30.153  16.435   2.764  0.00  0.00    -0.271 OA
HETATM   10  H   UNK N   1      29.768  14.179   4.867  0.00  0.00     0.163 HD
BRANCH   8  11
HETATM   11  C   UNK N   1      31.756  15.573   4.263  0.00  0.00     0.177 C 
BRANCH  11  12
HETATM   12  N   UNK N   1      31.610  15.611   5.691  0.00  0.00    -0.346 N 
HETATM   13  C   UNK N   1      32.124  16.585   6.492  0.00  0.00     0.241 C 
HETATM   14  O   UNK N   1      32.705  17.553   6.020  0.00  0.00    -0.271 OA
HETATM   15  H   UNK N   1      31.104  14.884   6.119  0.00  0.00     0.163 HD
BRANCH  13  16
HETATM   16  C   UNK N   1      32.035  16.417   7.977  0.00  0.00     0.176 C 
BRANCH  16  17
HETATM   17  N   UNK N   1      33.050  17.226   8.630  0.00  0.00    -0.346 N 
HETATM   18  C   UNK N   1      34.269  16.745   9.006  0.00  0.00     0.243 C 
HETATM   19  O   UNK N   1      35.086  17.510   9.491  0.00  0.00    -0.271 OA
HETATM   20  H   UNK N   1      32.847  18.171   8.810  0.00  0.00     0.163 HD
BRANCH  18  21
HETATM   21  C   UNK N   1      34.629  15.284   8.803  0.00  0.00     0.200 C 
BRANCH  21  22
HETATM   22  N   UNK N   1      35.593  14.902   9.800  0.00  0.00    -0.344 N 
HETATM   23  C   UNK N   1      35.202  14.488  11.025  0.00  0.00     0.241 C 
HETATM   24  O   UNK N   1      34.024  14.508  11.349  0.00  0.00    -0.271 OA
HETATM   25  H   UNK N   1      36.553  14.941   9.586  0.00  0.00     0.163 HD
BRANCH  23  26
HETATM   26  C   UNK N   1      36.197  14.002  11.991  0.00  0.00     0.180 C 
BRANCH  26  27
HETATM   27  N   UNK N   1      36.727  12.711  11.672  0.00  0.00    -0.346 N 
HETATM   28  C   UNK N   1      37.835  12.582  10.904  0.00  0.00     0.243 C 
HETATM   29  O   UNK N   1      38.449  13.566  10.517  0.00  0.00    -0.271 OA
HETATM   30  H   UNK N   1      36.281  11.904  12.017  0.00  0.00     0.163 HD
BRANCH  28  31
HETATM   31  C   UNK N   1      38.267  11.228  10.467  0.00  0.00     0.200 C 
BRANCH  31  32
HETATM   32  N   UNK N   1      38.156  11.175   9.029  0.00  0.00    -0.346 N 
HETATM   33  C   UNK N   1      37.000  11.444   8.380  0.00  0.00     0.214 C 
HETATM   34  O   UNK N   1      35.993  11.755   8.998  0.00  0.00    -0.274 OA
HETATM   35  C   UNK N   1      36.947  11.320   6.897  0.00  0.00     0.117 C 
HETATM   36  H   UNK N   1      38.951  10.934   8.500  0.00  0.00     0.163 HD
ENDBRANCH  31  32
BRANCH  31  37
HETATM   37  C   UNK N   1      37.383  10.156  11.090  0.00  0.00     0.199 C 
BRANCH  37  38
HETATM   38  O   UNK N   1      37.540  10.144  12.477  0.00  0.00    -0.398 OA
HETATM   39  H   UNK N   1      38.189   9.595  12.943  0.00  0.00     0.209 HD
ENDBRANCH  37  38
ENDBRANCH  31  37
ENDBRANCH  28  31
ENDBRANCH  26  27
BRANCH  26  40
HETATM   40  C   UNK N   1      36.031  14.324  13.460  0.00  0.00     0.073 C 
BRANCH  40  41
HETATM   41  C   UNK N   1      35.819  13.010  14.099  0.00  0.00    -0.056 A 
HETATM   42  C   UNK N   1      36.754  12.539  15.023  0.00  0.00     0.010 A 
HETATM   43  C   UNK N   1      36.469  11.403  15.779  0.00  0.00     0.037 A 
HETATM   44  C   UNK N   1      35.244  10.747  15.622  0.00  0.00     0.065 A 
HETATM   45  C   UNK N   1      34.312  11.214  14.690  0.00  0.00     0.037 A 
HETATM   46  C   UNK N   1      34.594  12.352  13.936  0.00  0.00     0.010 A 
BRANCH  44  47
HETATM   47  O   UNK N   1      34.958   9.675  16.375  0.00  0.00    -0.361 OA
HETATM   48  H   UNK N   1      34.674   9.659  17.268  0.00  0.00     0.217 HD
ENDBRANCH  44  47
ENDBRANCH  40  41
ENDBRANCH  26  40
ENDBRANCH  23  26
ENDBRANCH  21  22
BRANCH  21  49
HETATM   49  C   UNK N   1      35.111  14.941   7.394  0.00  0.00     0.199 C 
BRANCH  49  50
HETATM   50  O   UNK N   1      35.269  16.111   6.648  0.00  0.00    -0.398 OA
HETATM   51  H   UNK N   1      35.717  16.969   6.718  0.00  0.00     0.209 HD
ENDBRANCH  49  50
ENDBRANCH  21  49
ENDBRANCH  18  21
ENDBRANCH  16  17
BRANCH  16  52
HETATM   52  C   UNK N   1      30.668  16.966   8.372  0.00  0.00     0.035 C 
BRANCH  52  53
HETATM   53  C   UNK N   1      30.721  18.389   8.889  0.00  0.00     0.002 C 
BRANCH  53  54
HETATM   54  C   UNK N   1      29.588  18.632   9.868  0.00  0.00    -0.004 C 
HETATM   55  C   UNK N   1      28.551  17.538   9.730  0.00  0.00     0.005 C 
ENDBRANCH  53  54
ENDBRANCH  52  53
ENDBRANCH  16  52
ENDBRANCH  13  16
ENDBRANCH  11  12
BRANCH  11  56
HETATM   56  C   UNK N   1      32.693  14.482   3.795  0.00  0.00     0.045 C 
BRANCH  56  57
HETATM   57  C   UNK N   1      33.622  15.165   2.802  0.00  0.00     0.112 C 
BRANCH  57  58
HETATM   58  C   UNK N   1      34.565  14.240   2.108  0.00  0.00     0.139 C 
HETATM   59  O   UNK N   1      35.083  14.593   1.062  0.00  0.00    -0.650 OA
BRANCH  58  60
HETATM   60  O   UNK N   1      34.857  13.031   2.625  0.00  0.00    -0.776 OA
HETATM   61  H   UNK N   1      35.282  12.360   3.120  0.00  0.00     0.167 HD
ENDBRANCH  58  60
ENDBRANCH  57  58
ENDBRANCH  56  57
ENDBRANCH  11  56
ENDBRANCH   8  11
ENDBRANCH   6   7
BRANCH   6  62
HETATM   62  C   UNK N   1      28.130  13.685   2.511  0.00  0.00     0.093 C 
BRANCH  62  63
HETATM   63  C   UNK N   1      26.909  12.829   2.476  0.00  0.00     0.028 A 
HETATM   64  N   UNK N   1      26.807  11.618   3.042  0.00  0.00    -0.354 N 
HETATM   65  C   UNK N   1      25.533  11.237   2.820  0.00  0.00     0.180 A 
HETATM   66  H   UNK N   1      27.508  11.115   3.516  0.00  0.00     0.166 HD
HETATM   67  N   UNK N   1      24.840  12.180   2.148  0.00  0.00    -0.360 N 
HETATM   68  C   UNK N   1      25.702  13.189   1.937  0.00  0.00     0.114 A 
ATOM     69  HN  UNK N   1      23.862  12.135   1.860  1.00  0.00     0.166 HD
ENDBRANCH  62  63
ENDBRANCH   6  62
ENDBRANCH   3   6
ENDBRANCH   1   2
BRANCH   1  70
HETATM   70  C   UNK N   1      25.093  16.467   3.458  0.00  0.00     0.241 C 
HETATM   71  O   UNK N   1      25.697  16.434   2.398  0.00  0.00    -0.271 OA
HETATM   72  N   UNK N   1      23.735  16.470   3.435  0.00  0.00    -0.346 N 
HETATM   73  H   UNK N   1      23.308  16.415   2.550  0.00  0.00     0.163 HD
BRANCH  72  74
HETATM   74  C   UNK N   1      22.847  16.548   4.585  0.00  0.00     0.176 C 
BRANCH  74  75
HETATM   75  C   UNK N   1      21.509  15.900   4.308  0.00  0.00     0.241 C 
HETATM   76  O   UNK N   1      20.826  16.313   3.384  0.00  0.00    -0.271 OA
HETATM   77  N   UNK N   1      21.034  14.891   5.076  0.00  0.00    -0.346 N 
HETATM   78  H   UNK N   1      20.131  14.545   4.893  0.00  0.00     0.163 HD
BRANCH  77  79
HETATM   79  C   UNK N   1      21.797  14.302   6.153  0.00  0.00     0.181 C 
BRANCH  79  80
HETATM   80  C   UNK N   1      22.692  13.138   5.842  0.00  0.00     0.241 C 
HETATM   81  O   UNK N   1      23.868  13.332   5.586  0.00  0.00    -0.271 OA
HETATM   82  N   UNK N   1      22.207  11.871   5.844  0.00  0.00    -0.351 N 
HETATM   83  H   UNK N   1      22.793  11.129   5.569  0.00  0.00     0.163 HD
BRANCH  82  84
HETATM   84  C   UNK N   1      20.844  11.588   6.244  0.00  0.00     0.225 C 
BRANCH  84  85
HETATM   85  C   UNK N   1      20.049  11.137   5.054  0.00  0.00     0.236 C 
HETATM   86  O   UNK N   1      18.991  10.538   5.220  0.00  0.00    -0.272 OA
HETATM   87  N   UNK N   1      20.487  11.399   3.800  0.00  0.00    -0.346 N 
HETATM   88  H   UNK N   1      21.315  11.914   3.670  0.00  0.00     0.163 HD
BRANCH  87  89
HETATM   89  C   UNK N   1      19.747  10.926   2.650  0.00  0.00     0.176 C 
BRANCH  89  90
HETATM   90  C   UNK N   1      20.445   9.705   2.055  0.00  0.00     0.243 C 
HETATM   91  O   UNK N   1      21.504   9.905   1.490  0.00  0.00    -0.271 OA
HETATM   92  N   UNK N   1      19.937   8.436   2.079  0.00  0.00    -0.337 N 
HETATM   93  C   UNK N   1      20.582   7.373   1.348  0.00  0.00     0.179 A 
HETATM   94  C   UNK N   1      18.721   8.055   2.715  0.00  0.00     0.127 A 
HETATM   95  C   UNK N   1      19.708   6.150   1.545  0.00  0.00     0.037 A 
HETATM   96  C   UNK N   1      18.477   6.612   2.314  0.00  0.00     0.022 A 
BRANCH  93  97
HETATM   97  C   UNK N   1      21.985   7.107   1.802  0.00  0.00     0.241 C 
HETATM   98  O   UNK N   1      22.859   6.828   0.993  0.00  0.00    -0.271 OA
HETATM   99  N   UNK N   1      22.275   7.232   3.119  0.00  0.00    -0.346 N 
HETATM  100  H   UNK N   1      21.538   7.384   3.754  0.00  0.00     0.163 HD
BRANCH  99 101
HETATM  101  C   UNK N   1      23.624   7.149   3.627  0.00  0.00     0.179 C 
BRANCH 101 102
HETATM  102  C   UNK N   1      23.847   5.828   4.388  0.00  0.00     0.009 C 
HETATM  103  C   UNK N   1      22.535   5.270   4.910  0.00  0.00     0.012 C 
HETATM  104  C   UNK N   1      24.465   4.780   3.476  0.00  0.00     0.012 C 
ENDBRANCH 101 102
BRANCH 101 105
HETATM  105  C   UNK N   1      23.847   8.385   4.464  0.00  0.00     0.238 C 
HETATM  106  O   UNK N   1      23.037   9.296   4.409  0.00  0.00    -0.271 OA
HETATM  107  N   UNK N   1      24.899   8.484   5.304  0.00  0.00    -0.368 N 
HETATM  108  H   UNK N   1      25.123   8.959   6.137  0.00  0.00     0.159 HD
HETATM  109  H   UNK N   1      25.650   7.926   5.000  0.00  0.00     0.159 HD
ENDBRANCH 101 105
ENDBRANCH  99 101
ENDBRANCH  93  97
ENDBRANCH  89  90
BRANCH  89 110
HETATM  110  C   UNK N   1      19.095  12.067   1.847  0.00  0.00     0.035 C 
BRANCH 110 111
HETATM  111  C   UNK N   1      19.890  13.364   1.698  0.00  0.00     0.004 C 
BRANCH 111 112
HETATM  112  C   UNK N   1      19.374  14.283   0.609  0.00  0.00     0.019 C 
BRANCH 112 113
HETATM  113  C   UNK N   1      18.021  13.781   0.137  0.00  0.00     0.111 C 
BRANCH 113 114
HETATM  114  N   UNK N   1      17.202  14.899  -0.303  0.00  0.00    -0.430 N 
HETATM  115  H   UNK N   1      16.382  15.197   0.226  0.00  0.00     0.149 HD
HETATM  116  H   UNK N   1      17.450  15.395  -1.158  0.00  0.00     0.149 HD
ENDBRANCH 113 114
ENDBRANCH 112 113
ENDBRANCH 111 112
ENDBRANCH 110 111
ENDBRANCH  89 110
ENDBRANCH  87  89
ENDBRANCH  84  85
ENDBRANCH  82  84
ENDBRANCH  79  80
BRANCH  79 117
HETATM  117  C   UNK N   1      21.910  15.029   7.492  0.00  0.00     0.075 C 
BRANCH 117 118
HETATM  118  C   UNK N   1      21.581  14.236   8.725  0.00  0.00    -0.028 A 
HETATM  119  C   UNK N   1      22.489  13.507   9.444  0.00  0.00    -0.002 A 
HETATM  120  C   UNK N   1      21.813  12.932  10.479  0.00  0.00     0.042 A 
HETATM  121  C   UNK N   1      23.854  13.309   9.254  0.00  0.00     0.014 A 
HETATM  122  N   UNK N   1      20.510  13.263  10.447  0.00  0.00    -0.365 N 
HETATM  123  C   UNK N   1      22.449  12.112  11.407  0.00  0.00     0.030 A 
HETATM  124  C   UNK N   1      20.353  14.067   9.364  0.00  0.00     0.096 A 
HETATM  125  H   UNK N   1      19.811  12.980  11.080  0.00  0.00     0.165 HD
HETATM  126  C   UNK N   1      23.830  11.887  11.243  0.00  0.00     0.002 A 
HETATM  127  C   UNK N   1      24.529  12.482  10.168  0.00  0.00     0.001 A 
ENDBRANCH 117 118
ENDBRANCH  79 117
ENDBRANCH  77  79
ENDBRANCH  74  75
BRANCH  74 128
HETATM  128  C   UNK N   1      22.651  17.992   5.026  0.00  0.00     0.036 C 
BRANCH 128 129
HETATM  129  C   UNK N   1      22.540  18.955   3.850  0.00  0.00     0.023 C 
BRANCH 129 130
HETATM  130  C   UNK N   1      21.180  19.619   3.849  0.00  0.00     0.138 C 
BRANCH 130 131
HETATM  131  N   UNK N   1      21.070  20.470   2.696  0.00  0.00    -0.227 N 
HETATM  132  C   UNK N   1      20.606  19.972   1.456  0.00  0.00     0.665 C 
HETATM  133  N   UNK N   1      20.058  18.671   1.364  0.00  0.00    -0.235 N 
HETATM  134  N   UNK N   1      20.696  20.700   0.408  0.00  0.00    -0.235 N 
HETATM  135  H   UNK N   1      20.187  17.896   1.957  0.00  0.00     0.174 HD
HETATM  136  H   UNK N   1      19.462  18.520   0.596  0.00  0.00     0.174 HD
HETATM  137  H   UNK N   1      20.903  20.623  -0.551  0.00  0.00     0.174 HD
ATOM    138  HN  UNK N   1      20.485  21.671   0.640  1.00  0.00     0.174 HD
HETATM  139  H   UNK N   1      21.323  21.420   2.770  0.00  0.00     0.177 HD
ENDBRANCH 130 131
ENDBRANCH 129 130
ENDBRANCH 128 129
ENDBRANCH  74 128
ENDBRANCH  72  74
ENDBRANCH   1  70
BRANCH   1 140
HETATM  140  C   UNK N   1      27.184  17.215   4.429  0.00  0.00     0.073 C 
BRANCH 140 141
HETATM  141  C   UNK N   1      27.283  18.563   5.057  0.00  0.00    -0.056 A 
HETATM  142  C   UNK N   1      27.788  18.712   6.354  0.00  0.00     0.007 A 
HETATM  143  C   UNK N   1      27.798  19.972   6.961  0.00  0.00     0.001 A 
HETATM  144  C   UNK N   1      27.292  21.083   6.279  0.00  0.00     0.000 A 
HETATM  145  C   UNK N   1      26.777  20.933   4.988  0.00  0.00     0.001 A 
HETATM  146  C   UNK N   1      26.769  19.674   4.380  0.00  0.00     0.007 A 
ENDBRANCH 140 141
ENDBRANCH   1 140
TORSDOF 55
ENDMDL
MODEL 5
REMARK VINA RESULT:      -6.6      2.427     11.682
REMARK WARNING: 32 MAX_TORS EXCEEDED!!!
REMARK  55 active torsions:
REMARK  status: ('A' for Active; 'I' for Inactive)
REMARK    1  A    between atoms: O_12  and  C_101 
REMARK    2  A    between atoms: O_13  and  C_105 
REMARK    3  A    between atoms: O_17  and  C_115 
REMARK    4  A    between atoms: O_18  and  C_118 
REMARK       I    between atoms: N_20  and  C_47 
REMARK       I    between atoms: N_21  and  C_48 
REMARK    5  A    between atoms: C_51  and  N_21 
REMARK    6  A    between atoms: C_49  and  N_22 
REMARK       I    between atoms: N_22  and  C_58 
REMARK       I    between atoms: N_23  and  C_55 
REMARK    7  A    between atoms: N_24  and  C_59 
REMARK    8  A    between atoms: N_25  and  C_60 
REMARK       I    between atoms: N_25  and  C_62 
REMARK    9  A    between atoms: C_61  and  N_26 
REMARK       I    between atoms: N_26  and  C_66 
REMARK   10  A    between atoms: C_65  and  N_27 
REMARK       I    between atoms: N_27  and  C_73 
REMARK   11  A    between atoms: C_72  and  N_29 
REMARK       I    between atoms: N_29  and  C_81 
REMARK   12  A    between atoms: C_77  and  N_30 
REMARK       I    between atoms: N_30  and  C_87 
REMARK   13  A    between atoms: C_79  and  N_31 
REMARK       I    between atoms: N_31  and  C_89 
REMARK   14  A    between atoms: N_32  and  C_75 
REMARK       I    between atoms: N_32  and  C_98 
REMARK   15  A    between atoms: C_80  and  N_33 
REMARK       I    between atoms: N_33  and  C_95 
REMARK   16  A    between atoms: C_94  and  N_35 
REMARK       I    between atoms: N_35  and  C_106 
REMARK   17  A    between atoms: C_102  and  N_38 
REMARK       I    between atoms: N_38  and  C_111 
REMARK       I    between atoms: N_39  and  C_98 
REMARK   18  A    between atoms: C_112  and  N_42 
REMARK       I    between atoms: N_42  and  C_119 
REMARK   19  A    between atoms: C_43  and  C_48 
REMARK   20  A    between atoms: C_47  and  C_49 
REMARK   21  A    between atoms: C_49  and  C_50 
REMARK   22  A    between atoms: C_50  and  C_52 
REMARK   23  A    between atoms: C_51  and  C_53 
REMARK   24  A    between atoms: C_51  and  C_55 
REMARK   25  A    between atoms: C_52  and  C_54 
REMARK   26  A    between atoms: C_54  and  C_59 
REMARK   27  A    between atoms: C_58  and  C_60 
REMARK   28  A    between atoms: C_61  and  C_62 
REMARK   29  A    between atoms: C_61  and  C_63 
REMARK   30  A    between atoms: C_63  and  C_64 
REMARK   31  A    between atoms: C_65  and  C_66 
REMARK   32  A    between atoms: C_65  and  C_67 
REMARK   33  A    between atoms: C_67  and  C_71 
REMARK   34  A    between atoms: C_71  and  C_75 
REMARK   35  A    between atoms: C_72  and  C_73 
REMARK   36  A    between atoms: C_72  and  C_76 
REMARK   37  A    between atoms: C_76  and  C_88 
REMARK   38  A    between atoms: C_77  and  C_81 
REMARK   39  A    between atoms: C_77  and  C_84 
REMARK   40  A    between atoms: C_79  and  C_86 
REMARK   41  A    between atoms: C_79  and  C_87 
REMARK   42  A    between atoms: C_80  and  C_83 
REMARK   43  A    between atoms: C_80  and  C_89 
REMARK   44  A    between atoms: C_83  and  C_90 
REMARK   45  A    between atoms: C_84  and  C_91 
REMARK   46  A    between atoms: C_86  and  C_92 
REMARK   47  A    between atoms: C_90  and  C_93 
REMARK   48  A    between atoms: C_92  and  C_105 
REMARK   49  A    between atoms: C_94  and  C_95 
REMARK   50  A    between atoms: C_94  and  C_101 
REMARK   51  A    between atoms: C_102  and  C_106 
REMARK   52  A    between atoms: C_102  and  C_107 
REMARK   53  A    between atoms: C_107  and  C_110 
REMARK   54  A    between atoms: C_111  and  C_112 
REMARK   55  A    between atoms: C_112  and  C_115 
ROOT
HETATM    1  C   UNK N   1      29.676  15.607   5.620  0.00  0.00     0.180 C 
ENDROOT
BRANCH   1   2
HETATM    2  N   UNK N   1      28.711  14.539   5.416  0.00  0.00    -0.346 N 
HETATM    3  C   UNK N   1      27.371  14.591   5.676  0.00  0.00     0.241 C 
HETATM    4  O   UNK N   1      26.693  13.602   5.458  0.00  0.00    -0.271 OA
HETATM    5  H   UNK N   1      29.059  13.692   5.053  0.00  0.00     0.163 HD
BRANCH   3   6
HETATM    6  C   UNK N   1      26.706  15.771   6.341  0.00  0.00     0.182 C 
BRANCH   6   7
HETATM    7  N   UNK N   1      25.285  15.726   6.161  0.00  0.00    -0.346 N 
HETATM    8  C   UNK N   1      24.585  16.461   5.267  0.00  0.00     0.241 C 
HETATM    9  O   UNK N   1      25.132  17.255   4.516  0.00  0.00    -0.271 OA
HETATM   10  H   UNK N   1      24.776  15.108   6.735  0.00  0.00     0.163 HD
BRANCH   8  11
HETATM   11  C   UNK N   1      23.121  16.286   5.274  0.00  0.00     0.177 C 
BRANCH  11  12
HETATM   12  N   UNK N   1      22.793  15.261   4.324  0.00  0.00    -0.346 N 
HETATM   13  C   UNK N   1      22.017  15.453   3.222  0.00  0.00     0.241 C 
HETATM   14  O   UNK N   1      21.593  16.563   2.931  0.00  0.00    -0.271 OA
HETATM   15  H   UNK N   1      23.154  14.359   4.480  0.00  0.00     0.163 HD
BRANCH  13  16
HETATM   16  C   UNK N   1      21.622  14.263   2.403  0.00  0.00     0.176 C 
BRANCH  16  17
HETATM   17  N   UNK N   1      20.174  14.180   2.314  0.00  0.00    -0.346 N 
HETATM   18  C   UNK N   1      19.465  13.053   2.602  0.00  0.00     0.243 C 
HETATM   19  O   UNK N   1      18.246  13.091   2.562  0.00  0.00    -0.271 OA
HETATM   20  H   UNK N   1      19.679  14.982   2.030  0.00  0.00     0.163 HD
BRANCH  18  21
HETATM   21  C   UNK N   1      20.169  11.767   2.998  0.00  0.00     0.200 C 
BRANCH  21  22
HETATM   22  N   UNK N   1      21.090  12.053   4.066  0.00  0.00    -0.344 N 
HETATM   23  C   UNK N   1      20.770  11.788   5.351  0.00  0.00     0.241 C 
HETATM   24  O   UNK N   1      19.658  11.378   5.651  0.00  0.00    -0.271 OA
HETATM   25  H   UNK N   1      21.967  12.447   3.856  0.00  0.00     0.163 HD
BRANCH  23  26
HETATM   26  C   UNK N   1      21.764  11.988   6.414  0.00  0.00     0.180 C 
BRANCH  26  27
HETATM   27  N   UNK N   1      22.573  10.835   6.672  0.00  0.00    -0.346 N 
HETATM   28  C   UNK N   1      23.631  10.534   5.881  0.00  0.00     0.243 C 
HETATM   29  O   UNK N   1      23.962  11.275   4.966  0.00  0.00    -0.271 OA
HETATM   30  H   UNK N   1      22.359  10.253   7.436  0.00  0.00     0.163 HD
BRANCH  28  31
HETATM   31  C   UNK N   1      24.352   9.251   6.084  0.00  0.00     0.200 C 
BRANCH  31  32
HETATM   32  N   UNK N   1      24.311   8.522   4.840  0.00  0.00    -0.346 N 
HETATM   33  C   UNK N   1      25.351   7.776   4.401  0.00  0.00     0.214 C 
HETATM   34  O   UNK N   1      26.377   7.685   5.058  0.00  0.00    -0.274 OA
HETATM   35  C   UNK N   1      25.256   7.092   3.082  0.00  0.00     0.117 C 
HETATM   36  H   UNK N   1      23.496   8.569   4.289  0.00  0.00     0.163 HD
ENDBRANCH  31  32
BRANCH  31  37
HETATM   37  C   UNK N   1      23.689   8.431   7.182  0.00  0.00     0.199 C 
BRANCH  37  38
HETATM   38  O   UNK N   1      24.496   7.346   7.533  0.00  0.00    -0.398 OA
HETATM   39  H   UNK N   1      24.763   7.144   8.443  0.00  0.00     0.209 HD
ENDBRANCH  37  38
ENDBRANCH  31  37
ENDBRANCH  28  31
ENDBRANCH  26  27
BRANCH  26  40
HETATM   40  C   UNK N   1      21.419  12.856   7.605  0.00  0.00     0.073 C 
BRANCH  40  41
HETATM   41  C   UNK N   1      22.513  12.608   8.565  0.00  0.00    -0.056 A 
HETATM   42  C   UNK N   1      23.748  13.233   8.373  0.00  0.00     0.010 A 
HETATM   43  C   UNK N   1      24.720  13.169   9.370  0.00  0.00     0.037 A 
HETATM   44  C   UNK N   1      24.452  12.495  10.565  0.00  0.00     0.065 A 
HETATM   45  C   UNK N   1      23.220  11.861  10.754  0.00  0.00     0.037 A 
HETATM   46  C   UNK N   1      22.246  11.927   9.758  0.00  0.00     0.010 A 
BRANCH  44  47
HETATM   47  O   UNK N   1      25.375  12.465  11.537  0.00  0.00    -0.361 OA
HETATM   48  H   UNK N   1      25.330  12.017  12.359  0.00  0.00     0.217 HD
ENDBRANCH  44  47
ENDBRANCH  40  41
ENDBRANCH  26  40
ENDBRANCH  23  26
ENDBRANCH  21  22
BRANCH  21  49
HETATM   49  C   UNK N   1      20.856  11.040   1.843  0.00  0.00     0.199 C 
BRANCH  49  50
HETATM   50  O   UNK N   1      20.325  11.475   0.626  0.00  0.00    -0.398 OA
HETATM   51  H   UNK N   1      20.060  12.304   0.197  0.00  0.00     0.209 HD
ENDBRANCH  49  50
ENDBRANCH  21  49
ENDBRANCH  18  21
ENDBRANCH  16  17
BRANCH  16  52
HETATM   52  C   UNK N   1      22.167  14.528   1.003  0.00  0.00     0.035 C 
BRANCH  52  53
HETATM   53  C   UNK N   1      23.670  14.364   0.905  0.00  0.00     0.002 C 
BRANCH  53  54
HETATM   54  C   UNK N   1      24.035  12.892   0.890  0.00  0.00    -0.004 C 
HETATM   55  C   UNK N   1      23.568  12.264  -0.406  0.00  0.00     0.005 C 
ENDBRANCH  53  54
ENDBRANCH  52  53
ENDBRANCH  16  52
ENDBRANCH  13  16
ENDBRANCH  11  12
BRANCH  11  56
HETATM   56  C   UNK N   1      22.421  16.104   6.603  0.00  0.00     0.045 C 
BRANCH  56  57
HETATM   57  C   UNK N   1      21.135  16.907   6.479  0.00  0.00     0.112 C 
BRANCH  57  58
HETATM   58  C   UNK N   1      19.903  16.075   6.346  0.00  0.00     0.139 C 
HETATM   59  O   UNK N   1      19.086  16.073   7.253  0.00  0.00    -0.650 OA
BRANCH  58  60
HETATM   60  O   UNK N   1      19.678  15.340   5.241  0.00  0.00    -0.776 OA
HETATM   61  H   UNK N   1      19.288  14.727   4.650  0.00  0.00     0.167 HD
ENDBRANCH  58  60
ENDBRANCH  57  58
ENDBRANCH  56  57
ENDBRANCH  11  56
ENDBRANCH   8  11
ENDBRANCH   6   7
BRANCH   6  62
HETATM   62  C   UNK N   1      26.979  15.898   7.837  0.00  0.00     0.093 C 
BRANCH  62  63
HETATM   63  C   UNK N   1      27.691  17.159   8.197  0.00  0.00     0.028 A 
HETATM   64  N   UNK N   1      28.237  17.414   9.394  0.00  0.00    -0.354 N 
HETATM   65  C   UNK N   1      28.817  18.624   9.260  0.00  0.00     0.180 A 
HETATM   66  H   UNK N   1      28.219  16.844  10.197  0.00  0.00     0.166 HD
HETATM   67  N   UNK N   1      28.660  19.118   8.014  0.00  0.00    -0.360 N 
HETATM   68  C   UNK N   1      27.957  18.192   7.338  0.00  0.00     0.114 A 
ATOM     69  HN  UNK N   1      29.004  20.010   7.659  1.00  0.00     0.166 HD
ENDBRANCH  62  63
ENDBRANCH   6  62
ENDBRANCH   3   6
ENDBRANCH   1   2
BRANCH   1  70
HETATM   70  C   UNK N   1      29.973  16.380   4.364  0.00  0.00     0.241 C 
HETATM   71  O   UNK N   1      29.713  17.572   4.346  0.00  0.00    -0.271 OA
HETATM   72  N   UNK N   1      30.546  15.820   3.267  0.00  0.00    -0.346 N 
HETATM   73  H   UNK N   1      30.749  16.425   2.518  0.00  0.00     0.163 HD
BRANCH  72  74
HETATM   74  C   UNK N   1      30.888  14.418   3.086  0.00  0.00     0.176 C 
BRANCH  74  75
HETATM   75  C   UNK N   1      32.374  14.223   2.881  0.00  0.00     0.241 C 
HETATM   76  O   UNK N   1      33.056  15.171   2.526  0.00  0.00    -0.271 OA
HETATM   77  N   UNK N   1      32.963  13.017   3.054  0.00  0.00    -0.346 N 
HETATM   78  H   UNK N   1      33.922  12.928   2.849  0.00  0.00     0.163 HD
BRANCH  77  79
HETATM   79  C   UNK N   1      32.246  11.856   3.527  0.00  0.00     0.181 C 
BRANCH  79  80
HETATM   80  C   UNK N   1      31.568  11.929   4.864  0.00  0.00     0.241 C 
HETATM   81  O   UNK N   1      30.355  11.822   4.933  0.00  0.00    -0.271 OA
HETATM   82  N   UNK N   1      32.290  12.111   5.998  0.00  0.00    -0.351 N 
HETATM   83  H   UNK N   1      31.820  12.227   6.856  0.00  0.00     0.163 HD
BRANCH  82  84
HETATM   84  C   UNK N   1      33.737  12.139   5.972  0.00  0.00     0.225 C 
BRANCH  84  85
HETATM   85  C   UNK N   1      34.261  12.616   7.296  0.00  0.00     0.236 C 
HETATM   86  O   UNK N   1      33.499  13.151   8.094  0.00  0.00    -0.272 OA
HETATM   87  N   UNK N   1      35.565  12.447   7.615  0.00  0.00    -0.346 N 
HETATM   88  H   UNK N   1      36.166  11.981   6.989  0.00  0.00     0.163 HD
BRANCH  87  89
HETATM   89  C   UNK N   1      36.084  12.946   8.870  0.00  0.00     0.176 C 
BRANCH  89  90
HETATM   90  C   UNK N   1      35.798  11.939   9.982  0.00  0.00     0.243 C 
HETATM   91  O   UNK N   1      34.874  12.199  10.728  0.00  0.00    -0.271 OA
HETATM   92  N   UNK N   1      36.537  10.811  10.211  0.00  0.00    -0.337 N 
HETATM   93  C   UNK N   1      36.299  10.005  11.384  0.00  0.00     0.179 A 
HETATM   94  C   UNK N   1      37.633  10.376   9.413  0.00  0.00     0.127 A 
HETATM   95  C   UNK N   1      37.338   8.901  11.340  0.00  0.00     0.037 A 
HETATM   96  C   UNK N   1      38.248   9.204  10.156  0.00  0.00     0.022 A 
BRANCH  93  97
HETATM   97  C   UNK N   1      34.915   9.434  11.442  0.00  0.00     0.241 C 
HETATM   98  O   UNK N   1      34.308   9.379  12.503  0.00  0.00    -0.271 OA
HETATM   99  N   UNK N   1      34.332   9.028  10.288  0.00  0.00    -0.346 N 
HETATM  100  H   UNK N   1      34.870   9.016   9.464  0.00  0.00     0.163 HD
BRANCH  99 101
HETATM  101  C   UNK N   1      32.951   8.613  10.223  0.00  0.00     0.179 C 
BRANCH 101 102
HETATM  102  C   UNK N   1      32.825   7.215   9.589  0.00  0.00     0.009 C 
HETATM  103  C   UNK N   1      34.177   6.530   9.504  0.00  0.00     0.012 C 
HETATM  104  C   UNK N   1      31.909   6.329  10.419  0.00  0.00     0.012 C 
ENDBRANCH 101 102
BRANCH 101 105
HETATM  105  C   UNK N   1      32.209   9.695   9.475  0.00  0.00     0.238 C 
HETATM  106  O   UNK N   1      31.398   9.378   8.620  0.00  0.00    -0.271 OA
HETATM  107  N   UNK N   1      32.392  11.000   9.764  0.00  0.00    -0.368 N 
HETATM  108  H   UNK N   1      31.880  11.839   9.699  0.00  0.00     0.159 HD
HETATM  109  H   UNK N   1      33.286  11.159  10.144  0.00  0.00     0.159 HD
ENDBRANCH 101 105
ENDBRANCH  99 101
ENDBRANCH  93  97
ENDBRANCH  89  90
BRANCH  89 110
HETATM  110  C   UNK N   1      35.975  14.477   8.996  0.00  0.00     0.035 C 
BRANCH 110 111
HETATM  111  C   UNK N   1      36.650  15.132  10.201  0.00  0.00     0.004 C 
BRANCH 111 112
HETATM  112  C   UNK N   1      35.682  15.701  11.218  0.00  0.00     0.019 C 
BRANCH 112 113
HETATM  113  C   UNK N   1      35.849  14.956  12.531  0.00  0.00     0.111 C 
BRANCH 113 114
HETATM  114  N   UNK N   1      36.950  14.012  12.431  0.00  0.00    -0.430 N 
HETATM  115  H   UNK N   1      37.034  13.225  13.075  0.00  0.00     0.149 HD
HETATM  116  H   UNK N   1      37.653  14.139  11.704  0.00  0.00     0.149 HD
ENDBRANCH 113 114
ENDBRANCH 112 113
ENDBRANCH 111 112
ENDBRANCH 110 111
ENDBRANCH  89 110
ENDBRANCH  87  89
ENDBRANCH  84  85
ENDBRANCH  82  84
ENDBRANCH  79  80
BRANCH  79 117
HETATM  117  C   UNK N   1      31.942  10.705   2.567  0.00  0.00     0.075 C 
BRANCH 117 118
HETATM  118  C   UNK N   1      32.446  10.845   1.159  0.00  0.00    -0.028 A 
HETATM  119  C   UNK N   1      31.647  10.883   0.049  0.00  0.00    -0.002 A 
HETATM  120  C   UNK N   1      32.466  11.012  -1.032  0.00  0.00     0.042 A 
HETATM  121  C   UNK N   1      30.263  10.806  -0.080  0.00  0.00     0.014 A 
HETATM  122  N   UNK N   1      33.757  11.057  -0.657  0.00  0.00    -0.365 N 
HETATM  123  C   UNK N   1      31.967  11.076  -2.330  0.00  0.00     0.030 A 
HETATM  124  C   UNK N   1      33.757  10.951   0.698  0.00  0.00     0.096 A 
HETATM  125  H   UNK N   1      34.542  11.148  -1.243  0.00  0.00     0.165 HD
HETATM  126  C   UNK N   1      30.570  10.997  -2.497  0.00  0.00     0.002 A 
HETATM  127  C   UNK N   1      29.722  10.860  -1.376  0.00  0.00     0.001 A 
ENDBRANCH 117 118
ENDBRANCH  79 117
ENDBRANCH  77  79
ENDBRANCH  74  75
BRANCH  74 128
HETATM  128  C   UNK N   1      30.113  13.813   1.923  0.00  0.00     0.036 C 
BRANCH 128 129
HETATM  129  C   UNK N   1      28.648  14.231   1.913  0.00  0.00     0.023 C 
BRANCH 129 130
HETATM  130  C   UNK N   1      27.758  13.007   1.929  0.00  0.00     0.138 C 
BRANCH 130 131
HETATM  131  N   UNK N   1      28.138  12.159   3.025  0.00  0.00    -0.227 N 
HETATM  132  C   UNK N   1      27.278  11.142   3.500  0.00  0.00     0.665 C 
HETATM  133  N   UNK N   1      26.102  10.805   2.789  0.00  0.00    -0.235 N 
HETATM  134  N   UNK N   1      27.560  10.532   4.588  0.00  0.00    -0.235 N 
HETATM  135  H   UNK N   1      25.586  11.342   2.145  0.00  0.00     0.174 HD
HETATM  136  H   UNK N   1      25.749   9.903   2.965  0.00  0.00     0.174 HD
HETATM  137  H   UNK N   1      27.118  10.167   5.388  0.00  0.00     0.174 HD
ATOM    138  HN  UNK N   1      28.566  10.370   4.645  1.00  0.00     0.174 HD
HETATM  139  H   UNK N   1      29.015  12.289   3.455  0.00  0.00     0.177 HD
ENDBRANCH 130 131
ENDBRANCH 129 130
ENDBRANCH 128 129
ENDBRANCH  74 128
ENDBRANCH  72  74
ENDBRANCH   1  70
BRANCH   1 140
HETATM  140  C   UNK N   1      31.008  15.041   6.100  0.00  0.00     0.073 C 
BRANCH 140 141
HETATM  141  C   UNK N   1      31.933  16.044   6.699  0.00  0.00    -0.056 A 
HETATM  142  C   UNK N   1      31.505  16.880   7.737  0.00  0.00     0.007 A 
HETATM  143  C   UNK N   1      32.357  17.873   8.233  0.00  0.00     0.001 A 
HETATM  144  C   UNK N   1      33.632  18.040   7.684  0.00  0.00     0.000 A 
HETATM  145  C   UNK N   1      34.056  17.212   6.640  0.00  0.00     0.001 A 
HETATM  146  C   UNK N   1      33.205  16.219   6.146  0.00  0.00     0.007 A 
ENDBRANCH 140 141
ENDBRANCH   1 140
TORSDOF 55
ENDMDL
MODEL 6
REMARK VINA RESULT:      -6.5      1.577      2.121
REMARK WARNING: 32 MAX_TORS EXCEEDED!!!
REMARK  55 active torsions:
REMARK  status: ('A' for Active; 'I' for Inactive)
REMARK    1  A    between atoms: O_12  and  C_101 
REMARK    2  A    between atoms: O_13  and  C_105 
REMARK    3  A    between atoms: O_17  and  C_115 
REMARK    4  A    between atoms: O_18  and  C_118 
REMARK       I    between atoms: N_20  and  C_47 
REMARK       I    between atoms: N_21  and  C_48 
REMARK    5  A    between atoms: C_51  and  N_21 
REMARK    6  A    between atoms: C_49  and  N_22 
REMARK       I    between atoms: N_22  and  C_58 
REMARK       I    between atoms: N_23  and  C_55 
REMARK    7  A    between atoms: N_24  and  C_59 
REMARK    8  A    between atoms: N_25  and  C_60 
REMARK       I    between atoms: N_25  and  C_62 
REMARK    9  A    between atoms: C_61  and  N_26 
REMARK       I    between atoms: N_26  and  C_66 
REMARK   10  A    between atoms: C_65  and  N_27 
REMARK       I    between atoms: N_27  and  C_73 
REMARK   11  A    between atoms: C_72  and  N_29 
REMARK       I    between atoms: N_29  and  C_81 
REMARK   12  A    between atoms: C_77  and  N_30 
REMARK       I    between atoms: N_30  and  C_87 
REMARK   13  A    between atoms: C_79  and  N_31 
REMARK       I    between atoms: N_31  and  C_89 
REMARK   14  A    between atoms: N_32  and  C_75 
REMARK       I    between atoms: N_32  and  C_98 
REMARK   15  A    between atoms: C_80  and  N_33 
REMARK       I    between atoms: N_33  and  C_95 
REMARK   16  A    between atoms: C_94  and  N_35 
REMARK       I    between atoms: N_35  and  C_106 
REMARK   17  A    between atoms: C_102  and  N_38 
REMARK       I    between atoms: N_38  and  C_111 
REMARK       I    between atoms: N_39  and  C_98 
REMARK   18  A    between atoms: C_112  and  N_42 
REMARK       I    between atoms: N_42  and  C_119 
REMARK   19  A    between atoms: C_43  and  C_48 
REMARK   20  A    between atoms: C_47  and  C_49 
REMARK   21  A    between atoms: C_49  and  C_50 
REMARK   22  A    between atoms: C_50  and  C_52 
REMARK   23  A    between atoms: C_51  and  C_53 
REMARK   24  A    between atoms: C_51  and  C_55 
REMARK   25  A    between atoms: C_52  and  C_54 
REMARK   26  A    between atoms: C_54  and  C_59 
REMARK   27  A    between atoms: C_58  and  C_60 
REMARK   28  A    between atoms: C_61  and  C_62 
REMARK   29  A    between atoms: C_61  and  C_63 
REMARK   30  A    between atoms: C_63  and  C_64 
REMARK   31  A    between atoms: C_65  and  C_66 
REMARK   32  A    between atoms: C_65  and  C_67 
REMARK   33  A    between atoms: C_67  and  C_71 
REMARK   34  A    between atoms: C_71  and  C_75 
REMARK   35  A    between atoms: C_72  and  C_73 
REMARK   36  A    between atoms: C_72  and  C_76 
REMARK   37  A    between atoms: C_76  and  C_88 
REMARK   38  A    between atoms: C_77  and  C_81 
REMARK   39  A    between atoms: C_77  and  C_84 
REMARK   40  A    between atoms: C_79  and  C_86 
REMARK   41  A    between atoms: C_79  and  C_87 
REMARK   42  A    between atoms: C_80  and  C_83 
REMARK   43  A    between atoms: C_80  and  C_89 
REMARK   44  A    between atoms: C_83  and  C_90 
REMARK   45  A    between atoms: C_84  and  C_91 
REMARK   46  A    between atoms: C_86  and  C_92 
REMARK   47  A    between atoms: C_90  and  C_93 
REMARK   48  A    between atoms: C_92  and  C_105 
REMARK   49  A    between atoms: C_94  and  C_95 
REMARK   50  A    between atoms: C_94  and  C_101 
REMARK   51  A    between atoms: C_102  and  C_106 
REMARK   52  A    between atoms: C_102  and  C_107 
REMARK   53  A    between atoms: C_107  and  C_110 
REMARK   54  A    between atoms: C_111  and  C_112 
REMARK   55  A    between atoms: C_112  and  C_115 
ROOT
HETATM    1  C   UNK N   1      24.900  18.046   4.929  0.00  0.00     0.180 C 
ENDROOT
BRANCH   1   2
HETATM    2  N   UNK N   1      25.797  19.027   5.519  0.00  0.00    -0.346 N 
HETATM    3  C   UNK N   1      27.057  18.796   5.994  0.00  0.00     0.241 C 
HETATM    4  O   UNK N   1      27.684  19.727   6.470  0.00  0.00    -0.271 OA
HETATM    5  H   UNK N   1      25.463  19.951   5.581  0.00  0.00     0.163 HD
BRANCH   3   6
HETATM    6  C   UNK N   1      27.666  17.419   6.079  0.00  0.00     0.182 C 
BRANCH   6   7
HETATM    7  N   UNK N   1      29.009  17.420   5.576  0.00  0.00    -0.346 N 
HETATM    8  C   UNK N   1      29.441  16.735   4.494  0.00  0.00     0.241 C 
HETATM    9  O   UNK N   1      28.691  16.028   3.836  0.00  0.00    -0.271 OA
HETATM   10  H   UNK N   1      29.670  17.967   6.059  0.00  0.00     0.163 HD
BRANCH   8  11
HETATM   11  C   UNK N   1      30.875  16.849   4.172  0.00  0.00     0.177 C 
BRANCH  11  12
HETATM   12  N   UNK N   1      31.622  16.372   5.302  0.00  0.00    -0.346 N 
HETATM   13  C   UNK N   1      32.811  16.892   5.714  0.00  0.00     0.241 C 
HETATM   14  O   UNK N   1      33.299  17.871   5.165  0.00  0.00    -0.271 OA
HETATM   15  H   UNK N   1      31.248  15.620   5.815  0.00  0.00     0.163 HD
BRANCH  13  16
HETATM   16  C   UNK N   1      33.561  16.197   6.808  0.00  0.00     0.176 C 
BRANCH  16  17
HETATM   17  N   UNK N   1      32.659  15.875   7.901  0.00  0.00    -0.346 N 
HETATM   18  C   UNK N   1      33.081  15.444   9.123  0.00  0.00     0.243 C 
HETATM   19  O   UNK N   1      32.258  15.257  10.004  0.00  0.00    -0.271 OA
HETATM   20  H   UNK N   1      31.692  15.974   7.751  0.00  0.00     0.163 HD
BRANCH  18  21
HETATM   21  C   UNK N   1      34.556  15.222   9.406  0.00  0.00     0.200 C 
BRANCH  21  22
HETATM   22  N   UNK N   1      34.701  14.035  10.207  0.00  0.00    -0.344 N 
HETATM   23  C   UNK N   1      35.662  13.126   9.935  0.00  0.00     0.241 C 
HETATM   24  O   UNK N   1      36.380  13.244   8.953  0.00  0.00    -0.271 OA
HETATM   25  H   UNK N   1      34.090  13.883  10.963  0.00  0.00     0.163 HD
BRANCH  23  26
HETATM   26  C   UNK N   1      35.861  11.975  10.827  0.00  0.00     0.180 C 
BRANCH  26  27
HETATM   27  N   UNK N   1      36.523  12.303  12.053  0.00  0.00    -0.346 N 
HETATM   28  C   UNK N   1      35.818  12.660  13.153  0.00  0.00     0.243 C 
HETATM   29  O   UNK N   1      34.596  12.648  13.147  0.00  0.00    -0.271 OA
HETATM   30  H   UNK N   1      37.506  12.267  12.098  0.00  0.00     0.163 HD
BRANCH  28  31
HETATM   31  C   UNK N   1      36.542  13.142  14.359  0.00  0.00     0.200 C 
BRANCH  31  32
HETATM   32  N   UNK N   1      35.825  12.670  15.519  0.00  0.00    -0.346 N 
HETATM   33  C   UNK N   1      36.114  11.495  16.122  0.00  0.00     0.214 C 
HETATM   34  O   UNK N   1      37.013  10.781  15.704  0.00  0.00    -0.274 OA
HETATM   35  C   UNK N   1      35.298  11.048  17.285  0.00  0.00     0.117 C 
HETATM   36  H   UNK N   1      35.098  13.225  15.885  0.00  0.00     0.163 HD
ENDBRANCH  31  32
BRANCH  31  37
HETATM   37  C   UNK N   1      36.603  14.663  14.376  0.00  0.00     0.199 C 
BRANCH  37  38
HETATM   38  O   UNK N   1      36.474  15.169  13.081  0.00  0.00    -0.398 OA
HETATM   39  H   UNK N   1      37.136  15.733  12.654  0.00  0.00     0.209 HD
ENDBRANCH  37  38
ENDBRANCH  31  37
ENDBRANCH  28  31
ENDBRANCH  26  27
BRANCH  26  40
HETATM   40  C   UNK N   1      36.161  10.615  10.235  0.00  0.00     0.073 C 
BRANCH  40  41
HETATM   41  C   UNK N   1      34.838  10.091   9.839  0.00  0.00    -0.056 A 
HETATM   42  C   UNK N   1      33.850   9.919  10.811  0.00  0.00     0.010 A 
HETATM   43  C   UNK N   1      32.544   9.619  10.426  0.00  0.00     0.037 A 
HETATM   44  C   UNK N   1      32.223   9.508   9.070  0.00  0.00     0.065 A 
HETATM   45  C   UNK N   1      33.214   9.671   8.098  0.00  0.00     0.037 A 
HETATM   46  C   UNK N   1      34.520   9.974   8.480  0.00  0.00     0.010 A 
BRANCH  44  47
HETATM   47  O   UNK N   1      30.959   9.255   8.701  0.00  0.00    -0.361 OA
HETATM   48  H   UNK N   1      30.501   8.437   8.740  0.00  0.00     0.217 HD
ENDBRANCH  44  47
ENDBRANCH  40  41
ENDBRANCH  26  40
ENDBRANCH  23  26
ENDBRANCH  21  22
BRANCH  21  49
HETATM   49  C   UNK N   1      35.265  16.418  10.042  0.00  0.00     0.199 C 
BRANCH  49  50
HETATM   50  O   UNK N   1      34.743  16.657  11.315  0.00  0.00    -0.398 OA
HETATM   51  H   UNK N   1      34.053  16.308  11.901  0.00  0.00     0.209 HD
ENDBRANCH  49  50
ENDBRANCH  21  49
ENDBRANCH  18  21
ENDBRANCH  16  17
BRANCH  16  52
HETATM   52  C   UNK N   1      34.053  14.888   6.201  0.00  0.00     0.035 C 
BRANCH  52  53
HETATM   53  C   UNK N   1      35.481  14.960   5.700  0.00  0.00     0.002 C 
BRANCH  53  54
HETATM   54  C   UNK N   1      35.964  13.580   5.297  0.00  0.00    -0.004 C 
HETATM   55  C   UNK N   1      34.973  12.535   5.765  0.00  0.00     0.005 C 
ENDBRANCH  53  54
ENDBRANCH  52  53
ENDBRANCH  16  52
ENDBRANCH  13  16
ENDBRANCH  11  12
BRANCH  11  56
HETATM   56  C   UNK N   1      31.369  16.284   2.859  0.00  0.00     0.045 C 
BRANCH  56  57
HETATM   57  C   UNK N   1      31.884  14.894   3.201  0.00  0.00     0.112 C 
BRANCH  57  58
HETATM   58  C   UNK N   1      33.236  14.588   2.651  0.00  0.00     0.139 C 
HETATM   59  O   UNK N   1      33.954  15.506   2.290  0.00  0.00    -0.650 OA
BRANCH  58  60
HETATM   60  O   UNK N   1      33.676  13.318   2.558  0.00  0.00    -0.776 OA
HETATM   61  H   UNK N   1      33.712  12.408   2.342  0.00  0.00     0.167 HD
ENDBRANCH  58  60
ENDBRANCH  57  58
ENDBRANCH  56  57
ENDBRANCH  11  56
ENDBRANCH   8  11
ENDBRANCH   6   7
BRANCH   6  62
HETATM   62  C   UNK N   1      27.698  16.820   7.482  0.00  0.00     0.093 C 
BRANCH  62  63
HETATM   63  C   UNK N   1      28.715  17.456   8.367  0.00  0.00     0.028 A 
HETATM   64  N   UNK N   1      29.867  17.996   7.944  0.00  0.00    -0.354 N 
HETATM   65  C   UNK N   1      30.443  18.500   9.054  0.00  0.00     0.180 A 
HETATM   66  H   UNK N   1      30.218  18.020   7.024  0.00  0.00     0.166 HD
HETATM   67  N   UNK N   1      29.677  18.302  10.148  0.00  0.00    -0.360 N 
HETATM   68  C   UNK N   1      28.583  17.651   9.717  0.00  0.00     0.114 A 
ATOM     69  HN  UNK N   1      29.886  18.588  11.104  1.00  0.00     0.166 HD
ENDBRANCH  62  63
ENDBRANCH   6  62
ENDBRANCH   3   6
ENDBRANCH   1   2
BRANCH   1  70
HETATM   70  C   UNK N   1      25.481  17.370   3.718  0.00  0.00     0.241 C 
HETATM   71  O   UNK N   1      26.173  18.035   2.963  0.00  0.00    -0.271 OA
HETATM   72  N   UNK N   1      25.300  16.052   3.445  0.00  0.00    -0.346 N 
HETATM   73  H   UNK N   1      25.770  15.695   2.657  0.00  0.00     0.163 HD
BRANCH  72  74
HETATM   74  C   UNK N   1      24.481  15.115   4.199  0.00  0.00     0.176 C 
BRANCH  74  75
HETATM   75  C   UNK N   1      25.238  13.848   4.531  0.00  0.00     0.241 C 
HETATM   76  O   UNK N   1      26.238  13.565   3.890  0.00  0.00    -0.271 OA
HETATM   77  N   UNK N   1      24.819  13.004   5.503  0.00  0.00    -0.346 N 
HETATM   78  H   UNK N   1      25.311  12.162   5.640  0.00  0.00     0.163 HD
BRANCH  77  79
HETATM   79  C   UNK N   1      23.682  13.286   6.348  0.00  0.00     0.181 C 
BRANCH  79  80
HETATM   80  C   UNK N   1      22.435  12.470   6.166  0.00  0.00     0.241 C 
HETATM   81  O   UNK N   1      21.463  12.967   5.623  0.00  0.00    -0.271 OA
HETATM   82  N   UNK N   1      22.379  11.185   6.597  0.00  0.00    -0.351 N 
HETATM   83  H   UNK N   1      21.529  10.691   6.531  0.00  0.00     0.163 HD
BRANCH  82  84
HETATM   84  C   UNK N   1      23.543  10.526   7.151  0.00  0.00     0.225 C 
BRANCH  84  85
HETATM   85  C   UNK N   1      23.916   9.350   6.295  0.00  0.00     0.236 C 
HETATM   86  O   UNK N   1      24.782   8.570   6.677  0.00  0.00    -0.272 OA
HETATM   87  N   UNK N   1      23.292   9.141   5.112  0.00  0.00    -0.346 N 
HETATM   88  H   UNK N   1      22.570   9.746   4.826  0.00  0.00     0.163 HD
BRANCH  87  89
HETATM   89  C   UNK N   1      23.680   8.035   4.263  0.00  0.00     0.176 C 
BRANCH  89  90
HETATM   90  C   UNK N   1      24.533   8.550   3.105  0.00  0.00     0.243 C 
HETATM   91  O   UNK N   1      24.278   9.667   2.696  0.00  0.00    -0.271 OA
HETATM   92  N   UNK N   1      25.512   7.825   2.484  0.00  0.00    -0.337 N 
HETATM   93  C   UNK N   1      26.152   8.327   1.292  0.00  0.00     0.179 A 
HETATM   94  C   UNK N   1      25.925   6.516   2.864  0.00  0.00     0.127 A 
HETATM   95  C   UNK N   1      27.112   7.238   0.853  0.00  0.00     0.037 A 
HETATM   96  C   UNK N   1      26.883   6.053   1.783  0.00  0.00     0.022 A 
BRANCH  93  97
HETATM   97  C   UNK N   1      26.874   9.622   1.507  0.00  0.00     0.241 C 
HETATM   98  O   UNK N   1      26.572  10.617   0.863  0.00  0.00    -0.271 OA
HETATM   99  N   UNK N   1      27.833   9.679   2.462  0.00  0.00    -0.346 N 
HETATM  100  H   UNK N   1      28.105   8.847   2.911  0.00  0.00     0.163 HD
BRANCH  99 101
HETATM  101  C   UNK N   1      28.470  10.916   2.847  0.00  0.00     0.179 C 
BRANCH 101 102
HETATM  102  C   UNK N   1      29.728  11.176   1.996  0.00  0.00     0.009 C 
HETATM  103  C   UNK N   1      29.698  12.566   1.386  0.00  0.00     0.012 C 
HETATM  104  C   UNK N   1      30.984  11.071   2.847  0.00  0.00     0.012 C 
ENDBRANCH 101 102
BRANCH 101 105
HETATM  105  C   UNK N   1      28.739  10.822   4.329  0.00  0.00     0.238 C 
HETATM  106  O   UNK N   1      28.931  11.846   4.965  0.00  0.00    -0.271 OA
HETATM  107  N   UNK N   1      28.729   9.635   4.971  0.00  0.00    -0.368 N 
HETATM  108  H   UNK N   1      28.558   9.302   5.881  0.00  0.00     0.159 HD
HETATM  109  H   UNK N   1      28.956   8.899   4.359  0.00  0.00     0.159 HD
ENDBRANCH 101 105
ENDBRANCH  99 101
ENDBRANCH  93  97
ENDBRANCH  89  90
BRANCH  89 110
HETATM  110  C   UNK N   1      22.596   6.947   4.164  0.00  0.00     0.035 C 
BRANCH 110 111
HETATM  111  C   UNK N   1      21.266   7.337   3.520  0.00  0.00     0.004 C 
BRANCH 111 112
HETATM  112  C   UNK N   1      20.052   6.722   4.186  0.00  0.00     0.019 C 
BRANCH 112 113
HETATM  113  C   UNK N   1      20.122   6.982   5.681  0.00  0.00     0.111 C 
BRANCH 113 114
HETATM  114  N   UNK N   1      18.835   7.453   6.164  0.00  0.00    -0.430 N 
HETATM  115  H   UNK N   1      18.678   7.646   7.154  0.00  0.00     0.149 HD
HETATM  116  H   UNK N   1      18.072   7.592   5.502  0.00  0.00     0.149 HD
ENDBRANCH 113 114
ENDBRANCH 112 113
ENDBRANCH 111 112
ENDBRANCH 110 111
ENDBRANCH  89 110
ENDBRANCH  87  89
ENDBRANCH  84  85
ENDBRANCH  82  84
ENDBRANCH  79  80
BRANCH  79 117
HETATM  117  C   UNK N   1      23.850  14.180   7.577  0.00  0.00     0.075 C 
BRANCH 117 118
HETATM  118  C   UNK N   1      24.030  13.489   8.899  0.00  0.00    -0.028 A 
HETATM  119  C   UNK N   1      23.004  13.095   9.714  0.00  0.00    -0.002 A 
HETATM  120  C   UNK N   1      23.565  12.514  10.813  0.00  0.00     0.042 A 
HETATM  121  C   UNK N   1      21.625  13.213   9.566  0.00  0.00     0.014 A 
HETATM  122  N   UNK N   1      24.907  12.524  10.732  0.00  0.00    -0.365 N 
HETATM  123  C   UNK N   1      22.790  12.004  11.851  0.00  0.00     0.030 A 
HETATM  124  C   UNK N   1      25.207  13.128   9.553  0.00  0.00     0.096 A 
HETATM  125  H   UNK N   1      25.543  12.167  11.392  0.00  0.00     0.165 HD
HETATM  126  C   UNK N   1      21.390  12.111  11.735  0.00  0.00     0.002 A 
HETATM  127  C   UNK N   1      20.811  12.716  10.597  0.00  0.00     0.001 A 
ENDBRANCH 117 118
ENDBRANCH  79 117
ENDBRANCH  77  79
ENDBRANCH  74  75
BRANCH  74 128
HETATM  128  C   UNK N   1      23.202  14.779   3.445  0.00  0.00     0.036 C 
BRANCH 128 129
HETATM  129  C   UNK N   1      23.412  14.699   1.938  0.00  0.00     0.023 C 
BRANCH 129 130
HETATM  130  C   UNK N   1      22.092  14.452   1.241  0.00  0.00     0.138 C 
BRANCH 130 131
HETATM  131  N   UNK N   1      21.344  13.469   1.975  0.00  0.00    -0.227 N 
HETATM  132  C   UNK N   1      19.982  13.671   2.297  0.00  0.00     0.665 C 
HETATM  133  N   UNK N   1      19.266  14.758   1.744  0.00  0.00    -0.235 N 
HETATM  134  N   UNK N   1      19.399  12.871   3.107  0.00  0.00    -0.235 N 
HETATM  135  H   UNK N   1      19.604  15.605   1.375  0.00  0.00     0.174 HD
HETATM  136  H   UNK N   1      18.288  14.649   1.724  0.00  0.00     0.174 HD
HETATM  137  H   UNK N   1      18.744  12.882   3.841  0.00  0.00     0.174 HD
ATOM    138  HN  UNK N   1      19.711  11.915   2.936  1.00  0.00     0.174 HD
HETATM  139  H   UNK N   1      21.790  12.637   2.260  0.00  0.00     0.177 HD
ENDBRANCH 130 131
ENDBRANCH 129 130
ENDBRANCH 128 129
ENDBRANCH  74 128
ENDBRANCH  72  74
ENDBRANCH   1  70
BRANCH   1 140
HETATM  140  C   UNK N   1      23.607  18.712   4.470  0.00  0.00     0.073 C 
BRANCH 140 141
HETATM  141  C   UNK N   1      22.364  17.968   4.819  0.00  0.00    -0.056 A 
HETATM  142  C   UNK N   1      22.262  17.280   6.035  0.00  0.00     0.007 A 
HETATM  143  C   UNK N   1      21.121  16.518   6.313  0.00  0.00     0.001 A 
HETATM  144  C   UNK N   1      20.090  16.432   5.375  0.00  0.00     0.000 A 
HETATM  145  C   UNK N   1      20.196  17.110   4.156  0.00  0.00     0.001 A 
HETATM  146  C   UNK N   1      21.335  17.873   3.878  0.00  0.00     0.007 A 
ENDBRANCH 140 141
ENDBRANCH   1 140
TORSDOF 55
ENDMDL
MODEL 7
REMARK VINA RESULT:      -6.5      2.842      6.104
REMARK WARNING: 32 MAX_TORS EXCEEDED!!!
REMARK  55 active torsions:
REMARK  status: ('A' for Active; 'I' for Inactive)
REMARK    1  A    between atoms: O_12  and  C_101 
REMARK    2  A    between atoms: O_13  and  C_105 
REMARK    3  A    between atoms: O_17  and  C_115 
REMARK    4  A    between atoms: O_18  and  C_118 
REMARK       I    between atoms: N_20  and  C_47 
REMARK       I    between atoms: N_21  and  C_48 
REMARK    5  A    between atoms: C_51  and  N_21 
REMARK    6  A    between atoms: C_49  and  N_22 
REMARK       I    between atoms: N_22  and  C_58 
REMARK       I    between atoms: N_23  and  C_55 
REMARK    7  A    between atoms: N_24  and  C_59 
REMARK    8  A    between atoms: N_25  and  C_60 
REMARK       I    between atoms: N_25  and  C_62 
REMARK    9  A    between atoms: C_61  and  N_26 
REMARK       I    between atoms: N_26  and  C_66 
REMARK   10  A    between atoms: C_65  and  N_27 
REMARK       I    between atoms: N_27  and  C_73 
REMARK   11  A    between atoms: C_72  and  N_29 
REMARK       I    between atoms: N_29  and  C_81 
REMARK   12  A    between atoms: C_77  and  N_30 
REMARK       I    between atoms: N_30  and  C_87 
REMARK   13  A    between atoms: C_79  and  N_31 
REMARK       I    between atoms: N_31  and  C_89 
REMARK   14  A    between atoms: N_32  and  C_75 
REMARK       I    between atoms: N_32  and  C_98 
REMARK   15  A    between atoms: C_80  and  N_33 
REMARK       I    between atoms: N_33  and  C_95 
REMARK   16  A    between atoms: C_94  and  N_35 
REMARK       I    between atoms: N_35  and  C_106 
REMARK   17  A    between atoms: C_102  and  N_38 
REMARK       I    between atoms: N_38  and  C_111 
REMARK       I    between atoms: N_39  and  C_98 
REMARK   18  A    between atoms: C_112  and  N_42 
REMARK       I    between atoms: N_42  and  C_119 
REMARK   19  A    between atoms: C_43  and  C_48 
REMARK   20  A    between atoms: C_47  and  C_49 
REMARK   21  A    between atoms: C_49  and  C_50 
REMARK   22  A    between atoms: C_50  and  C_52 
REMARK   23  A    between atoms: C_51  and  C_53 
REMARK   24  A    between atoms: C_51  and  C_55 
REMARK   25  A    between atoms: C_52  and  C_54 
REMARK   26  A    between atoms: C_54  and  C_59 
REMARK   27  A    between atoms: C_58  and  C_60 
REMARK   28  A    between atoms: C_61  and  C_62 
REMARK   29  A    between atoms: C_61  and  C_63 
REMARK   30  A    between atoms: C_63  and  C_64 
REMARK   31  A    between atoms: C_65  and  C_66 
REMARK   32  A    between atoms: C_65  and  C_67 
REMARK   33  A    between atoms: C_67  and  C_71 
REMARK   34  A    between atoms: C_71  and  C_75 
REMARK   35  A    between atoms: C_72  and  C_73 
REMARK   36  A    between atoms: C_72  and  C_76 
REMARK   37  A    between atoms: C_76  and  C_88 
REMARK   38  A    between atoms: C_77  and  C_81 
REMARK   39  A    between atoms: C_77  and  C_84 
REMARK   40  A    between atoms: C_79  and  C_86 
REMARK   41  A    between atoms: C_79  and  C_87 
REMARK   42  A    between atoms: C_80  and  C_83 
REMARK   43  A    between atoms: C_80  and  C_89 
REMARK   44  A    between atoms: C_83  and  C_90 
REMARK   45  A    between atoms: C_84  and  C_91 
REMARK   46  A    between atoms: C_86  and  C_92 
REMARK   47  A    between atoms: C_90  and  C_93 
REMARK   48  A    between atoms: C_92  and  C_105 
REMARK   49  A    between atoms: C_94  and  C_95 
REMARK   50  A    between atoms: C_94  and  C_101 
REMARK   51  A    between atoms: C_102  and  C_106 
REMARK   52  A    between atoms: C_102  and  C_107 
REMARK   53  A    between atoms: C_107  and  C_110 
REMARK   54  A    between atoms: C_111  and  C_112 
REMARK   55  A    between atoms: C_112  and  C_115 
ROOT
HETATM    1  C   UNK N   1      26.481  16.259   4.765  0.00  0.00     0.180 C 
ENDROOT
BRANCH   1   2
HETATM    2  N   UNK N   1      27.132  15.019   5.155  0.00  0.00    -0.346 N 
HETATM    3  C   UNK N   1      28.395  14.622   4.819  0.00  0.00     0.241 C 
HETATM    4  O   UNK N   1      28.796  13.542   5.220  0.00  0.00    -0.271 OA
HETATM    5  H   UNK N   1      26.610  14.404   5.719  0.00  0.00     0.163 HD
BRANCH   3   6
HETATM    6  C   UNK N   1      29.277  15.394   3.869  0.00  0.00     0.182 C 
BRANCH   6   7
HETATM    7  N   UNK N   1      30.633  15.418   4.333  0.00  0.00    -0.346 N 
HETATM    8  C   UNK N   1      31.440  16.502   4.336  0.00  0.00     0.241 C 
HETATM    9  O   UNK N   1      31.062  17.589   3.924  0.00  0.00    -0.271 OA
HETATM   10  H   UNK N   1      31.006  14.575   4.678  0.00  0.00     0.163 HD
BRANCH   8  11
HETATM   11  C   UNK N   1      32.816  16.296   4.824  0.00  0.00     0.177 C 
BRANCH  11  12
HETATM   12  N   UNK N   1      32.741  15.862   6.191  0.00  0.00    -0.346 N 
HETATM   13  C   UNK N   1      33.226  16.566   7.250  0.00  0.00     0.241 C 
HETATM   14  O   UNK N   1      33.715  17.678   7.102  0.00  0.00    -0.271 OA
HETATM   15  H   UNK N   1      32.308  14.997   6.374  0.00  0.00     0.163 HD
BRANCH  13  16
HETATM   16  C   UNK N   1      33.226  15.924   8.603  0.00  0.00     0.176 C 
BRANCH  16  17
HETATM   17  N   UNK N   1      34.127  16.637   9.492  0.00  0.00    -0.346 N 
HETATM   18  C   UNK N   1      35.298  16.115   9.954  0.00  0.00     0.243 C 
HETATM   19  O   UNK N   1      36.025  16.809  10.646  0.00  0.00    -0.271 OA
HETATM   20  H   UNK N   1      33.878  17.546   9.776  0.00  0.00     0.163 HD
BRANCH  18  21
HETATM   21  C   UNK N   1      35.718  14.702   9.595  0.00  0.00     0.200 C 
BRANCH  21  22
HETATM   22  N   UNK N   1      35.474  13.845  10.725  0.00  0.00    -0.344 N 
HETATM   23  C   UNK N   1      34.825  12.669  10.580  0.00  0.00     0.241 C 
HETATM   24  O   UNK N   1      34.353  12.340   9.501  0.00  0.00    -0.271 OA
HETATM   25  H   UNK N   1      35.786  14.119  11.618  0.00  0.00     0.163 HD
BRANCH  23  26
HETATM   26  C   UNK N   1      34.679  11.761  11.726  0.00  0.00     0.180 C 
BRANCH  26  27
HETATM   27  N   UNK N   1      33.701  10.734  11.528  0.00  0.00    -0.346 N 
HETATM   28  C   UNK N   1      34.023   9.575  10.906  0.00  0.00     0.243 C 
HETATM   29  O   UNK N   1      35.173   9.347  10.557  0.00  0.00    -0.271 OA
HETATM   30  H   UNK N   1      32.781  10.873  11.849  0.00  0.00     0.163 HD
BRANCH  28  31
HETATM   31  C   UNK N   1      32.950   8.599  10.581  0.00  0.00     0.200 C 
BRANCH  31  32
HETATM   32  N   UNK N   1      33.576   7.319  10.350  0.00  0.00    -0.346 N 
HETATM   33  C   UNK N   1      32.898   6.153  10.443  0.00  0.00     0.214 C 
HETATM   34  O   UNK N   1      31.709   6.141  10.723  0.00  0.00    -0.274 OA
HETATM   35  C   UNK N   1      33.620   4.867  10.240  0.00  0.00     0.117 C 
HETATM   36  H   UNK N   1      34.532   7.294  10.115  0.00  0.00     0.163 HD
ENDBRANCH  31  32
BRANCH  31  37
HETATM   37  C   UNK N   1      32.191   9.032   9.335  0.00  0.00     0.199 C 
BRANCH  37  38
HETATM   38  O   UNK N   1      31.950  10.407   9.366  0.00  0.00    -0.398 OA
HETATM   39  H   UNK N   1      32.428  11.052   8.822  0.00  0.00     0.209 HD
ENDBRANCH  37  38
ENDBRANCH  31  37
ENDBRANCH  28  31
ENDBRANCH  26  27
BRANCH  26  40
HETATM   40  C   UNK N   1      34.818  12.305  13.132  0.00  0.00     0.073 C 
BRANCH  40  41
HETATM   41  C   UNK N   1      35.988  11.592  13.683  0.00  0.00    -0.056 A 
HETATM   42  C   UNK N   1      36.024  11.286  15.045  0.00  0.00     0.010 A 
HETATM   43  C   UNK N   1      37.018  10.444  15.540  0.00  0.00     0.037 A 
HETATM   44  C   UNK N   1      37.966   9.895  14.671  0.00  0.00     0.065 A 
HETATM   45  C   UNK N   1      37.936  10.209  13.309  0.00  0.00     0.037 A 
HETATM   46  C   UNK N   1      36.940  11.048  12.812  0.00  0.00     0.010 A 
BRANCH  44  47
HETATM   47  O   UNK N   1      38.900   9.057  15.144  0.00  0.00    -0.361 OA
HETATM   48  H   UNK N   1      38.836   8.480  15.880  0.00  0.00     0.217 HD
ENDBRANCH  44  47
ENDBRANCH  40  41
ENDBRANCH  26  40
ENDBRANCH  23  26
ENDBRANCH  21  22
BRANCH  21  49
HETATM   49  C   UNK N   1      37.158  14.576   9.096  0.00  0.00     0.199 C 
BRANCH  49  50
HETATM   50  O   UNK N   1      38.046  14.910  10.122  0.00  0.00    -0.398 OA
HETATM   51  H   UNK N   1      38.088  14.885  11.090  0.00  0.00     0.209 HD
ENDBRANCH  49  50
ENDBRANCH  21  49
ENDBRANCH  18  21
ENDBRANCH  16  17
BRANCH  16  52
HETATM   52  C   UNK N   1      31.806  16.090   9.136  0.00  0.00     0.035 C 
BRANCH  52  53
HETATM   53  C   UNK N   1      30.954  17.016   8.291  0.00  0.00     0.002 C 
BRANCH  53  54
HETATM   54  C   UNK N   1      30.594  18.260   9.080  0.00  0.00    -0.004 C 
HETATM   55  C   UNK N   1      29.295  18.035   9.824  0.00  0.00     0.005 C 
ENDBRANCH  53  54
ENDBRANCH  52  53
ENDBRANCH  16  52
ENDBRANCH  13  16
ENDBRANCH  11  12
BRANCH  11  56
HETATM   56  C   UNK N   1      33.761  15.460   3.991  0.00  0.00     0.045 C 
BRANCH  56  57
HETATM   57  C   UNK N   1      34.060  14.238   4.848  0.00  0.00     0.112 C 
BRANCH  57  58
HETATM   58  C   UNK N   1      35.473  14.151   5.320  0.00  0.00     0.139 C 
HETATM   59  O   UNK N   1      36.055  13.080   5.260  0.00  0.00    -0.650 OA
BRANCH  58  60
HETATM   60  O   UNK N   1      36.112  15.234   5.799  0.00  0.00    -0.776 OA
HETATM   61  H   UNK N   1      36.671  15.771   6.325  0.00  0.00     0.167 HD
ENDBRANCH  58  60
ENDBRANCH  57  58
ENDBRANCH  56  57
ENDBRANCH  11  56
ENDBRANCH   8  11
ENDBRANCH   6   7
BRANCH   6  62
HETATM   62  C   UNK N   1      29.286  14.867   2.436  0.00  0.00     0.093 C 
BRANCH  62  63
HETATM   63  C   UNK N   1      28.572  13.566   2.287  0.00  0.00     0.028 A 
HETATM   64  N   UNK N   1      27.256  13.437   2.065  0.00  0.00    -0.354 N 
HETATM   65  C   UNK N   1      27.054  12.110   1.940  0.00  0.00     0.180 A 
HETATM   66  H   UNK N   1      26.583  14.153   2.008  0.00  0.00     0.166 HD
HETATM   67  N   UNK N   1      28.205  11.415   2.060  0.00  0.00    -0.360 N 
HETATM   68  C   UNK N   1      29.166  12.332   2.271  0.00  0.00     0.114 A 
ATOM     69  HN  UNK N   1      28.321  10.404   2.003  1.00  0.00     0.166 HD
ENDBRANCH  62  63
ENDBRANCH   6  62
ENDBRANCH   3   6
ENDBRANCH   1   2
BRANCH   1  70
HETATM   70  C   UNK N   1      25.483  16.075   3.654  0.00  0.00     0.241 C 
HETATM   71  O   UNK N   1      25.906  15.862   2.529  0.00  0.00    -0.271 OA
HETATM   72  N   UNK N   1      24.139  16.102   3.852  0.00  0.00    -0.346 N 
HETATM   73  H   UNK N   1      23.574  15.915   3.068  0.00  0.00     0.163 HD
BRANCH  72  74
HETATM   74  C   UNK N   1      23.451  16.379   5.104  0.00  0.00     0.176 C 
BRANCH  74  75
HETATM   75  C   UNK N   1      22.159  15.603   5.220  0.00  0.00     0.241 C 
HETATM   76  O   UNK N   1      21.156  16.026   4.667  0.00  0.00    -0.271 OA
HETATM   77  N   UNK N   1      22.078  14.462   5.945  0.00  0.00    -0.346 N 
HETATM   78  H   UNK N   1      21.200  14.026   6.040  0.00  0.00     0.163 HD
BRANCH  77  79
HETATM   79  C   UNK N   1      23.224  13.857   6.584  0.00  0.00     0.181 C 
BRANCH  79  80
HETATM   80  C   UNK N   1      24.009  12.829   5.821  0.00  0.00     0.241 C 
HETATM   81  O   UNK N   1      25.054  13.147   5.280  0.00  0.00    -0.271 OA
HETATM   82  N   UNK N   1      23.569  11.549   5.731  0.00  0.00    -0.351 N 
HETATM   83  H   UNK N   1      24.062  10.908   5.168  0.00  0.00     0.163 HD
BRANCH  82  84
HETATM   84  C   UNK N   1      22.390  11.106   6.446  0.00  0.00     0.225 C 
BRANCH  84  85
HETATM   85  C   UNK N   1      21.598  10.165   5.585  0.00  0.00     0.236 C 
HETATM   86  O   UNK N   1      22.162   9.228   5.029  0.00  0.00    -0.272 OA
HETATM   87  N   UNK N   1      20.264  10.339   5.431  0.00  0.00    -0.346 N 
HETATM   88  H   UNK N   1      19.808  11.067   5.910  0.00  0.00     0.163 HD
BRANCH  87  89
HETATM   89  C   UNK N   1      19.505   9.462   4.566  0.00  0.00     0.176 C 
BRANCH  89  90
HETATM   90  C   UNK N   1      19.242  10.156   3.231  0.00  0.00     0.243 C 
HETATM   91  O   UNK N   1      18.887  11.318   3.283  0.00  0.00    -0.271 OA
HETATM   92  N   UNK N   1      19.335   9.545   2.012  0.00  0.00    -0.337 N 
HETATM   93  C   UNK N   1      18.907  10.229   0.815  0.00  0.00     0.179 A 
HETATM   94  C   UNK N   1      19.751   8.200   1.800  0.00  0.00     0.127 A 
HETATM   95  C   UNK N   1      19.085   9.231  -0.314  0.00  0.00     0.037 A 
HETATM   96  C   UNK N   1      19.511   7.917   0.329  0.00  0.00     0.022 A 
BRANCH  93  97
HETATM   97  C   UNK N   1      19.675  11.486   0.543  0.00  0.00     0.241 C 
HETATM   98  O   UNK N   1      19.122  12.458   0.047  0.00  0.00    -0.271 OA
HETATM   99  N   UNK N   1      20.979  11.541   0.904  0.00  0.00    -0.346 N 
HETATM  100  H   UNK N   1      21.415  10.721   1.231  0.00  0.00     0.163 HD
BRANCH  99 101
HETATM  101  C   UNK N   1      21.754  12.756   0.826  0.00  0.00     0.179 C 
BRANCH 101 102
HETATM  102  C   UNK N   1      23.234  12.448   0.525  0.00  0.00     0.009 C 
HETATM  103  C   UNK N   1      23.368  11.558  -0.698  0.00  0.00     0.012 C 
HETATM  104  C   UNK N   1      24.005  13.730   0.251  0.00  0.00     0.012 C 
ENDBRANCH 101 102
BRANCH 101 105
HETATM  105  C   UNK N   1      21.533  13.494   2.123  0.00  0.00     0.238 C 
HETATM  106  O   UNK N   1      22.420  13.503   2.962  0.00  0.00    -0.271 OA
HETATM  107  N   UNK N   1      20.395  14.181   2.356  0.00  0.00    -0.368 N 
HETATM  108  H   UNK N   1      20.108  14.952   2.897  0.00  0.00     0.159 HD
HETATM  109  H   UNK N   1      19.643  13.807   1.843  0.00  0.00     0.159 HD
ENDBRANCH 101 105
ENDBRANCH  99 101
ENDBRANCH  93  97
ENDBRANCH  89  90
BRANCH  89 110
HETATM  110  C   UNK N   1      18.499   8.586   5.336  0.00  0.00     0.035 C 
BRANCH 110 111
HETATM  111  C   UNK N   1      19.054   7.387   6.104  0.00  0.00     0.004 C 
BRANCH 111 112
HETATM  112  C   UNK N   1      17.992   6.521   6.751  0.00  0.00     0.019 C 
BRANCH 112 113
HETATM  113  C   UNK N   1      16.995   6.086   5.691  0.00  0.00     0.111 C 
BRANCH 113 114
HETATM  114  N   UNK N   1      17.549   4.997   4.904  0.00  0.00    -0.430 N 
HETATM  115  H   UNK N   1      17.010   4.152   4.713  0.00  0.00     0.149 HD
HETATM  116  H   UNK N   1      18.497   5.078   4.536  0.00  0.00     0.149 HD
ENDBRANCH 113 114
ENDBRANCH 112 113
ENDBRANCH 111 112
ENDBRANCH 110 111
ENDBRANCH  89 110
ENDBRANCH  87  89
ENDBRANCH  84  85
ENDBRANCH  82  84
ENDBRANCH  79  80
BRANCH  79 117
HETATM  117  C   UNK N   1      23.785  14.462   7.871  0.00  0.00     0.075 C 
BRANCH 117 118
HETATM  118  C   UNK N   1      23.788  13.582   9.088  0.00  0.00    -0.028 A 
HETATM  119  C   UNK N   1      22.670  13.225   9.792  0.00  0.00    -0.002 A 
HETATM  120  C   UNK N   1      23.080  12.432  10.822  0.00  0.00     0.042 A 
HETATM  121  C   UNK N   1      21.330  13.549   9.597  0.00  0.00     0.014 A 
HETATM  122  N   UNK N   1      24.414  12.270  10.805  0.00  0.00    -0.365 N 
HETATM  123  C   UNK N   1      22.180  11.898  11.741  0.00  0.00     0.030 A 
HETATM  124  C   UNK N   1      24.865  12.980   9.738  0.00  0.00     0.096 A 
HETATM  125  H   UNK N   1      24.955  11.744  11.437  0.00  0.00     0.165 HD
HETATM  126  C   UNK N   1      20.816  12.209  11.576  0.00  0.00     0.002 A 
HETATM  127  C   UNK N   1      20.394  13.034  10.509  0.00  0.00     0.001 A 
ENDBRANCH 117 118
ENDBRANCH  79 117
ENDBRANCH  77  79
ENDBRANCH  74  75
BRANCH  74 128
HETATM  128  C   UNK N   1      23.184  17.870   5.260  0.00  0.00     0.036 C 
BRANCH 128 129
HETATM  129  C   UNK N   1      23.417  18.647   3.970  0.00  0.00     0.023 C 
BRANCH 129 130
HETATM  130  C   UNK N   1      22.155  19.379   3.568  0.00  0.00     0.138 C 
BRANCH 130 131
HETATM  131  N   UNK N   1      21.176  18.426   3.121  0.00  0.00    -0.227 N 
HETATM  132  C   UNK N   1      20.207  18.770   2.151  0.00  0.00     0.665 C 
HETATM  133  N   UNK N   1      20.291  19.998   1.454  0.00  0.00    -0.235 N 
HETATM  134  N   UNK N   1      19.239  17.968   1.912  0.00  0.00    -0.235 N 
HETATM  135  H   UNK N   1      20.752  20.829   1.707  0.00  0.00     0.174 HD
HETATM  136  H   UNK N   1      19.819  20.023   0.590  0.00  0.00     0.174 HD
HETATM  137  H   UNK N   1      18.275  17.982   1.714  0.00  0.00     0.174 HD
ATOM    138  HN  UNK N   1      19.574  17.004   1.931  1.00  0.00     0.174 HD
HETATM  139  H   UNK N   1      21.180  17.516   3.499  0.00  0.00     0.177 HD
ENDBRANCH 130 131
ENDBRANCH 129 130
ENDBRANCH 128 129
ENDBRANCH  74 128
ENDBRANCH  72  74
ENDBRANCH   1  70
BRANCH   1 140
HETATM  140  C   UNK N   1      27.507  17.266   4.257  0.00  0.00     0.073 C 
BRANCH 140 141
HETATM  141  C   UNK N   1      27.496  18.578   4.964  0.00  0.00    -0.056 A 
HETATM  142  C   UNK N   1      27.872  18.667   6.310  0.00  0.00     0.007 A 
HETATM  143  C   UNK N   1      27.778  19.890   6.983  0.00  0.00     0.001 A 
HETATM  144  C   UNK N   1      27.298  21.021   6.317  0.00  0.00     0.000 A 
HETATM  145  C   UNK N   1      26.912  20.930   4.976  0.00  0.00     0.001 A 
HETATM  146  C   UNK N   1      27.008  19.708   4.302  0.00  0.00     0.007 A 
ENDBRANCH 140 141
ENDBRANCH   1 140
TORSDOF 55
ENDMDL
MODEL 8
REMARK VINA RESULT:      -6.5      2.493      5.148
REMARK WARNING: 32 MAX_TORS EXCEEDED!!!
REMARK  55 active torsions:
REMARK  status: ('A' for Active; 'I' for Inactive)
REMARK    1  A    between atoms: O_12  and  C_101 
REMARK    2  A    between atoms: O_13  and  C_105 
REMARK    3  A    between atoms: O_17  and  C_115 
REMARK    4  A    between atoms: O_18  and  C_118 
REMARK       I    between atoms: N_20  and  C_47 
REMARK       I    between atoms: N_21  and  C_48 
REMARK    5  A    between atoms: C_51  and  N_21 
REMARK    6  A    between atoms: C_49  and  N_22 
REMARK       I    between atoms: N_22  and  C_58 
REMARK       I    between atoms: N_23  and  C_55 
REMARK    7  A    between atoms: N_24  and  C_59 
REMARK    8  A    between atoms: N_25  and  C_60 
REMARK       I    between atoms: N_25  and  C_62 
REMARK    9  A    between atoms: C_61  and  N_26 
REMARK       I    between atoms: N_26  and  C_66 
REMARK   10  A    between atoms: C_65  and  N_27 
REMARK       I    between atoms: N_27  and  C_73 
REMARK   11  A    between atoms: C_72  and  N_29 
REMARK       I    between atoms: N_29  and  C_81 
REMARK   12  A    between atoms: C_77  and  N_30 
REMARK       I    between atoms: N_30  and  C_87 
REMARK   13  A    between atoms: C_79  and  N_31 
REMARK       I    between atoms: N_31  and  C_89 
REMARK   14  A    between atoms: N_32  and  C_75 
REMARK       I    between atoms: N_32  and  C_98 
REMARK   15  A    between atoms: C_80  and  N_33 
REMARK       I    between atoms: N_33  and  C_95 
REMARK   16  A    between atoms: C_94  and  N_35 
REMARK       I    between atoms: N_35  and  C_106 
REMARK   17  A    between atoms: C_102  and  N_38 
REMARK       I    between atoms: N_38  and  C_111 
REMARK       I    between atoms: N_39  and  C_98 
REMARK   18  A    between atoms: C_112  and  N_42 
REMARK       I    between atoms: N_42  and  C_119 
REMARK   19  A    between atoms: C_43  and  C_48 
REMARK   20  A    between atoms: C_47  and  C_49 
REMARK   21  A    between atoms: C_49  and  C_50 
REMARK   22  A    between atoms: C_50  and  C_52 
REMARK   23  A    between atoms: C_51  and  C_53 
REMARK   24  A    between atoms: C_51  and  C_55 
REMARK   25  A    between atoms: C_52  and  C_54 
REMARK   26  A    between atoms: C_54  and  C_59 
REMARK   27  A    between atoms: C_58  and  C_60 
REMARK   28  A    between atoms: C_61  and  C_62 
REMARK   29  A    between atoms: C_61  and  C_63 
REMARK   30  A    between atoms: C_63  and  C_64 
REMARK   31  A    between atoms: C_65  and  C_66 
REMARK   32  A    between atoms: C_65  and  C_67 
REMARK   33  A    between atoms: C_67  and  C_71 
REMARK   34  A    between atoms: C_71  and  C_75 
REMARK   35  A    between atoms: C_72  and  C_73 
REMARK   36  A    between atoms: C_72  and  C_76 
REMARK   37  A    between atoms: C_76  and  C_88 
REMARK   38  A    between atoms: C_77  and  C_81 
REMARK   39  A    between atoms: C_77  and  C_84 
REMARK   40  A    between atoms: C_79  and  C_86 
REMARK   41  A    between atoms: C_79  and  C_87 
REMARK   42  A    between atoms: C_80  and  C_83 
REMARK   43  A    between atoms: C_80  and  C_89 
REMARK   44  A    between atoms: C_83  and  C_90 
REMARK   45  A    between atoms: C_84  and  C_91 
REMARK   46  A    between atoms: C_86  and  C_92 
REMARK   47  A    between atoms: C_90  and  C_93 
REMARK   48  A    between atoms: C_92  and  C_105 
REMARK   49  A    between atoms: C_94  and  C_95 
REMARK   50  A    between atoms: C_94  and  C_101 
REMARK   51  A    between atoms: C_102  and  C_106 
REMARK   52  A    between atoms: C_102  and  C_107 
REMARK   53  A    between atoms: C_107  and  C_110 
REMARK   54  A    between atoms: C_111  and  C_112 
REMARK   55  A    between atoms: C_112  and  C_115 
ROOT
HETATM    1  C   UNK N   1      26.440  15.938   4.530  0.00  0.00     0.180 C 
ENDROOT
BRANCH   1   2
HETATM    2  N   UNK N   1      26.870  14.588   4.858  0.00  0.00    -0.346 N 
HETATM    3  C   UNK N   1      28.158  14.157   5.005  0.00  0.00     0.241 C 
HETATM    4  O   UNK N   1      28.357  12.984   5.274  0.00  0.00    -0.271 OA
HETATM    5  H   UNK N   1      26.162  13.917   4.988  0.00  0.00     0.163 HD
BRANCH   3   6
HETATM    6  C   UNK N   1      29.357  15.029   4.725  0.00  0.00     0.182 C 
BRANCH   6   7
HETATM    7  N   UNK N   1      30.141  15.218   5.910  0.00  0.00    -0.346 N 
HETATM    8  C   UNK N   1      30.692  16.388   6.307  0.00  0.00     0.241 C 
HETATM    9  O   UNK N   1      30.561  17.415   5.657  0.00  0.00    -0.271 OA
HETATM   10  H   UNK N   1      30.290  14.431   6.483  0.00  0.00     0.163 HD
BRANCH   8  11
HETATM   11  C   UNK N   1      31.494  16.351   7.543  0.00  0.00     0.177 C 
BRANCH  11  12
HETATM   12  N   UNK N   1      32.630  15.505   7.308  0.00  0.00    -0.346 N 
HETATM   13  C   UNK N   1      32.867  14.335   7.964  0.00  0.00     0.241 C 
HETATM   14  O   UNK N   1      32.066  13.889   8.774  0.00  0.00    -0.271 OA
HETATM   15  H   UNK N   1      33.281  15.790   6.627  0.00  0.00     0.163 HD
BRANCH  13  16
HETATM   16  C   UNK N   1      34.171  13.634   7.737  0.00  0.00     0.176 C 
BRANCH  16  17
HETATM   17  N   UNK N   1      33.932  12.299   7.215  0.00  0.00    -0.346 N 
HETATM   18  C   UNK N   1      33.895  11.182   7.995  0.00  0.00     0.243 C 
HETATM   19  O   UNK N   1      33.625  10.109   7.482  0.00  0.00    -0.271 OA
HETATM   20  H   UNK N   1      33.789  12.197   6.247  0.00  0.00     0.163 HD
BRANCH  18  21
HETATM   21  C   UNK N   1      34.157  11.262   9.487  0.00  0.00     0.200 C 
BRANCH  21  22
HETATM   22  N   UNK N   1      35.578  11.243   9.711  0.00  0.00    -0.344 N 
HETATM   23  C   UNK N   1      36.199  12.270  10.332  0.00  0.00     0.241 C 
HETATM   24  O   UNK N   1      35.585  13.280  10.644  0.00  0.00    -0.271 OA
HETATM   25  H   UNK N   1      36.106  10.470   9.408  0.00  0.00     0.163 HD
BRANCH  23  26
HETATM   26  C   UNK N   1      37.632  12.184  10.644  0.00  0.00     0.180 C 
BRANCH  26  27
HETATM   27  N   UNK N   1      37.911  12.037  12.041  0.00  0.00    -0.346 N 
HETATM   28  C   UNK N   1      37.325  11.056  12.770  0.00  0.00     0.243 C 
HETATM   29  O   UNK N   1      36.596  10.230  12.240  0.00  0.00    -0.271 OA
HETATM   30  H   UNK N   1      38.537  12.657  12.479  0.00  0.00     0.163 HD
BRANCH  28  31
HETATM   31  C   UNK N   1      37.517  11.029  14.243  0.00  0.00     0.200 C 
BRANCH  31  32
HETATM   32  N   UNK N   1      37.764  12.382  14.679  0.00  0.00    -0.346 N 
HETATM   33  C   UNK N   1      36.786  13.177  15.170  0.00  0.00     0.214 C 
HETATM   34  O   UNK N   1      35.639  12.767  15.271  0.00  0.00    -0.274 OA
HETATM   35  C   UNK N   1      37.105  14.579  15.553  0.00  0.00     0.117 C 
HETATM   36  H   UNK N   1      38.680  12.741  14.617  0.00  0.00     0.163 HD
ENDBRANCH  31  32
BRANCH  31  37
HETATM   37  C   UNK N   1      38.700  10.145  14.615  0.00  0.00     0.199 C 
BRANCH  37  38
HETATM   38  O   UNK N   1      38.319   9.199  15.568  0.00  0.00    -0.398 OA
HETATM   39  H   UNK N   1      38.192   8.258  15.374  0.00  0.00     0.209 HD
ENDBRANCH  37  38
ENDBRANCH  31  37
ENDBRANCH  28  31
ENDBRANCH  26  27
BRANCH  26  40
HETATM   40  C   UNK N   1      38.623  12.993   9.836  0.00  0.00     0.073 C 
BRANCH  40  41
HETATM   41  C   UNK N   1      39.253  12.005   8.938  0.00  0.00    -0.056 A 
HETATM   42  C   UNK N   1      38.533  11.514   7.846  0.00  0.00     0.010 A 
HETATM   43  C   UNK N   1      39.178  10.740   6.883  0.00  0.00     0.037 A 
HETATM   44  C   UNK N   1      40.544  10.470   7.002  0.00  0.00     0.065 A 
HETATM   45  C   UNK N   1      41.263  10.954   8.100  0.00  0.00     0.037 A 
HETATM   46  C   UNK N   1      40.620  11.731   9.063  0.00  0.00     0.010 A 
BRANCH  44  47
HETATM   47  O   UNK N   1      41.170   9.755   6.056  0.00  0.00    -0.361 OA
HETATM   48  H   UNK N   1      40.801   9.110   5.485  0.00  0.00     0.217 HD
ENDBRANCH  44  47
ENDBRANCH  40  41
ENDBRANCH  26  40
ENDBRANCH  23  26
ENDBRANCH  21  22
BRANCH  21  49
HETATM   49  C   UNK N   1      33.444  10.192  10.314  0.00  0.00     0.199 C 
BRANCH  49  50
HETATM   50  O   UNK N   1      33.511  10.517  11.670  0.00  0.00    -0.398 OA
HETATM   51  H   UNK N   1      32.912  10.741  12.400  0.00  0.00     0.209 HD
ENDBRANCH  49  50
ENDBRANCH  21  49
ENDBRANCH  18  21
ENDBRANCH  16  17
BRANCH  16  52
HETATM   52  C   UNK N   1      34.889  14.441   6.659  0.00  0.00     0.035 C 
BRANCH  52  53
HETATM   53  C   UNK N   1      36.395  14.289   6.701  0.00  0.00     0.002 C 
BRANCH  53  54
HETATM   54  C   UNK N   1      36.942  14.116   5.298  0.00  0.00    -0.004 C 
HETATM   55  C   UNK N   1      36.645  12.716   4.803  0.00  0.00     0.005 C 
ENDBRANCH  53  54
ENDBRANCH  52  53
ENDBRANCH  16  52
ENDBRANCH  13  16
ENDBRANCH  11  12
BRANCH  11  56
HETATM   56  C   UNK N   1      31.861  17.660   8.206  0.00  0.00     0.045 C 
BRANCH  56  57
HETATM   57  C   UNK N   1      33.307  17.484   8.644  0.00  0.00     0.112 C 
BRANCH  57  58
HETATM   58  C   UNK N   1      34.294  18.249   7.827  0.00  0.00     0.139 C 
HETATM   59  O   UNK N   1      35.010  19.072   8.374  0.00  0.00    -0.650 OA
BRANCH  58  60
HETATM   60  O   UNK N   1      34.410  18.036   6.502  0.00  0.00    -0.776 OA
HETATM   61  H   UNK N   1      34.781  17.821   5.670  0.00  0.00     0.167 HD
ENDBRANCH  58  60
ENDBRANCH  57  58
ENDBRANCH  56  57
ENDBRANCH  11  56
ENDBRANCH   8  11
ENDBRANCH   6   7
BRANCH   6  62
HETATM   62  C   UNK N   1      30.286  14.506   3.634  0.00  0.00     0.093 C 
BRANCH  62  63
HETATM   63  C   UNK N   1      31.355  15.477   3.260  0.00  0.00     0.028 A 
HETATM   64  N   UNK N   1      31.136  16.732   2.841  0.00  0.00    -0.354 N 
HETATM   65  C   UNK N   1      32.365  17.261   2.674  0.00  0.00     0.180 A 
HETATM   66  H   UNK N   1      30.269  17.171   2.687  0.00  0.00     0.166 HD
HETATM   67  N   UNK N   1      33.336  16.379   2.991  0.00  0.00    -0.360 N 
HETATM   68  C   UNK N   1      32.702  15.255   3.370  0.00  0.00     0.114 A 
ATOM     69  HN  UNK N   1      34.343  16.533   2.952  1.00  0.00     0.166 HD
ENDBRANCH  62  63
ENDBRANCH   6  62
ENDBRANCH   3   6
ENDBRANCH   1   2
BRANCH   1  70
HETATM   70  C   UNK N   1      25.653  16.009   3.250  0.00  0.00     0.241 C 
HETATM   71  O   UNK N   1      26.265  15.983   2.195  0.00  0.00    -0.271 OA
HETATM   72  N   UNK N   1      24.296  16.067   3.216  0.00  0.00    -0.346 N 
HETATM   73  H   UNK N   1      23.876  16.054   2.326  0.00  0.00     0.163 HD
BRANCH  72  74
HETATM   74  C   UNK N   1      23.402  16.146   4.361  0.00  0.00     0.176 C 
BRANCH  74  75
HETATM   75  C   UNK N   1      22.104  15.409   4.113  0.00  0.00     0.241 C 
HETATM   76  O   UNK N   1      21.446  15.676   3.120  0.00  0.00    -0.271 OA
HETATM   77  N   UNK N   1      21.639  14.479   4.980  0.00  0.00    -0.346 N 
HETATM   78  H   UNK N   1      20.760  14.071   4.805  0.00  0.00     0.163 HD
BRANCH  77  79
HETATM   79  C   UNK N   1      22.377  14.059   6.148  0.00  0.00     0.181 C 
BRANCH  79  80
HETATM   80  C   UNK N   1      23.418  12.987   5.990  0.00  0.00     0.241 C 
HETATM   81  O   UNK N   1      24.587  13.298   5.839  0.00  0.00    -0.271 OA
HETATM   82  N   UNK N   1      23.071  11.676   6.017  0.00  0.00    -0.351 N 
HETATM   83  H   UNK N   1      23.757  10.992   5.841  0.00  0.00     0.163 HD
BRANCH  82  84
HETATM   84  C   UNK N   1      21.712  11.263   6.298  0.00  0.00     0.225 C 
BRANCH  84  85
HETATM   85  C   UNK N   1      21.127  10.585   5.093  0.00  0.00     0.236 C 
HETATM   86  O   UNK N   1      20.815   9.400   5.153  0.00  0.00    -0.272 OA
HETATM   87  N   UNK N   1      20.932  11.279   3.947  0.00  0.00    -0.346 N 
HETATM   88  H   UNK N   1      21.146  12.239   3.914  0.00  0.00     0.163 HD
BRANCH  87  89
HETATM   89  C   UNK N   1      20.411  10.618   2.769  0.00  0.00     0.176 C 
BRANCH  89  90
HETATM   90  C   UNK N   1      21.461  10.642   1.660  0.00  0.00     0.243 C 
HETATM   91  O   UNK N   1      21.658  11.713   1.119  0.00  0.00    -0.271 OA
HETATM   92  N   UNK N   1      22.142   9.542   1.217  0.00  0.00    -0.337 N 
HETATM   93  C   UNK N   1      22.991   9.625   0.053  0.00  0.00     0.179 A 
HETATM   94  C   UNK N   1      22.023   8.232   1.764  0.00  0.00     0.127 A 
HETATM   95  C   UNK N   1      23.510   8.218  -0.177  0.00  0.00     0.037 A 
HETATM   96  C   UNK N   1      22.808   7.323   0.837  0.00  0.00     0.022 A 
BRANCH  93  97
HETATM   97  C   UNK N   1      24.123  10.593   0.212  0.00  0.00     0.241 C 
HETATM   98  O   UNK N   1      24.133  11.647  -0.409  0.00  0.00    -0.271 OA
HETATM   99  N   UNK N   1      25.108  10.300   1.095  0.00  0.00    -0.346 N 
HETATM  100  H   UNK N   1      25.112   9.414   1.524  0.00  0.00     0.163 HD
BRANCH  99 101
HETATM  101  C   UNK N   1      26.152  11.239   1.430  0.00  0.00     0.179 C 
BRANCH 101 102
HETATM  102  C   UNK N   1      27.527  10.545   1.466  0.00  0.00     0.009 C 
HETATM  103  C   UNK N   1      27.442   9.136   0.906  0.00  0.00     0.012 C 
HETATM  104  C   UNK N   1      28.540  11.314   0.632  0.00  0.00     0.012 C 
ENDBRANCH 101 102
BRANCH 101 105
HETATM  105  C   UNK N   1      25.755  11.880   2.737  0.00  0.00     0.238 C 
HETATM  106  O   UNK N   1      25.103  12.912   2.720  0.00  0.00    -0.271 OA
HETATM  107  N   UNK N   1      26.066  11.313   3.921  0.00  0.00    -0.368 N 
HETATM  108  H   UNK N   1      25.710  11.303   4.839  0.00  0.00     0.159 HD
HETATM  109  H   UNK N   1      26.873  10.756   3.847  0.00  0.00     0.159 HD
ENDBRANCH 101 105
ENDBRANCH  99 101
ENDBRANCH  93  97
ENDBRANCH  89  90
BRANCH  89 110
HETATM  110  C   UNK N   1      18.899  10.838   2.579  0.00  0.00     0.035 C 
BRANCH 110 111
HETATM  111  C   UNK N   1      18.260  12.007   3.326  0.00  0.00     0.004 C 
BRANCH 111 112
HETATM  112  C   UNK N   1      18.825  13.363   2.953  0.00  0.00     0.019 C 
BRANCH 112 113
HETATM  113  C   UNK N   1      18.726  13.543   1.448  0.00  0.00     0.111 C 
BRANCH 113 114
HETATM  114  N   UNK N   1      19.090  14.903   1.085  0.00  0.00    -0.430 N 
HETATM  115  H   UNK N   1      19.917  15.354   1.478  0.00  0.00     0.149 HD
HETATM  116  H   UNK N   1      18.507  15.418   0.426  0.00  0.00     0.149 HD
ENDBRANCH 113 114
ENDBRANCH 112 113
ENDBRANCH 111 112
ENDBRANCH 110 111
ENDBRANCH  89 110
ENDBRANCH  87  89
ENDBRANCH  84  85
ENDBRANCH  82  84
ENDBRANCH  79  80
BRANCH  79 117
HETATM  117  C   UNK N   1      22.306  14.886   7.431  0.00  0.00     0.075 C 
BRANCH 117 118
HETATM  118  C   UNK N   1      21.750  14.203   8.649  0.00  0.00    -0.028 A 
HETATM  119  C   UNK N   1      22.483  13.435   9.512  0.00  0.00    -0.002 A 
HETATM  120  C   UNK N   1      21.630  12.991  10.478  0.00  0.00     0.042 A 
HETATM  121  C   UNK N   1      23.833  13.096   9.506  0.00  0.00     0.014 A 
HETATM  122  N   UNK N   1      20.382  13.443  10.265  0.00  0.00    -0.365 N 
HETATM  123  C   UNK N   1      22.061  12.172  11.518  0.00  0.00     0.030 A 
HETATM  124  C   UNK N   1      20.442  14.192   9.133  0.00  0.00     0.096 A 
HETATM  125  H   UNK N   1      19.586  13.267  10.816  0.00  0.00     0.165 HD
HETATM  126  C   UNK N   1      23.421  11.806  11.542  0.00  0.00     0.002 A 
HETATM  127  C   UNK N   1      24.303  12.265  10.538  0.00  0.00     0.001 A 
ENDBRANCH 117 118
ENDBRANCH  79 117
ENDBRANCH  77  79
ENDBRANCH  74  75
BRANCH  74 128
HETATM  128  C   UNK N   1      23.119  17.596   4.732  0.00  0.00     0.036 C 
BRANCH 128 129
HETATM  129  C   UNK N   1      21.695  17.808   5.231  0.00  0.00     0.023 C 
BRANCH 129 130
HETATM  130  C   UNK N   1      21.085  19.020   4.561  0.00  0.00     0.138 C 
BRANCH 130 131
HETATM  131  N   UNK N   1      20.956  18.768   3.151  0.00  0.00    -0.227 N 
HETATM  132  C   UNK N   1      20.790  19.826   2.228  0.00  0.00     0.665 C 
HETATM  133  N   UNK N   1      20.936  21.171   2.642  0.00  0.00    -0.235 N 
HETATM  134  N   UNK N   1      20.492  19.564   1.012  0.00  0.00    -0.235 N 
HETATM  135  H   UNK N   1      20.857  21.559   3.543  0.00  0.00     0.174 HD
HETATM  136  H   UNK N   1      21.147  21.811   1.925  0.00  0.00     0.174 HD
HETATM  137  H   UNK N   1      19.930  19.906   0.280  0.00  0.00     0.174 HD
ATOM    138  HN  UNK N   1      21.000  18.736   0.701  1.00  0.00     0.174 HD
HETATM  139  H   UNK N   1      20.984  17.840   2.822  0.00  0.00     0.177 HD
ENDBRANCH 130 131
ENDBRANCH 129 130
ENDBRANCH 128 129
ENDBRANCH  74 128
ENDBRANCH  72  74
ENDBRANCH   1  70
BRANCH   1 140
HETATM  140  C   UNK N   1      27.645  16.853   4.344  0.00  0.00     0.073 C 
BRANCH 140 141
HETATM  141  C   UNK N   1      27.431  18.262   4.781  0.00  0.00    -0.056 A 
HETATM  142  C   UNK N   1      27.175  19.270   3.843  0.00  0.00     0.007 A 
HETATM  143  C   UNK N   1      27.059  20.600   4.261  0.00  0.00     0.001 A 
HETATM  144  C   UNK N   1      27.211  20.927   5.611  0.00  0.00     0.000 A 
HETATM  145  C   UNK N   1      27.476  19.922   6.547  0.00  0.00     0.001 A 
HETATM  146  C   UNK N   1      27.591  18.592   6.130  0.00  0.00     0.007 A 
ENDBRANCH 140 141
ENDBRANCH   1 140
TORSDOF 55
ENDMDL
MODEL 9
REMARK VINA RESULT:      -6.5      2.418      7.367
REMARK WARNING: 32 MAX_TORS EXCEEDED!!!
REMARK  55 active torsions:
REMARK  status: ('A' for Active; 'I' for Inactive)
REMARK    1  A    between atoms: O_12  and  C_101 
REMARK    2  A    between atoms: O_13  and  C_105 
REMARK    3  A    between atoms: O_17  and  C_115 
REMARK    4  A    between atoms: O_18  and  C_118 
REMARK       I    between atoms: N_20  and  C_47 
REMARK       I    between atoms: N_21  and  C_48 
REMARK    5  A    between atoms: C_51  and  N_21 
REMARK    6  A    between atoms: C_49  and  N_22 
REMARK       I    between atoms: N_22  and  C_58 
REMARK       I    between atoms: N_23  and  C_55 
REMARK    7  A    between atoms: N_24  and  C_59 
REMARK    8  A    between atoms: N_25  and  C_60 
REMARK       I    between atoms: N_25  and  C_62 
REMARK    9  A    between atoms: C_61  and  N_26 
REMARK       I    between atoms: N_26  and  C_66 
REMARK   10  A    between atoms: C_65  and  N_27 
REMARK       I    between atoms: N_27  and  C_73 
REMARK   11  A    between atoms: C_72  and  N_29 
REMARK       I    between atoms: N_29  and  C_81 
REMARK   12  A    between atoms: C_77  and  N_30 
REMARK       I    between atoms: N_30  and  C_87 
REMARK   13  A    between atoms: C_79  and  N_31 
REMARK       I    between atoms: N_31  and  C_89 
REMARK   14  A    between atoms: N_32  and  C_75 
REMARK       I    between atoms: N_32  and  C_98 
REMARK   15  A    between atoms: C_80  and  N_33 
REMARK       I    between atoms: N_33  and  C_95 
REMARK   16  A    between atoms: C_94  and  N_35 
REMARK       I    between atoms: N_35  and  C_106 
REMARK   17  A    between atoms: C_102  and  N_38 
REMARK       I    between atoms: N_38  and  C_111 
REMARK       I    between atoms: N_39  and  C_98 
REMARK   18  A    between atoms: C_112  and  N_42 
REMARK       I    between atoms: N_42  and  C_119 
REMARK   19  A    between atoms: C_43  and  C_48 
REMARK   20  A    between atoms: C_47  and  C_49 
REMARK   21  A    between atoms: C_49  and  C_50 
REMARK   22  A    between atoms: C_50  and  C_52 
REMARK   23  A    between atoms: C_51  and  C_53 
REMARK   24  A    between atoms: C_51  and  C_55 
REMARK   25  A    between atoms: C_52  and  C_54 
REMARK   26  A    between atoms: C_54  and  C_59 
REMARK   27  A    between atoms: C_58  and  C_60 
REMARK   28  A    between atoms: C_61  and  C_62 
REMARK   29  A    between atoms: C_61  and  C_63 
REMARK   30  A    between atoms: C_63  and  C_64 
REMARK   31  A    between atoms: C_65  and  C_66 
REMARK   32  A    between atoms: C_65  and  C_67 
REMARK   33  A    between atoms: C_67  and  C_71 
REMARK   34  A    between atoms: C_71  and  C_75 
REMARK   35  A    between atoms: C_72  and  C_73 
REMARK   36  A    between atoms: C_72  and  C_76 
REMARK   37  A    between atoms: C_76  and  C_88 
REMARK   38  A    between atoms: C_77  and  C_81 
REMARK   39  A    between atoms: C_77  and  C_84 
REMARK   40  A    between atoms: C_79  and  C_86 
REMARK   41  A    between atoms: C_79  and  C_87 
REMARK   42  A    between atoms: C_80  and  C_83 
REMARK   43  A    between atoms: C_80  and  C_89 
REMARK   44  A    between atoms: C_83  and  C_90 
REMARK   45  A    between atoms: C_84  and  C_91 
REMARK   46  A    between atoms: C_86  and  C_92 
REMARK   47  A    between atoms: C_90  and  C_93 
REMARK   48  A    between atoms: C_92  and  C_105 
REMARK   49  A    between atoms: C_94  and  C_95 
REMARK   50  A    between atoms: C_94  and  C_101 
REMARK   51  A    between atoms: C_102  and  C_106 
REMARK   52  A    between atoms: C_102  and  C_107 
REMARK   53  A    between atoms: C_107  and  C_110 
REMARK   54  A    between atoms: C_111  and  C_112 
REMARK   55  A    between atoms: C_112  and  C_115 
ROOT
HETATM    1  C   UNK N   1      28.731  16.710   3.854  0.00  0.00     0.180 C 
ENDROOT
BRANCH   1   2
HETATM    2  N   UNK N   1      29.852  16.894   2.946  0.00  0.00    -0.346 N 
HETATM    3  C   UNK N   1      31.170  16.661   3.221  0.00  0.00     0.241 C 
HETATM    4  O   UNK N   1      31.997  16.873   2.351  0.00  0.00    -0.271 OA
HETATM    5  H   UNK N   1      29.640  17.218   2.041  0.00  0.00     0.163 HD
BRANCH   3   6
HETATM    6  C   UNK N   1      31.670  16.276   4.591  0.00  0.00     0.182 C 
BRANCH   6   7
HETATM    7  N   UNK N   1      32.819  15.424   4.497  0.00  0.00    -0.346 N 
HETATM    8  C   UNK N   1      32.974  14.244   5.138  0.00  0.00     0.241 C 
HETATM    9  O   UNK N   1      32.113  13.796   5.881  0.00  0.00    -0.271 OA
HETATM   10  H   UNK N   1      33.555  15.723   3.916  0.00  0.00     0.163 HD
BRANCH   8  11
HETATM   11  C   UNK N   1      34.254  13.544   4.927  0.00  0.00     0.177 C 
BRANCH  11  12
HETATM   12  N   UNK N   1      34.876  13.364   6.209  0.00  0.00    -0.346 N 
HETATM   13  C   UNK N   1      35.917  14.110   6.671  0.00  0.00     0.241 C 
HETATM   14  O   UNK N   1      36.357  15.052   6.026  0.00  0.00    -0.271 OA
HETATM   15  H   UNK N   1      34.525  12.654   6.793  0.00  0.00     0.163 HD
BRANCH  13  16
HETATM   16  C   UNK N   1      36.574  13.711   7.956  0.00  0.00     0.176 C 
BRANCH  16  17
HETATM   17  N   UNK N   1      36.152  12.374   8.336  0.00  0.00    -0.346 N 
HETATM   18  C   UNK N   1      35.502  12.093   9.501  0.00  0.00     0.243 C 
HETATM   19  O   UNK N   1      35.127  10.951   9.711  0.00  0.00    -0.271 OA
HETATM   20  H   UNK N   1      36.344  11.632   7.719  0.00  0.00     0.163 HD
BRANCH  18  21
HETATM   21  C   UNK N   1      35.219  13.181  10.520  0.00  0.00     0.200 C 
BRANCH  21  22
HETATM   22  N   UNK N   1      35.151  12.586  11.828  0.00  0.00    -0.344 N 
HETATM   23  C   UNK N   1      36.187  12.682  12.690  0.00  0.00     0.241 C 
HETATM   24  O   UNK N   1      37.240  13.203  12.353  0.00  0.00    -0.271 OA
HETATM   25  H   UNK N   1      34.338  12.102  12.099  0.00  0.00     0.163 HD
BRANCH  23  26
HETATM   26  C   UNK N   1      36.058  12.159  14.057  0.00  0.00     0.180 C 
BRANCH  26  27
HETATM   27  N   UNK N   1      36.854  10.996  14.308  0.00  0.00    -0.346 N 
HETATM   28  C   UNK N   1      36.520   9.795  13.777  0.00  0.00     0.243 C 
HETATM   29  O   UNK N   1      35.569   9.686  13.017  0.00  0.00    -0.271 OA
HETATM   30  H   UNK N   1      37.656  11.069  14.874  0.00  0.00     0.163 HD
BRANCH  28  31
HETATM   31  C   UNK N   1      37.279   8.582  14.182  0.00  0.00     0.200 C 
BRANCH  31  32
HETATM   32  N   UNK N   1      37.632   8.730  15.574  0.00  0.00    -0.346 N 
HETATM   33  C   UNK N   1      36.967   8.090  16.563  0.00  0.00     0.214 C 
HETATM   34  O   UNK N   1      36.033   7.345  16.308  0.00  0.00    -0.274 OA
HETATM   35  C   UNK N   1      37.355   8.329  17.980  0.00  0.00     0.117 C 
HETATM   36  H   UNK N   1      38.385   9.318  15.813  0.00  0.00     0.163 HD
ENDBRANCH  31  32
BRANCH  31  37
HETATM   37  C   UNK N   1      38.541   8.435  13.345  0.00  0.00     0.199 C 
BRANCH  37  38
HETATM   38  O   UNK N   1      38.242   8.566  11.988  0.00  0.00    -0.398 OA
HETATM   39  H   UNK N   1      38.191   7.819  11.371  0.00  0.00     0.209 HD
ENDBRANCH  37  38
ENDBRANCH  31  37
ENDBRANCH  28  31
ENDBRANCH  26  27
BRANCH  26  40
HETATM   40  C   UNK N   1      34.720  12.231  14.761  0.00  0.00     0.073 C 
BRANCH  40  41
HETATM   41  C   UNK N   1      35.068  12.402  16.186  0.00  0.00    -0.056 A 
HETATM   42  C   UNK N   1      35.115  13.687  16.731  0.00  0.00     0.010 A 
HETATM   43  C   UNK N   1      35.243  13.851  18.109  0.00  0.00     0.037 A 
HETATM   44  C   UNK N   1      35.308  12.731  18.944  0.00  0.00     0.065 A 
HETATM   45  C   UNK N   1      35.270  11.444  18.397  0.00  0.00     0.037 A 
HETATM   46  C   UNK N   1      35.138  11.279  17.019  0.00  0.00     0.010 A 
BRANCH  44  47
HETATM   47  O   UNK N   1      35.395  12.891  20.272  0.00  0.00    -0.361 OA
HETATM   48  H   UNK N   1      36.110  12.662  20.833  0.00  0.00     0.217 HD
ENDBRANCH  44  47
ENDBRANCH  40  41
ENDBRANCH  26  40
ENDBRANCH  23  26
ENDBRANCH  21  22
BRANCH  21  49
HETATM   49  C   UNK N   1      33.977  14.021  10.220  0.00  0.00     0.199 C 
BRANCH  49  50
HETATM   50  O   UNK N   1      33.738  14.907  11.273  0.00  0.00    -0.398 OA
HETATM   51  H   UNK N   1      33.982  15.806  11.543  0.00  0.00     0.209 HD
ENDBRANCH  49  50
ENDBRANCH  21  49
ENDBRANCH  18  21
ENDBRANCH  16  17
BRANCH  16  52
HETATM   52  C   UNK N   1      38.069  13.666   7.656  0.00  0.00     0.035 C 
BRANCH  52  53
HETATM   53  C   UNK N   1      38.888  13.064   8.780  0.00  0.00     0.002 C 
BRANCH  53  54
HETATM   54  C   UNK N   1      39.545  11.778   8.317  0.00  0.00    -0.004 C 
HETATM   55  C   UNK N   1      39.255  10.670   9.307  0.00  0.00     0.005 C 
ENDBRANCH  53  54
ENDBRANCH  52  53
ENDBRANCH  16  52
ENDBRANCH  13  16
ENDBRANCH  11  12
BRANCH  11  56
HETATM   56  C   UNK N   1      34.261  12.286   4.087  0.00  0.00     0.045 C 
BRANCH  56  57
HETATM   57  C   UNK N   1      34.273  11.145   5.092  0.00  0.00     0.112 C 
BRANCH  57  58
HETATM   58  C   UNK N   1      35.540  10.357   5.111  0.00  0.00     0.139 C 
HETATM   59  O   UNK N   1      36.555  10.872   5.550  0.00  0.00    -0.650 OA
BRANCH  58  60
HETATM   60  O   UNK N   1      35.575   9.088   4.662  0.00  0.00    -0.776 OA
HETATM   61  H   UNK N   1      35.389   8.174   4.577  0.00  0.00     0.167 HD
ENDBRANCH  58  60
ENDBRANCH  57  58
ENDBRANCH  56  57
ENDBRANCH  11  56
ENDBRANCH   8  11
ENDBRANCH   6   7
BRANCH   6  62
HETATM   62  C   UNK N   1      32.039  17.453   5.490  0.00  0.00     0.093 C 
BRANCH  62  63
HETATM   63  C   UNK N   1      31.966  17.126   6.943  0.00  0.00     0.028 A 
HETATM   64  N   UNK N   1      31.171  16.186   7.477  0.00  0.00    -0.354 N 
HETATM   65  C   UNK N   1      31.467  16.189   8.792  0.00  0.00     0.180 A 
HETATM   66  H   UNK N   1      30.515  15.619   7.011  0.00  0.00     0.166 HD
HETATM   67  N   UNK N   1      32.429  17.088   9.087  0.00  0.00    -0.360 N 
HETATM   68  C   UNK N   1      32.752  17.675   7.921  0.00  0.00     0.114 A 
ATOM     69  HN  UNK N   1      32.828  17.282  10.005  1.00  0.00     0.166 HD
ENDBRANCH  62  63
ENDBRANCH   6  62
ENDBRANCH   3   6
ENDBRANCH   1   2
BRANCH   1  70
HETATM   70  C   UNK N   1      27.431  16.459   3.140  0.00  0.00     0.241 C 
HETATM   71  O   UNK N   1      26.688  17.407   2.945  0.00  0.00    -0.271 OA
HETATM   72  N   UNK N   1      27.064  15.237   2.676  0.00  0.00    -0.346 N 
HETATM   73  H   UNK N   1      26.219  15.190   2.174  0.00  0.00     0.163 HD
BRANCH  72  74
HETATM   74  C   UNK N   1      27.793  13.988   2.847  0.00  0.00     0.176 C 
BRANCH  74  75
HETATM   75  C   UNK N   1      28.108  13.715   4.301  0.00  0.00     0.241 C 
HETATM   76  O   UNK N   1      29.182  14.075   4.756  0.00  0.00    -0.271 OA
HETATM   77  N   UNK N   1      27.239  13.057   5.104  0.00  0.00    -0.346 N 
HETATM   78  H   UNK N   1      27.516  12.850   6.026  0.00  0.00     0.163 HD
BRANCH  77  79
HETATM   79  C   UNK N   1      25.925  12.646   4.667  0.00  0.00     0.181 C 
BRANCH  79  80
HETATM   80  C   UNK N   1      25.372  11.349   5.182  0.00  0.00     0.241 C 
HETATM   81  O   UNK N   1      25.538  10.325   4.541  0.00  0.00    -0.271 OA
HETATM   82  N   UNK N   1      24.693  11.303   6.355  0.00  0.00    -0.351 N 
HETATM   83  H   UNK N   1      24.278  10.456   6.640  0.00  0.00     0.163 HD
BRANCH  82  84
HETATM   84  C   UNK N   1      24.565  12.474   7.198  0.00  0.00     0.225 C 
BRANCH  84  85
HETATM   85  C   UNK N   1      23.125  12.678   7.569  0.00  0.00     0.236 C 
HETATM   86  O   UNK N   1      22.273  11.900   7.154  0.00  0.00    -0.272 OA
HETATM   87  N   UNK N   1      22.766  13.709   8.370  0.00  0.00    -0.346 N 
HETATM   88  H   UNK N   1      23.457  14.308   8.735  0.00  0.00     0.163 HD
BRANCH  87  89
HETATM   89  C   UNK N   1      21.374  13.936   8.694  0.00  0.00     0.176 C 
BRANCH  89  90
HETATM   90  C   UNK N   1      20.880  15.195   7.983  0.00  0.00     0.243 C 
HETATM   91  O   UNK N   1      21.037  16.249   8.570  0.00  0.00    -0.271 OA
HETATM   92  N   UNK N   1      20.242  15.199   6.774  0.00  0.00    -0.337 N 
HETATM   93  C   UNK N   1      19.661  16.414   6.256  0.00  0.00     0.179 A 
HETATM   94  C   UNK N   1      20.003  14.047   5.972  0.00  0.00     0.127 A 
HETATM   95  C   UNK N   1      18.986  16.024   4.955  0.00  0.00     0.037 A 
HETATM   96  C   UNK N   1      19.109  14.509   4.837  0.00  0.00     0.022 A 
BRANCH  93  97
HETATM   97  C   UNK N   1      20.664  17.503   6.032  0.00  0.00     0.241 C 
HETATM   98  O   UNK N   1      21.008  18.232   6.953  0.00  0.00    -0.271 OA
HETATM   99  N   UNK N   1      21.218  17.632   4.803  0.00  0.00    -0.346 N 
HETATM  100  H   UNK N   1      20.869  17.082   4.065  0.00  0.00     0.163 HD
BRANCH  99 101
HETATM  101  C   UNK N   1      22.303  18.546   4.534  0.00  0.00     0.179 C 
BRANCH 101 102
HETATM  102  C   UNK N   1      22.025  19.374   3.265  0.00  0.00     0.009 C 
HETATM  103  C   UNK N   1      20.736  20.165   3.400  0.00  0.00     0.012 C 
HETATM  104  C   UNK N   1      23.151  20.364   3.011  0.00  0.00     0.012 C 
ENDBRANCH 101 102
BRANCH 101 105
HETATM  105  C   UNK N   1      23.561  17.716   4.462  0.00  0.00     0.238 C 
HETATM  106  O   UNK N   1      24.459  17.924   5.262  0.00  0.00    -0.271 OA
HETATM  107  N   UNK N   1      23.695  16.720   3.561  0.00  0.00    -0.368 N 
HETATM  108  H   UNK N   1      24.192  15.874   3.479  0.00  0.00     0.159 HD
HETATM  109  H   UNK N   1      23.141  16.884   2.764  0.00  0.00     0.159 HD
ENDBRANCH 101 105
ENDBRANCH  99 101
ENDBRANCH  93  97
ENDBRANCH  89  90
BRANCH  89 110
HETATM  110  C   UNK N   1      21.018  13.520  10.133  0.00  0.00     0.035 C 
BRANCH 110 111
HETATM  111  C   UNK N   1      21.557  12.178  10.629  0.00  0.00     0.004 C 
BRANCH 111 112
HETATM  112  C   UNK N   1      22.708  12.298  11.607  0.00  0.00     0.019 C 
BRANCH 112 113
HETATM  113  C   UNK N   1      23.966  11.744  10.961  0.00  0.00     0.111 C 
BRANCH 113 114
HETATM  114  N   UNK N   1      25.059  12.690  11.112  0.00  0.00    -0.430 N 
HETATM  115  H   UNK N   1      26.020  12.373  11.250  0.00  0.00     0.149 HD
HETATM  116  H   UNK N   1      24.864  13.690  11.080  0.00  0.00     0.149 HD
ENDBRANCH 113 114
ENDBRANCH 112 113
ENDBRANCH 111 112
ENDBRANCH 110 111
ENDBRANCH  89 110
ENDBRANCH  87  89
ENDBRANCH  84  85
ENDBRANCH  82  84
ENDBRANCH  79  80
BRANCH  79 117
HETATM  117  C   UNK N   1      25.018  13.642   3.944  0.00  0.00     0.075 C 
BRANCH 117 118
HETATM  118  C   UNK N   1      23.771  13.090   3.313  0.00  0.00    -0.028 A 
HETATM  119  C   UNK N   1      23.740  12.397   2.134  0.00  0.00    -0.002 A 
HETATM  120  C   UNK N   1      22.438  12.071   1.894  0.00  0.00     0.042 A 
HETATM  121  C   UNK N   1      24.762  12.042   1.259  0.00  0.00     0.014 A 
HETATM  122  N   UNK N   1      21.638  12.529   2.873  0.00  0.00    -0.365 N 
HETATM  123  C   UNK N   1      22.055  11.360   0.760  0.00  0.00     0.030 A 
HETATM  124  C   UNK N   1      22.451  13.164   3.756  0.00  0.00     0.096 A 
HETATM  125  H   UNK N   1      20.661  12.425   2.938  0.00  0.00     0.165 HD
HETATM  126  C   UNK N   1      23.064  10.987  -0.149  0.00  0.00     0.002 A 
HETATM  127  C   UNK N   1      24.413  11.329   0.099  0.00  0.00     0.001 A 
ENDBRANCH 117 118
ENDBRANCH  79 117
ENDBRANCH  77  79
ENDBRANCH  74  75
BRANCH  74 128
HETATM  128  C   UNK N   1      29.073  13.988   2.023  0.00  0.00     0.036 C 
BRANCH 128 129
HETATM  129  C   UNK N   1      29.294  12.674   1.282  0.00  0.00     0.023 C 
BRANCH 129 130
HETATM  130  C   UNK N   1      30.680  12.140   1.572  0.00  0.00     0.138 C 
BRANCH 130 131
HETATM  131  N   UNK N   1      30.927  12.206   2.986  0.00  0.00    -0.227 N 
HETATM  132  C   UNK N   1      30.674  11.099   3.828  0.00  0.00     0.665 C 
HETATM  133  N   UNK N   1      30.352   9.836   3.278  0.00  0.00    -0.235 N 
HETATM  134  N   UNK N   1      30.725  11.246   5.098  0.00  0.00    -0.235 N 
HETATM  135  H   UNK N   1      29.981   9.616   2.394  0.00  0.00     0.174 HD
HETATM  136  H   UNK N   1      30.526   9.066   3.866  0.00  0.00     0.174 HD
HETATM  137  H   UNK N   1      30.258  10.950   5.913  0.00  0.00     0.174 HD
ATOM    138  HN  UNK N   1      31.495  11.866   5.346  1.00  0.00     0.174 HD
HETATM  139  H   UNK N   1      31.279  13.040   3.377  0.00  0.00     0.177 HD
ENDBRANCH 130 131
ENDBRANCH 129 130
ENDBRANCH 128 129
ENDBRANCH  74 128
ENDBRANCH  72  74
ENDBRANCH   1  70
BRANCH   1 140
HETATM  140  C   UNK N   1      28.520  17.959   4.703  0.00  0.00     0.073 C 
BRANCH 140 141
HETATM  141  C   UNK N   1      28.296  17.697   6.153  0.00  0.00    -0.056 A 
HETATM  142  C   UNK N   1      27.636  16.536   6.575  0.00  0.00     0.007 A 
HETATM  143  C   UNK N   1      27.360  16.343   7.933  0.00  0.00     0.001 A 
HETATM  144  C   UNK N   1      27.730  17.314   8.868  0.00  0.00     0.000 A 
HETATM  145  C   UNK N   1      28.379  18.479   8.446  0.00  0.00     0.001 A 
HETATM  146  C   UNK N   1      28.657  18.671   7.088  0.00  0.00     0.007 A 
ENDBRANCH 140 141
ENDBRANCH   1 140
TORSDOF 55
ENDMDL
