MODEL 1
REMARK VINA RESULT:      -7.9      0.000      0.000
REMARK  5 active torsions:
REMARK  status: ('A' for Active; 'I' for Inactive)
REMARK    1  A    between atoms: O_2  and  C_19 
REMARK    2  A    between atoms: C_9  and  C_14 
REMARK    3  A    between atoms: C_10  and  C_15 
REMARK    4  A    between atoms: C_13  and  C_16 
REMARK    5  A    between atoms: C_14  and  C_19 
ROOT
HETATM    1  N   UNK N   1      29.070  17.925   6.618  0.00  0.00    -0.351 N 
HETATM    2  C   UNK N   1      27.615  18.289   4.832  0.00  0.00    -0.026 A 
HETATM    3  C   UNK N   1      27.759  18.462   6.366  0.00  0.00     0.138 A 
HETATM    4  C   UNK N   1      28.860  17.516   4.323  0.00  0.00     0.068 A 
HETATM    5  C   UNK N   1      29.658  17.424   5.561  0.00  0.00     0.024 A 
HETATM    6  C   UNK N   1      29.891  17.812   7.676  0.00  0.00     0.033 A 
HETATM    7  C   UNK N   1      30.931  16.962   5.864  0.00  0.00     0.010 A 
HETATM    8  C   UNK N   1      27.581  19.656   4.179  0.00  0.00     0.016 C 
HETATM    9  C   UNK N   1      26.345  17.533   4.497  0.00  0.00     0.016 C 
HETATM   10  C   UNK N   1      31.080  17.180   7.266  0.00  0.00     0.010 A 
ENDROOT
BRANCH  10  11
HETATM   11  C   UNK N   1      32.207  16.795   8.179  0.00  0.00    -0.023 A 
HETATM   12  C   UNK N   1      33.311  17.636   8.365  0.00  0.00     0.014 A 
HETATM   13  C   UNK N   1      34.400  17.245   9.145  0.00  0.00     0.024 A 
HETATM   14  C   UNK N   1      34.409  15.987   9.745  0.00  0.00     0.034 A 
HETATM   15 Cl   UNK N   1      35.783  15.489  10.706  0.00  0.00    -0.084 Cl
HETATM   16  C   UNK N   1      33.325  15.125   9.564  0.00  0.00     0.024 A 
HETATM   17  C   UNK N   1      32.236  15.525   8.782  0.00  0.00     0.014 A 
ENDBRANCH  10  11
BRANCH   6  18
HETATM   18  C   UNK N   1      29.563  18.330   9.049  0.00  0.00     0.168 C 
BRANCH  18  19
HETATM   19  C   UNK N   1      28.886  17.338   9.940  0.00  0.00     0.145 C 
HETATM   20  O   UNK N   1      27.702  17.082   9.794  0.00  0.00    -0.650 OA
BRANCH  19  21
HETATM   21  O   UNK N   1      29.569  16.782  10.957  0.00  0.00    -0.776 OA
HETATM   22  H   UNK N   1      29.325  16.674  11.856  0.00  0.00     0.167 HD
ENDBRANCH  19  21
ENDBRANCH  18  19
ENDBRANCH   6  18
BRANCH   7  23
HETATM   23  C   UNK N   1      31.878  16.439   4.831  0.00  0.00    -0.023 A 
HETATM   24  C   UNK N   1      32.208  15.074   4.807  0.00  0.00     0.012 A 
HETATM   25  C   UNK N   1      33.032  14.552   3.805  0.00  0.00     0.001 A 
HETATM   26  C   UNK N   1      33.514  15.386   2.794  0.00  0.00     0.000 A 
HETATM   27  C   UNK N   1      33.174  16.739   2.789  0.00  0.00     0.001 A 
HETATM   28  C   UNK N   1      32.359  17.255   3.800  0.00  0.00     0.012 A 
ENDBRANCH   7  23
TORSDOF 5
ENDMDL
MODEL 2
REMARK VINA RESULT:      -7.3     12.397     15.467
REMARK  5 active torsions:
REMARK  status: ('A' for Active; 'I' for Inactive)
REMARK    1  A    between atoms: O_2  and  C_19 
REMARK    2  A    between atoms: C_9  and  C_14 
REMARK    3  A    between atoms: C_10  and  C_15 
REMARK    4  A    between atoms: C_13  and  C_16 
REMARK    5  A    between atoms: C_14  and  C_19 
ROOT
HETATM    1  N   UNK N   1      29.211  28.055  -3.972  0.00  0.00    -0.351 N 
HETATM    2  C   UNK N   1      30.924  29.203  -2.883  0.00  0.00    -0.026 A 
HETATM    3  C   UNK N   1      29.554  29.397  -3.583  0.00  0.00     0.138 A 
HETATM    4  C   UNK N   1      31.334  27.716  -3.048  0.00  0.00     0.068 A 
HETATM    5  C   UNK N   1      30.131  27.165  -3.701  0.00  0.00     0.024 A 
HETATM    6  C   UNK N   1      28.157  27.443  -4.539  0.00  0.00     0.033 A 
HETATM    7  C   UNK N   1      29.721  25.889  -4.063  0.00  0.00     0.010 A 
HETATM    8  C   UNK N   1      30.778  29.516  -1.409  0.00  0.00     0.016 C 
HETATM    9  C   UNK N   1      31.969  30.114  -3.496  0.00  0.00     0.016 C 
HETATM   10  C   UNK N   1      28.434  26.067  -4.651  0.00  0.00     0.010 A 
ENDROOT
BRANCH  10  11
HETATM   11  C   UNK N   1      27.538  25.062  -5.314  0.00  0.00    -0.023 A 
HETATM   12  C   UNK N   1      26.341  24.649  -4.715  0.00  0.00     0.014 A 
HETATM   13  C   UNK N   1      25.548  23.653  -5.286  0.00  0.00     0.024 A 
HETATM   14  C   UNK N   1      25.951  23.037  -6.469  0.00  0.00     0.034 A 
HETATM   15 Cl   UNK N   1      24.968  21.773  -7.175  0.00  0.00    -0.084 Cl
HETATM   16  C   UNK N   1      27.147  23.423  -7.080  0.00  0.00     0.024 A 
HETATM   17  C   UNK N   1      27.935  24.424  -6.502  0.00  0.00     0.014 A 
ENDBRANCH  10  11
BRANCH   6  18
HETATM   18  C   UNK N   1      26.891  28.152  -4.935  0.00  0.00     0.168 C 
BRANCH  18  19
HETATM   19  C   UNK N   1      26.070  28.641  -3.785  0.00  0.00     0.145 C 
HETATM   20  O   UNK N   1      25.476  27.852  -3.068  0.00  0.00    -0.650 OA
BRANCH  19  21
HETATM   21  O   UNK N   1      25.924  29.963  -3.587  0.00  0.00    -0.776 OA
HETATM   22  H   UNK N   1      26.544  30.659  -3.691  0.00  0.00     0.167 HD
ENDBRANCH  19  21
ENDBRANCH  18  19
ENDBRANCH   6  18
BRANCH   7  23
HETATM   23  C   UNK N   1      30.521  24.660  -3.773  0.00  0.00    -0.023 A 
HETATM   24  C   UNK N   1      30.075  23.742  -2.808  0.00  0.00     0.012 A 
HETATM   25  C   UNK N   1      30.770  22.550  -2.576  0.00  0.00     0.001 A 
HETATM   26  C   UNK N   1      31.906  22.248  -3.328  0.00  0.00     0.000 A 
HETATM   27  C   UNK N   1      32.347  23.136  -4.308  0.00  0.00     0.001 A 
HETATM   28  C   UNK N   1      31.654  24.330  -4.528  0.00  0.00     0.012 A 
ENDBRANCH   7  23
TORSDOF 5
ENDMDL
MODEL 3
REMARK VINA RESULT:      -7.0      3.073      5.348
REMARK  5 active torsions:
REMARK  status: ('A' for Active; 'I' for Inactive)
REMARK    1  A    between atoms: O_2  and  C_19 
REMARK    2  A    between atoms: C_9  and  C_14 
REMARK    3  A    between atoms: C_10  and  C_15 
REMARK    4  A    between atoms: C_13  and  C_16 
REMARK    5  A    between atoms: C_14  and  C_19 
ROOT
HETATM    1  N   UNK N   1      28.230  15.318   4.098  0.00  0.00    -0.351 N 
HETATM    2  C   UNK N   1      26.155  15.243   3.038  0.00  0.00    -0.026 A 
HETATM    3  C   UNK N   1      27.434  14.412   3.314  0.00  0.00     0.138 A 
HETATM    4  C   UNK N   1      26.385  16.670   3.602  0.00  0.00     0.068 A 
HETATM    5  C   UNK N   1      27.698  16.503   4.256  0.00  0.00     0.024 A 
HETATM    6  C   UNK N   1      29.405  15.271   4.750  0.00  0.00     0.033 A 
HETATM    7  C   UNK N   1      28.495  17.312   5.053  0.00  0.00     0.010 A 
HETATM    8  C   UNK N   1      24.984  14.608   3.759  0.00  0.00     0.016 C 
HETATM    9  C   UNK N   1      25.867  15.300   1.551  0.00  0.00     0.016 C 
HETATM   10  C   UNK N   1      29.642  16.520   5.354  0.00  0.00     0.010 A 
ENDROOT
BRANCH  10  11
HETATM   11  C   UNK N   1      30.892  16.890   6.098  0.00  0.00    -0.023 A 
HETATM   12  C   UNK N   1      30.875  17.116   7.480  0.00  0.00     0.014 A 
HETATM   13  C   UNK N   1      32.015  17.543   8.162  0.00  0.00     0.024 A 
HETATM   14  C   UNK N   1      33.198  17.769   7.463  0.00  0.00     0.034 A 
HETATM   15 Cl   UNK N   1      34.623  18.324   8.314  0.00  0.00    -0.084 Cl
HETATM   16  C   UNK N   1      33.238  17.563   6.082  0.00  0.00     0.024 A 
HETATM   17  C   UNK N   1      32.091  17.132   5.406  0.00  0.00     0.014 A 
ENDBRANCH  10  11
BRANCH   6  18
HETATM   18  C   UNK N   1      30.270  14.043   4.828  0.00  0.00     0.168 C 
BRANCH  18  19
HETATM   19  C   UNK N   1      31.229  13.888   3.692  0.00  0.00     0.145 C 
HETATM   20  O   UNK N   1      30.827  13.593   2.578  0.00  0.00    -0.650 OA
BRANCH  19  21
HETATM   21  O   UNK N   1      32.550  14.000   3.916  0.00  0.00    -0.776 OA
HETATM   22  H   UNK N   1      33.027  13.973   4.722  0.00  0.00     0.167 HD
ENDBRANCH  19  21
ENDBRANCH  18  19
ENDBRANCH   6  18
BRANCH   7  23
HETATM   23  C   UNK N   1      28.087  18.682   5.494  0.00  0.00    -0.023 A 
HETATM   24  C   UNK N   1      27.813  19.676   4.540  0.00  0.00     0.012 A 
HETATM   25  C   UNK N   1      27.358  20.939   4.932  0.00  0.00     0.001 A 
HETATM   26  C   UNK N   1      27.143  21.216   6.283  0.00  0.00     0.000 A 
HETATM   27  C   UNK N   1      27.386  20.231   7.240  0.00  0.00     0.001 A 
HETATM   28  C   UNK N   1      27.850  18.974   6.843  0.00  0.00     0.012 A 
ENDBRANCH   7  23
TORSDOF 5
ENDMDL
MODEL 4
REMARK VINA RESULT:      -6.9     12.678     15.569
REMARK  5 active torsions:
REMARK  status: ('A' for Active; 'I' for Inactive)
REMARK    1  A    between atoms: O_2  and  C_19 
REMARK    2  A    between atoms: C_9  and  C_14 
REMARK    3  A    between atoms: C_10  and  C_15 
REMARK    4  A    between atoms: C_13  and  C_16 
REMARK    5  A    between atoms: C_14  and  C_19 
ROOT
HETATM    1  N   UNK N   1      27.246  23.636  -6.818  0.00  0.00    -0.351 N 
HETATM    2  C   UNK N   1      26.924  25.413  -5.343  0.00  0.00    -0.026 A 
HETATM    3  C   UNK N   1      26.316  24.709  -6.584  0.00  0.00     0.138 A 
HETATM    4  C   UNK N   1      28.283  24.733  -5.030  0.00  0.00     0.068 A 
HETATM    5  C   UNK N   1      28.281  23.635  -6.017  0.00  0.00     0.024 A 
HETATM    6  C   UNK N   1      27.333  22.586  -7.653  0.00  0.00     0.033 A 
HETATM    7  C   UNK N   1      29.113  22.555  -6.269  0.00  0.00     0.010 A 
HETATM    8  C   UNK N   1      25.995  25.228  -4.161  0.00  0.00     0.016 C 
HETATM    9  C   UNK N   1      27.119  26.892  -5.612  0.00  0.00     0.016 C 
HETATM   10  C   UNK N   1      28.516  21.876  -7.372  0.00  0.00     0.010 A 
ENDROOT
BRANCH  10  11
HETATM   11  C   UNK N   1      29.012  20.692  -8.150  0.00  0.00    -0.023 A 
HETATM   12  C   UNK N   1      29.155  19.436  -7.548  0.00  0.00     0.014 A 
HETATM   13  C   UNK N   1      29.695  18.353  -8.243  0.00  0.00     0.024 A 
HETATM   14  C   UNK N   1      30.122  18.517  -9.559  0.00  0.00     0.034 A 
HETATM   15 Cl   UNK N   1      30.820  17.165 -10.424  0.00  0.00    -0.084 Cl
HETATM   16  C   UNK N   1      30.002  19.763 -10.178  0.00  0.00     0.024 A 
HETATM   17  C   UNK N   1      29.457  20.843  -9.475  0.00  0.00     0.014 A 
ENDBRANCH  10  11
BRANCH   6  18
HETATM   18  C   UNK N   1      26.288  22.243  -8.679  0.00  0.00     0.168 C 
BRANCH  18  19
HETATM   19  C   UNK N   1      25.165  21.402  -8.161  0.00  0.00     0.145 C 
HETATM   20  O   UNK N   1      25.356  20.236  -7.854  0.00  0.00    -0.650 OA
BRANCH  19  21
HETATM   21  O   UNK N   1      23.922  21.912  -8.106  0.00  0.00    -0.776 OA
HETATM   22  H   UNK N   1      23.193  21.661  -7.573  0.00  0.00     0.167 HD
ENDBRANCH  19  21
ENDBRANCH  18  19
ENDBRANCH   6  18
BRANCH   7  23
HETATM   23  C   UNK N   1      30.314  22.236  -5.436  0.00  0.00    -0.023 A 
HETATM   24  C   UNK N   1      30.157  21.632  -4.177  0.00  0.00     0.012 A 
HETATM   25  C   UNK N   1      31.270  21.259  -3.417  0.00  0.00     0.001 A 
HETATM   26  C   UNK N   1      32.557  21.457  -3.920  0.00  0.00     0.000 A 
HETATM   27  C   UNK N   1      32.729  22.032  -5.179  0.00  0.00     0.001 A 
HETATM   28  C   UNK N   1      31.613  22.412  -5.929  0.00  0.00     0.012 A 
ENDBRANCH   7  23
TORSDOF 5
ENDMDL
MODEL 5
REMARK VINA RESULT:      -6.8      7.574     10.014
REMARK  5 active torsions:
REMARK  status: ('A' for Active; 'I' for Inactive)
REMARK    1  A    between atoms: O_2  and  C_19 
REMARK    2  A    between atoms: C_9  and  C_14 
REMARK    3  A    between atoms: C_10  and  C_15 
REMARK    4  A    between atoms: C_13  and  C_16 
REMARK    5  A    between atoms: C_14  and  C_19 
ROOT
HETATM    1  N   UNK N   1      22.408  15.029   6.663  0.00  0.00    -0.351 N 
HETATM    2  C   UNK N   1      23.535  13.246   7.656  0.00  0.00    -0.026 A 
HETATM    3  C   UNK N   1      22.318  14.190   7.829  0.00  0.00     0.138 A 
HETATM    4  C   UNK N   1      24.336  13.725   6.417  0.00  0.00     0.068 A 
HETATM    5  C   UNK N   1      23.458  14.801   5.916  0.00  0.00     0.024 A 
HETATM    6  C   UNK N   1      21.672  16.005   6.105  0.00  0.00     0.033 A 
HETATM    7  C   UNK N   1      23.463  15.613   4.791  0.00  0.00     0.010 A 
HETATM    8  C   UNK N   1      23.040  11.836   7.412  0.00  0.00     0.016 C 
HETATM    9  C   UNK N   1      24.409  13.271   8.895  0.00  0.00     0.016 C 
HETATM   10  C   UNK N   1      22.307  16.438   4.925  0.00  0.00     0.010 A 
ENDROOT
BRANCH  10  11
HETATM   11  C   UNK N   1      21.838  17.575   4.065  0.00  0.00    -0.023 A 
HETATM   12  C   UNK N   1      20.764  17.422   3.179  0.00  0.00     0.014 A 
HETATM   13  C   UNK N   1      20.379  18.449   2.317  0.00  0.00     0.024 A 
HETATM   14  C   UNK N   1      21.081  19.653   2.315  0.00  0.00     0.034 A 
HETATM   15 Cl   UNK N   1      20.612  20.934   1.220  0.00  0.00    -0.084 Cl
HETATM   16  C   UNK N   1      22.163  19.826   3.180  0.00  0.00     0.024 A 
HETATM   17  C   UNK N   1      22.541  18.792   4.044  0.00  0.00     0.014 A 
ENDBRANCH  10  11
BRANCH   6  18
HETATM   18  C   UNK N   1      20.364  16.493   6.666  0.00  0.00     0.168 C 
BRANCH  18  19
HETATM   19  C   UNK N   1      20.496  17.554   7.710  0.00  0.00     0.145 C 
HETATM   20  O   UNK N   1      20.264  17.303   8.881  0.00  0.00    -0.650 OA
BRANCH  19  21
HETATM   21  O   UNK N   1      20.798  18.813   7.345  0.00  0.00    -0.776 OA
HETATM   22  H   UNK N   1      20.273  19.589   7.375  0.00  0.00     0.167 HD
ENDBRANCH  19  21
ENDBRANCH  18  19
ENDBRANCH   6  18
BRANCH   7  23
HETATM   23  C   UNK N   1      24.481  15.496   3.702  0.00  0.00    -0.023 A 
HETATM   24  C   UNK N   1      25.642  16.287   3.738  0.00  0.00     0.012 A 
HETATM   25  C   UNK N   1      26.641  16.138   2.770  0.00  0.00     0.001 A 
HETATM   26  C   UNK N   1      26.504  15.175   1.769  0.00  0.00     0.000 A 
HETATM   27  C   UNK N   1      25.370  14.365   1.735  0.00  0.00     0.001 A 
HETATM   28  C   UNK N   1      24.371  14.525   2.699  0.00  0.00     0.012 A 
ENDBRANCH   7  23
TORSDOF 5
ENDMDL
MODEL 6
REMARK VINA RESULT:      -6.8      6.575      9.291
REMARK  5 active torsions:
REMARK  status: ('A' for Active; 'I' for Inactive)
REMARK    1  A    between atoms: O_2  and  C_19 
REMARK    2  A    between atoms: C_9  and  C_14 
REMARK    3  A    between atoms: C_10  and  C_15 
REMARK    4  A    between atoms: C_13  and  C_16 
REMARK    5  A    between atoms: C_14  and  C_19 
ROOT
HETATM    1  N   UNK N   1      35.253  13.196   9.914  0.00  0.00    -0.351 N 
HETATM    2  C   UNK N   1      35.493  12.344   7.757  0.00  0.00    -0.026 A 
HETATM    3  C   UNK N   1      35.047  13.600   8.549  0.00  0.00     0.138 A 
HETATM    4  C   UNK N   1      35.812  11.224   8.783  0.00  0.00     0.068 A 
HETATM    5  C   UNK N   1      35.650  11.956  10.054  0.00  0.00     0.024 A 
HETATM    6  C   UNK N   1      35.164  13.771  11.126  0.00  0.00     0.033 A 
HETATM    7  C   UNK N   1      35.869  11.645  11.389  0.00  0.00     0.010 A 
HETATM    8  C   UNK N   1      36.748  12.669   6.973  0.00  0.00     0.016 C 
HETATM    9  C   UNK N   1      34.400  11.897   6.806  0.00  0.00     0.016 C 
HETATM   10  C   UNK N   1      35.515  12.825  12.107  0.00  0.00     0.010 A 
ENDROOT
BRANCH  10  11
HETATM   11  C   UNK N   1      35.453  13.061  13.588  0.00  0.00    -0.023 A 
HETATM   12  C   UNK N   1      36.428  13.822  14.244  0.00  0.00     0.014 A 
HETATM   13  C   UNK N   1      36.422  13.973  15.631  0.00  0.00     0.024 A 
HETATM   14  C   UNK N   1      35.440  13.345  16.394  0.00  0.00     0.034 A 
HETATM   15 Cl   UNK N   1      35.444  13.517  18.135  0.00  0.00    -0.084 Cl
HETATM   16  C   UNK N   1      34.463  12.570  15.764  0.00  0.00     0.024 A 
HETATM   17  C   UNK N   1      34.474  12.425  14.373  0.00  0.00     0.014 A 
ENDBRANCH  10  11
BRANCH   6  18
HETATM   18  C   UNK N   1      34.785  15.211  11.343  0.00  0.00     0.168 C 
BRANCH  18  19
HETATM   19  C   UNK N   1      35.822  16.196  10.907  0.00  0.00     0.145 C 
HETATM   20  O   UNK N   1      35.496  17.299  10.500  0.00  0.00    -0.650 OA
BRANCH  19  21
HETATM   21  O   UNK N   1      37.117  15.834  10.891  0.00  0.00    -0.776 OA
HETATM   22  H   UNK N   1      37.519  15.026  11.144  0.00  0.00     0.167 HD
ENDBRANCH  19  21
ENDBRANCH  18  19
ENDBRANCH   6  18
BRANCH   7  23
HETATM   23  C   UNK N   1      36.432  10.336  11.841  0.00  0.00    -0.023 A 
HETATM   24  C   UNK N   1      37.815  10.101  11.766  0.00  0.00     0.012 A 
HETATM   25  C   UNK N   1      38.369   8.913  12.253  0.00  0.00     0.001 A 
HETATM   26  C   UNK N   1      37.548   7.954  12.849  0.00  0.00     0.000 A 
HETATM   27  C   UNK N   1      36.177   8.183  12.955  0.00  0.00     0.001 A 
HETATM   28  C   UNK N   1      35.628   9.368  12.457  0.00  0.00     0.012 A 
ENDBRANCH   7  23
TORSDOF 5
ENDMDL
MODEL 7
REMARK VINA RESULT:      -6.7      7.837     11.710
REMARK  5 active torsions:
REMARK  status: ('A' for Active; 'I' for Inactive)
REMARK    1  A    between atoms: O_2  and  C_19 
REMARK    2  A    between atoms: C_9  and  C_14 
REMARK    3  A    between atoms: C_10  and  C_15 
REMARK    4  A    between atoms: C_13  and  C_16 
REMARK    5  A    between atoms: C_14  and  C_19 
ROOT
HETATM    1  N   UNK N   1      35.472  12.265  12.601  0.00  0.00    -0.351 N 
HETATM    2  C   UNK N   1      35.474  14.182  11.272  0.00  0.00    -0.026 A 
HETATM    3  C   UNK N   1      35.287  12.643  11.225  0.00  0.00     0.138 A 
HETATM    4  C   UNK N   1      35.897  14.564  12.715  0.00  0.00     0.068 A 
HETATM    5  C   UNK N   1      35.793  13.257  13.392  0.00  0.00     0.024 A 
HETATM    6  C   UNK N   1      35.382  11.135  13.322  0.00  0.00     0.033 A 
HETATM    7  C   UNK N   1      35.916  12.832  14.708  0.00  0.00     0.010 A 
HETATM    8  C   UNK N   1      34.155  14.853  10.948  0.00  0.00     0.016 C 
HETATM    9  C   UNK N   1      36.528  14.622  10.275  0.00  0.00     0.016 C 
HETATM   10  C   UNK N   1      35.683  11.426  14.666  0.00  0.00     0.010 A 
ENDROOT
BRANCH  10  11
HETATM   11  C   UNK N   1      35.775  10.408  15.765  0.00  0.00    -0.023 A 
HETATM   12  C   UNK N   1      34.678  10.125  16.588  0.00  0.00     0.014 A 
HETATM   13  C   UNK N   1      34.783   9.243  17.664  0.00  0.00     0.024 A 
HETATM   14  C   UNK N   1      36.005   8.636  17.947  0.00  0.00     0.034 A 
HETATM   15 Cl   UNK N   1      36.144   7.546  19.308  0.00  0.00    -0.084 Cl
HETATM   16  C   UNK N   1      37.118   8.911  17.149  0.00  0.00     0.024 A 
HETATM   17  C   UNK N   1      37.003   9.795  16.070  0.00  0.00     0.014 A 
ENDBRANCH  10  11
BRANCH   6  18
HETATM   18  C   UNK N   1      34.980   9.804  12.747  0.00  0.00     0.168 C 
BRANCH  18  19
HETATM   19  C   UNK N   1      36.095   9.050  12.094  0.00  0.00     0.145 C 
HETATM   20  O   UNK N   1      36.918   8.455  12.770  0.00  0.00    -0.650 OA
BRANCH  19  21
HETATM   21  O   UNK N   1      36.233   9.093  10.757  0.00  0.00    -0.776 OA
HETATM   22  H   UNK N   1      35.713   9.532  10.113  0.00  0.00     0.167 HD
ENDBRANCH  19  21
ENDBRANCH  18  19
ENDBRANCH   6  18
BRANCH   7  23
HETATM   23  C   UNK N   1      36.167  13.766  15.848  0.00  0.00    -0.023 A 
HETATM   24  C   UNK N   1      37.110  14.799  15.717  0.00  0.00     0.012 A 
HETATM   25  C   UNK N   1      37.305  15.728  16.744  0.00  0.00     0.001 A 
HETATM   26  C   UNK N   1      36.537  15.652  17.907  0.00  0.00     0.000 A 
HETATM   27  C   UNK N   1      35.578  14.649  18.042  0.00  0.00     0.001 A 
HETATM   28  C   UNK N   1      35.396  13.718  17.016  0.00  0.00     0.012 A 
ENDBRANCH   7  23
TORSDOF 5
ENDMDL
MODEL 8
REMARK VINA RESULT:      -6.6      4.404      7.921
REMARK  5 active torsions:
REMARK  status: ('A' for Active; 'I' for Inactive)
REMARK    1  A    between atoms: O_2  and  C_19 
REMARK    2  A    between atoms: C_9  and  C_14 
REMARK    3  A    between atoms: C_10  and  C_15 
REMARK    4  A    between atoms: C_13  and  C_16 
REMARK    5  A    between atoms: C_14  and  C_19 
ROOT
HETATM    1  N   UNK N   1      28.725  17.904   4.519  0.00  0.00    -0.351 N 
HETATM    2  C   UNK N   1      30.526  16.450   4.800  0.00  0.00    -0.026 A 
HETATM    3  C   UNK N   1      30.081  17.922   5.000  0.00  0.00     0.138 A 
HETATM    4  C   UNK N   1      29.381  15.703   4.068  0.00  0.00     0.068 A 
HETATM    5  C   UNK N   1      28.344  16.753   4.026  0.00  0.00     0.024 A 
HETATM    6  C   UNK N   1      27.703  18.774   4.453  0.00  0.00     0.033 A 
HETATM    7  C   UNK N   1      27.018  16.793   3.619  0.00  0.00     0.010 A 
HETATM    8  C   UNK N   1      30.749  15.809   6.154  0.00  0.00     0.016 C 
HETATM    9  C   UNK N   1      31.806  16.385   3.990  0.00  0.00     0.016 C 
HETATM   10  C   UNK N   1      26.596  18.134   3.862  0.00  0.00     0.010 A 
ENDROOT
BRANCH  10  11
HETATM   11  C   UNK N   1      25.292  18.801   3.535  0.00  0.00    -0.023 A 
HETATM   12  C   UNK N   1      25.252  20.024   2.855  0.00  0.00     0.014 A 
HETATM   13  C   UNK N   1      24.047  20.689   2.624  0.00  0.00     0.024 A 
HETATM   14  C   UNK N   1      22.853  20.143   3.089  0.00  0.00     0.034 A 
HETATM   15 Cl   UNK N   1      21.344  20.987   2.819  0.00  0.00    -0.084 Cl
HETATM   16  C   UNK N   1      22.868  18.931   3.782  0.00  0.00     0.024 A 
HETATM   17  C   UNK N   1      24.079  18.269   4.007  0.00  0.00     0.014 A 
ENDBRANCH  10  11
BRANCH   6  18
HETATM   18  C   UNK N   1      27.766  20.182   4.978  0.00  0.00     0.168 C 
BRANCH  18  19
HETATM   19  C   UNK N   1      27.168  20.363   6.337  0.00  0.00     0.145 C 
HETATM   20  O   UNK N   1      26.558  21.383   6.614  0.00  0.00    -0.650 OA
BRANCH  19  21
HETATM   21  O   UNK N   1      27.370  19.428   7.282  0.00  0.00    -0.776 OA
HETATM   22  H   UNK N   1      27.030  18.557   7.348  0.00  0.00     0.167 HD
ENDBRANCH  19  21
ENDBRANCH  18  19
ENDBRANCH   6  18
BRANCH   7  23
HETATM   23  C   UNK N   1      26.280  15.593   3.119  0.00  0.00    -0.023 A 
HETATM   24  C   UNK N   1      25.827  14.618   4.023  0.00  0.00     0.012 A 
HETATM   25  C   UNK N   1      25.070  13.527   3.583  0.00  0.00     0.001 A 
HETATM   26  C   UNK N   1      24.732  13.413   2.233  0.00  0.00     0.000 A 
HETATM   27  C   UNK N   1      25.152  14.385   1.327  0.00  0.00     0.001 A 
HETATM   28  C   UNK N   1      25.916  15.467   1.772  0.00  0.00     0.012 A 
ENDBRANCH   7  23
TORSDOF 5
ENDMDL
MODEL 9
REMARK VINA RESULT:      -6.6     13.877     17.122
REMARK  5 active torsions:
REMARK  status: ('A' for Active; 'I' for Inactive)
REMARK    1  A    between atoms: O_2  and  C_19 
REMARK    2  A    between atoms: C_9  and  C_14 
REMARK    3  A    between atoms: C_10  and  C_15 
REMARK    4  A    between atoms: C_13  and  C_16 
REMARK    5  A    between atoms: C_14  and  C_19 
ROOT
HETATM    1  N   UNK N   1      26.272  23.891  -8.175  0.00  0.00    -0.351 N 
HETATM    2  C   UNK N   1      26.599  21.661  -8.773  0.00  0.00    -0.026 A 
HETATM    3  C   UNK N   1      26.007  23.002  -9.276  0.00  0.00     0.138 A 
HETATM    4  C   UNK N   1      27.062  21.866  -7.306  0.00  0.00     0.068 A 
HETATM    5  C   UNK N   1      26.820  23.312  -7.137  0.00  0.00     0.024 A 
HETATM    6  C   UNK N   1      26.120  25.202  -7.922  0.00  0.00     0.033 A 
HETATM    7  C   UNK N   1      27.086  24.230  -6.131  0.00  0.00     0.010 A 
HETATM    8  C   UNK N   1      27.798  21.296  -9.624  0.00  0.00     0.016 C 
HETATM    9  C   UNK N   1      25.563  20.557  -8.853  0.00  0.00     0.016 C 
HETATM   10  C   UNK N   1      26.593  25.474  -6.624  0.00  0.00     0.010 A 
ENDROOT
BRANCH  10  11
HETATM   11  C   UNK N   1      26.514  26.809  -5.944  0.00  0.00    -0.023 A 
HETATM   12  C   UNK N   1      27.429  27.829  -6.234  0.00  0.00     0.014 A 
HETATM   13  C   UNK N   1      27.411  29.041  -5.543  0.00  0.00     0.024 A 
HETATM   14  C   UNK N   1      26.479  29.248  -4.529  0.00  0.00     0.034 A 
HETATM   15 Cl   UNK N   1      26.469  30.760  -3.648  0.00  0.00    -0.084 Cl
HETATM   16  C   UNK N   1      25.563  28.242  -4.212  0.00  0.00     0.024 A 
HETATM   17  C   UNK N   1      25.586  27.031  -4.911  0.00  0.00     0.014 A 
ENDBRANCH  10  11
BRANCH   6  18
HETATM   18  C   UNK N   1      25.568  26.188  -8.915  0.00  0.00     0.168 C 
BRANCH  18  19
HETATM   19  C   UNK N   1      26.510  26.549 -10.018  0.00  0.00     0.145 C 
HETATM   20  O   UNK N   1      27.652  26.899  -9.767  0.00  0.00    -0.650 OA
BRANCH  19  21
HETATM   21  O   UNK N   1      26.072  26.563 -11.289  0.00  0.00    -0.776 OA
HETATM   22  H   UNK N   1      25.858  25.850 -11.859  0.00  0.00     0.167 HD
ENDBRANCH  19  21
ENDBRANCH  18  19
ENDBRANCH   6  18
BRANCH   7  23
HETATM   23  C   UNK N   1      27.811  23.875  -4.871  0.00  0.00    -0.023 A 
HETATM   24  C   UNK N   1      29.185  23.588  -4.908  0.00  0.00     0.012 A 
HETATM   25  C   UNK N   1      29.896  23.328  -3.732  0.00  0.00     0.001 A 
HETATM   26  C   UNK N   1      29.245  23.381  -2.498  0.00  0.00     0.000 A 
HETATM   27  C   UNK N   1      27.886  23.690  -2.442  0.00  0.00     0.001 A 
HETATM   28  C   UNK N   1      27.180  23.939  -3.622  0.00  0.00     0.012 A 
ENDBRANCH   7  23
TORSDOF 5
ENDMDL
