MODEL 1
REMARK VINA RESULT:      -5.0      0.000      0.000
REMARK WARNING: 32 MAX_TORS EXCEEDED!!!
REMARK  34 active torsions:
REMARK  status: ('A' for Active; 'I' for Inactive)
REMARK    1  A    between atoms: O_1  and  C_32 
REMARK    2  A    between atoms: O_1  and  C_33 
REMARK    3  A    between atoms: O_5  and  C_51 
REMARK    4  A    between atoms: O_6  and  C_52 
REMARK    5  A    between atoms: O_7  and  C_53 
REMARK    6  A    between atoms: O_8  and  C_61 
REMARK    7  A    between atoms: O_9  and  C_62 
REMARK    8  A    between atoms: O_10  and  C_67 
REMARK    9  A    between atoms: O_11  and  C_68 
REMARK   10  A    between atoms: O_14  and  C_69 
REMARK   11  A    between atoms: O_15  and  C_70 
REMARK   12  A    between atoms: O_16  and  C_71 
REMARK   13  A    between atoms: O_17  and  C_72 
REMARK       I    between atoms: N_22  and  C_34 
REMARK   14  A    between atoms: C_27  and  C_32 
REMARK   15  A    between atoms: C_33  and  C_35 
REMARK   16  A    between atoms: C_33  and  C_36 
REMARK   17  A    between atoms: C_34  and  C_39 
REMARK   18  A    between atoms: C_35  and  C_37 
REMARK   19  A    between atoms: C_36  and  C_38 
REMARK   20  A    between atoms: C_37  and  C_40 
REMARK   21  A    between atoms: C_38  and  C_41 
REMARK   22  A    between atoms: C_39  and  C_42 
REMARK   23  A    between atoms: C_40  and  C_43 
REMARK   24  A    between atoms: C_41  and  C_44 
REMARK   25  A    between atoms: C_61  and  C_63 
REMARK   26  A    between atoms: C_61  and  C_64 
REMARK   27  A    between atoms: C_61  and  C_67 
REMARK   28  A    between atoms: C_62  and  C_65 
REMARK   29  A    between atoms: C_62  and  C_66 
REMARK   30  A    between atoms: C_62  and  C_68 
REMARK   31  A    between atoms: C_63  and  C_69 
REMARK   32  A    between atoms: C_64  and  C_70 
REMARK   33  A    between atoms: C_65  and  C_71 
REMARK   34  A    between atoms: C_66  and  C_72 
ROOT
HETATM    1  C   UNK N   1      34.280  16.784   8.935  0.00  0.00     0.161 C 
ENDROOT
BRANCH   1   2
HETATM    2  O   UNK N   1      34.233  17.276  10.241  0.00  0.00    -0.378 OA
HETATM    3  H   UNK N   1      33.572  17.418  10.937  0.00  0.00     0.211 HD
ENDBRANCH   1   2
BRANCH   1   4
HETATM    4  C   UNK N   1      32.893  16.190   8.602  0.00  0.00     0.159 C 
BRANCH   4   5
HETATM    5  C   UNK N   1      32.497  14.986   9.412  0.00  0.00     0.142 C 
HETATM    6  O   UNK N   1      32.222  13.942   8.844  0.00  0.00    -0.650 OA
BRANCH   5   7
HETATM    7  O   UNK N   1      32.485  15.033  10.757  0.00  0.00    -0.776 OA
HETATM    8  H   UNK N   1      33.140  15.366  11.338  0.00  0.00     0.167 HD
ENDBRANCH   5   7
ENDBRANCH   4   5
ENDBRANCH   1   4
BRANCH   1   9
HETATM    9  C   UNK N   1      35.375  15.709   8.850  0.00  0.00     0.159 C 
BRANCH   9  10
HETATM   10  C   UNK N   1      35.983  15.352  10.177  0.00  0.00     0.142 C 
HETATM   11  O   UNK N   1      35.544  14.405  10.806  0.00  0.00    -0.650 OA
BRANCH  10  12
HETATM   12  O   UNK N   1      36.993  16.082  10.686  0.00  0.00    -0.776 OA
HETATM   13  H   UNK N   1      37.684  15.781  11.244  0.00  0.00     0.167 HD
ENDBRANCH  10  12
ENDBRANCH   9  10
ENDBRANCH   1   9
BRANCH   1  14
HETATM   14  C   UNK N   1      34.665  17.937   8.034  0.00  0.00     0.176 C 
HETATM   15  O   UNK N   1      34.445  17.905   6.833  0.00  0.00    -0.648 OA
BRANCH  14  16
HETATM   16  O   UNK N   1      35.229  19.038   8.570  0.00  0.00    -0.774 OA
HETATM   17  H   UNK N   1      35.114  19.370   9.438  0.00  0.00     0.167 HD
ENDBRANCH  14  16
ENDBRANCH   1  14
TORSDOF 34
ENDMDL
MODEL 2
REMARK VINA RESULT:      -4.9      1.169      3.436
REMARK WARNING: 32 MAX_TORS EXCEEDED!!!
REMARK  34 active torsions:
REMARK  status: ('A' for Active; 'I' for Inactive)
REMARK    1  A    between atoms: O_1  and  C_32 
REMARK    2  A    between atoms: O_1  and  C_33 
REMARK    3  A    between atoms: O_5  and  C_51 
REMARK    4  A    between atoms: O_6  and  C_52 
REMARK    5  A    between atoms: O_7  and  C_53 
REMARK    6  A    between atoms: O_8  and  C_61 
REMARK    7  A    between atoms: O_9  and  C_62 
REMARK    8  A    between atoms: O_10  and  C_67 
REMARK    9  A    between atoms: O_11  and  C_68 
REMARK   10  A    between atoms: O_14  and  C_69 
REMARK   11  A    between atoms: O_15  and  C_70 
REMARK   12  A    between atoms: O_16  and  C_71 
REMARK   13  A    between atoms: O_17  and  C_72 
REMARK       I    between atoms: N_22  and  C_34 
REMARK   14  A    between atoms: C_27  and  C_32 
REMARK   15  A    between atoms: C_33  and  C_35 
REMARK   16  A    between atoms: C_33  and  C_36 
REMARK   17  A    between atoms: C_34  and  C_39 
REMARK   18  A    between atoms: C_35  and  C_37 
REMARK   19  A    between atoms: C_36  and  C_38 
REMARK   20  A    between atoms: C_37  and  C_40 
REMARK   21  A    between atoms: C_38  and  C_41 
REMARK   22  A    between atoms: C_39  and  C_42 
REMARK   23  A    between atoms: C_40  and  C_43 
REMARK   24  A    between atoms: C_41  and  C_44 
REMARK   25  A    between atoms: C_61  and  C_63 
REMARK   26  A    between atoms: C_61  and  C_64 
REMARK   27  A    between atoms: C_61  and  C_67 
REMARK   28  A    between atoms: C_62  and  C_65 
REMARK   29  A    between atoms: C_62  and  C_66 
REMARK   30  A    between atoms: C_62  and  C_68 
REMARK   31  A    between atoms: C_63  and  C_69 
REMARK   32  A    between atoms: C_64  and  C_70 
REMARK   33  A    between atoms: C_65  and  C_71 
REMARK   34  A    between atoms: C_66  and  C_72 
ROOT
HETATM    1  C   UNK N   1      34.419  16.160   9.478  0.00  0.00     0.161 C 
ENDROOT
BRANCH   1   2
HETATM    2  O   UNK N   1      35.295  15.664   8.511  0.00  0.00    -0.378 OA
HETATM    3  H   UNK N   1      35.946  14.949   8.423  0.00  0.00     0.211 HD
ENDBRANCH   1   2
BRANCH   1   4
HETATM    4  C   UNK N   1      33.684  17.377   8.872  0.00  0.00     0.159 C 
BRANCH   4   5
HETATM    5  C   UNK N   1      34.517  18.253   7.978  0.00  0.00     0.142 C 
HETATM    6  O   UNK N   1      34.483  18.088   6.770  0.00  0.00    -0.650 OA
BRANCH   5   7
HETATM    7  O   UNK N   1      35.269  19.245   8.490  0.00  0.00    -0.776 OA
HETATM    8  H   UNK N   1      34.994  19.994   8.981  0.00  0.00     0.167 HD
ENDBRANCH   5   7
ENDBRANCH   4   5
ENDBRANCH   1   4
BRANCH   1   9
HETATM    9  C   UNK N   1      35.231  16.568  10.718  0.00  0.00     0.159 C 
BRANCH   9  10
HETATM   10  C   UNK N   1      36.232  15.538  11.157  0.00  0.00     0.142 C 
HETATM   11  O   UNK N   1      35.995  14.842  12.129  0.00  0.00    -0.650 OA
BRANCH  10  12
HETATM   12  O   UNK N   1      37.398  15.391  10.499  0.00  0.00    -0.776 OA
HETATM   13  H   UNK N   1      37.556  14.867   9.738  0.00  0.00     0.167 HD
ENDBRANCH  10  12
ENDBRANCH   9  10
ENDBRANCH   1   9
BRANCH   1  14
HETATM   14  C   UNK N   1      33.487  15.032   9.861  0.00  0.00     0.176 C 
HETATM   15  O   UNK N   1      33.222  14.134   9.077  0.00  0.00    -0.648 OA
BRANCH  14  16
HETATM   16  O   UNK N   1      32.964  14.995  11.103  0.00  0.00    -0.774 OA
HETATM   17  H   UNK N   1      33.403  14.763  11.897  0.00  0.00     0.167 HD
ENDBRANCH  14  16
ENDBRANCH   1  14
TORSDOF 34
ENDMDL
MODEL 3
REMARK VINA RESULT:      -4.8     12.021     13.819
REMARK WARNING: 32 MAX_TORS EXCEEDED!!!
REMARK  34 active torsions:
REMARK  status: ('A' for Active; 'I' for Inactive)
REMARK    1  A    between atoms: O_1  and  C_32 
REMARK    2  A    between atoms: O_1  and  C_33 
REMARK    3  A    between atoms: O_5  and  C_51 
REMARK    4  A    between atoms: O_6  and  C_52 
REMARK    5  A    between atoms: O_7  and  C_53 
REMARK    6  A    between atoms: O_8  and  C_61 
REMARK    7  A    between atoms: O_9  and  C_62 
REMARK    8  A    between atoms: O_10  and  C_67 
REMARK    9  A    between atoms: O_11  and  C_68 
REMARK   10  A    between atoms: O_14  and  C_69 
REMARK   11  A    between atoms: O_15  and  C_70 
REMARK   12  A    between atoms: O_16  and  C_71 
REMARK   13  A    between atoms: O_17  and  C_72 
REMARK       I    between atoms: N_22  and  C_34 
REMARK   14  A    between atoms: C_27  and  C_32 
REMARK   15  A    between atoms: C_33  and  C_35 
REMARK   16  A    between atoms: C_33  and  C_36 
REMARK   17  A    between atoms: C_34  and  C_39 
REMARK   18  A    between atoms: C_35  and  C_37 
REMARK   19  A    between atoms: C_36  and  C_38 
REMARK   20  A    between atoms: C_37  and  C_40 
REMARK   21  A    between atoms: C_38  and  C_41 
REMARK   22  A    between atoms: C_39  and  C_42 
REMARK   23  A    between atoms: C_40  and  C_43 
REMARK   24  A    between atoms: C_41  and  C_44 
REMARK   25  A    between atoms: C_61  and  C_63 
REMARK   26  A    between atoms: C_61  and  C_64 
REMARK   27  A    between atoms: C_61  and  C_67 
REMARK   28  A    between atoms: C_62  and  C_65 
REMARK   29  A    between atoms: C_62  and  C_66 
REMARK   30  A    between atoms: C_62  and  C_68 
REMARK   31  A    between atoms: C_63  and  C_69 
REMARK   32  A    between atoms: C_64  and  C_70 
REMARK   33  A    between atoms: C_65  and  C_71 
REMARK   34  A    between atoms: C_66  and  C_72 
ROOT
HETATM    1  C   UNK N   1      43.307  22.919   2.844  0.00  0.00     0.161 C 
ENDROOT
BRANCH   1   2
HETATM    2  O   UNK N   1      43.425  23.909   3.823  0.00  0.00    -0.378 OA
HETATM    3  H   UNK N   1      43.402  23.974   4.792  0.00  0.00     0.211 HD
ENDBRANCH   1   2
BRANCH   1   4
HETATM    4  C   UNK N   1      43.591  21.555   3.513  0.00  0.00     0.159 C 
BRANCH   4   5
HETATM    5  C   UNK N   1      45.039  21.269   3.801  0.00  0.00     0.142 C 
HETATM    6  O   UNK N   1      45.516  20.194   3.479  0.00  0.00    -0.650 OA
BRANCH   5   7
HETATM    7  O   UNK N   1      45.826  22.200   4.371  0.00  0.00    -0.776 OA
HETATM    8  H   UNK N   1      45.765  23.133   4.315  0.00  0.00     0.167 HD
ENDBRANCH   5   7
ENDBRANCH   4   5
ENDBRANCH   1   4
BRANCH   1   9
HETATM    9  C   UNK N   1      44.321  23.207   1.725  0.00  0.00     0.159 C 
BRANCH   9  10
HETATM   10  C   UNK N   1      45.078  24.493   1.905  0.00  0.00     0.142 C 
HETATM   11  O   UNK N   1      44.676  25.510   1.369  0.00  0.00    -0.650 OA
BRANCH  10  12
HETATM   12  O   UNK N   1      46.209  24.525   2.636  0.00  0.00    -0.776 OA
HETATM   13  H   UNK N   1      47.068  24.754   2.340  0.00  0.00     0.167 HD
ENDBRANCH  10  12
ENDBRANCH   9  10
ENDBRANCH   1   9
BRANCH   1  14
HETATM   14  C   UNK N   1      41.911  23.021   2.269  0.00  0.00     0.176 C 
HETATM   15  O   UNK N   1      41.201  22.035   2.151  0.00  0.00    -0.648 OA
BRANCH  14  16
HETATM   16  O   UNK N   1      41.428  24.226   1.911  0.00  0.00    -0.774 OA
HETATM   17  H   UNK N   1      40.712  24.690   2.300  0.00  0.00     0.167 HD
ENDBRANCH  14  16
ENDBRANCH   1  14
TORSDOF 34
ENDMDL
MODEL 4
REMARK VINA RESULT:      -4.7      2.052      2.925
REMARK WARNING: 32 MAX_TORS EXCEEDED!!!
REMARK  34 active torsions:
REMARK  status: ('A' for Active; 'I' for Inactive)
REMARK    1  A    between atoms: O_1  and  C_32 
REMARK    2  A    between atoms: O_1  and  C_33 
REMARK    3  A    between atoms: O_5  and  C_51 
REMARK    4  A    between atoms: O_6  and  C_52 
REMARK    5  A    between atoms: O_7  and  C_53 
REMARK    6  A    between atoms: O_8  and  C_61 
REMARK    7  A    between atoms: O_9  and  C_62 
REMARK    8  A    between atoms: O_10  and  C_67 
REMARK    9  A    between atoms: O_11  and  C_68 
REMARK   10  A    between atoms: O_14  and  C_69 
REMARK   11  A    between atoms: O_15  and  C_70 
REMARK   12  A    between atoms: O_16  and  C_71 
REMARK   13  A    between atoms: O_17  and  C_72 
REMARK       I    between atoms: N_22  and  C_34 
REMARK   14  A    between atoms: C_27  and  C_32 
REMARK   15  A    between atoms: C_33  and  C_35 
REMARK   16  A    between atoms: C_33  and  C_36 
REMARK   17  A    between atoms: C_34  and  C_39 
REMARK   18  A    between atoms: C_35  and  C_37 
REMARK   19  A    between atoms: C_36  and  C_38 
REMARK   20  A    between atoms: C_37  and  C_40 
REMARK   21  A    between atoms: C_38  and  C_41 
REMARK   22  A    between atoms: C_39  and  C_42 
REMARK   23  A    between atoms: C_40  and  C_43 
REMARK   24  A    between atoms: C_41  and  C_44 
REMARK   25  A    between atoms: C_61  and  C_63 
REMARK   26  A    between atoms: C_61  and  C_64 
REMARK   27  A    between atoms: C_61  and  C_67 
REMARK   28  A    between atoms: C_62  and  C_65 
REMARK   29  A    between atoms: C_62  and  C_66 
REMARK   30  A    between atoms: C_62  and  C_68 
REMARK   31  A    between atoms: C_63  and  C_69 
REMARK   32  A    between atoms: C_64  and  C_70 
REMARK   33  A    between atoms: C_65  and  C_71 
REMARK   34  A    between atoms: C_66  and  C_72 
ROOT
HETATM    1  C   UNK N   1      34.854  14.819  10.666  0.00  0.00     0.161 C 
ENDROOT
BRANCH   1   2
HETATM    2  O   UNK N   1      33.670  15.027  11.379  0.00  0.00    -0.378 OA
HETATM    3  H   UNK N   1      33.397  15.185  12.297  0.00  0.00     0.211 HD
ENDBRANCH   1   2
BRANCH   1   4
HETATM    4  C   UNK N   1      34.474  14.354   9.243  0.00  0.00     0.159 C 
BRANCH   4   5
HETATM    5  C   UNK N   1      32.998  14.243   8.973  0.00  0.00     0.142 C 
HETATM    6  O   UNK N   1      32.399  15.194   8.500  0.00  0.00    -0.650 OA
BRANCH   5   7
HETATM    7  O   UNK N   1      32.339  13.094   9.208  0.00  0.00    -0.776 OA
HETATM    8  H   UNK N   1      31.463  12.974   9.517  0.00  0.00     0.167 HD
ENDBRANCH   5   7
ENDBRANCH   4   5
ENDBRANCH   1   4
BRANCH   1   9
HETATM    9  C   UNK N   1      35.686  13.749  11.392  0.00  0.00     0.159 C 
BRANCH   9  10
HETATM   10  C   UNK N   1      35.711  13.906  12.886  0.00  0.00     0.142 C 
HETATM   11  O   UNK N   1      34.779  13.489  13.552  0.00  0.00    -0.650 OA
BRANCH  10  12
HETATM   12  O   UNK N   1      36.743  14.523  13.493  0.00  0.00    -0.776 OA
HETATM   13  H   UNK N   1      37.616  14.618  13.167  0.00  0.00     0.167 HD
ENDBRANCH  10  12
ENDBRANCH   9  10
ENDBRANCH   1   9
BRANCH   1  14
HETATM   14  C   UNK N   1      35.622  16.122  10.682  0.00  0.00     0.176 C 
HETATM   15  O   UNK N   1      35.051  17.197  10.584  0.00  0.00    -0.648 OA
BRANCH  14  16
HETATM   16  O   UNK N   1      36.960  16.101  10.842  0.00  0.00    -0.774 OA
HETATM   17  H   UNK N   1      37.535  15.370  10.726  0.00  0.00     0.167 HD
ENDBRANCH  14  16
ENDBRANCH   1  14
TORSDOF 34
ENDMDL
MODEL 5
REMARK VINA RESULT:      -4.7     12.373     14.279
REMARK WARNING: 32 MAX_TORS EXCEEDED!!!
REMARK  34 active torsions:
REMARK  status: ('A' for Active; 'I' for Inactive)
REMARK    1  A    between atoms: O_1  and  C_32 
REMARK    2  A    between atoms: O_1  and  C_33 
REMARK    3  A    between atoms: O_5  and  C_51 
REMARK    4  A    between atoms: O_6  and  C_52 
REMARK    5  A    between atoms: O_7  and  C_53 
REMARK    6  A    between atoms: O_8  and  C_61 
REMARK    7  A    between atoms: O_9  and  C_62 
REMARK    8  A    between atoms: O_10  and  C_67 
REMARK    9  A    between atoms: O_11  and  C_68 
REMARK   10  A    between atoms: O_14  and  C_69 
REMARK   11  A    between atoms: O_15  and  C_70 
REMARK   12  A    between atoms: O_16  and  C_71 
REMARK   13  A    between atoms: O_17  and  C_72 
REMARK       I    between atoms: N_22  and  C_34 
REMARK   14  A    between atoms: C_27  and  C_32 
REMARK   15  A    between atoms: C_33  and  C_35 
REMARK   16  A    between atoms: C_33  and  C_36 
REMARK   17  A    between atoms: C_34  and  C_39 
REMARK   18  A    between atoms: C_35  and  C_37 
REMARK   19  A    between atoms: C_36  and  C_38 
REMARK   20  A    between atoms: C_37  and  C_40 
REMARK   21  A    between atoms: C_38  and  C_41 
REMARK   22  A    between atoms: C_39  and  C_42 
REMARK   23  A    between atoms: C_40  and  C_43 
REMARK   24  A    between atoms: C_41  and  C_44 
REMARK   25  A    between atoms: C_61  and  C_63 
REMARK   26  A    between atoms: C_61  and  C_64 
REMARK   27  A    between atoms: C_61  and  C_67 
REMARK   28  A    between atoms: C_62  and  C_65 
REMARK   29  A    between atoms: C_62  and  C_66 
REMARK   30  A    between atoms: C_62  and  C_68 
REMARK   31  A    between atoms: C_63  and  C_69 
REMARK   32  A    between atoms: C_64  and  C_70 
REMARK   33  A    between atoms: C_65  and  C_71 
REMARK   34  A    between atoms: C_66  and  C_72 
ROOT
HETATM    1  C   UNK N   1      43.820  22.896   2.988  0.00  0.00     0.161 C 
ENDROOT
BRANCH   1   2
HETATM    2  O   UNK N   1      43.574  23.939   3.885  0.00  0.00    -0.378 OA
HETATM    3  H   UNK N   1      42.819  24.467   4.189  0.00  0.00     0.211 HD
ENDBRANCH   1   2
BRANCH   1   4
HETATM    4  C   UNK N   1      44.541  23.490   1.757  0.00  0.00     0.159 C 
BRANCH   4   5
HETATM    5  C   UNK N   1      45.320  24.751   2.013  0.00  0.00     0.142 C 
HETATM    6  O   UNK N   1      44.887  25.818   1.614  0.00  0.00    -0.650 OA
BRANCH   5   7
HETATM    7  O   UNK N   1      46.469  24.721   2.714  0.00  0.00    -0.776 OA
HETATM    8  H   UNK N   1      47.350  24.741   2.396  0.00  0.00     0.167 HD
ENDBRANCH   5   7
ENDBRANCH   4   5
ENDBRANCH   1   4
BRANCH   1   9
HETATM    9  C   UNK N   1      42.478  22.261   2.588  0.00  0.00     0.159 C 
BRANCH   9  10
HETATM   10  C   UNK N   1      41.677  23.086   1.621  0.00  0.00     0.142 C 
HETATM   11  O   UNK N   1      41.392  22.628   0.529  0.00  0.00    -0.650 OA
BRANCH  10  12
HETATM   12  O   UNK N   1      41.291  24.336   1.943  0.00  0.00    -0.776 OA
HETATM   13  H   UNK N   1      40.742  24.592   2.658  0.00  0.00     0.167 HD
ENDBRANCH  10  12
ENDBRANCH   9  10
ENDBRANCH   1   9
BRANCH   1  14
HETATM   14  C   UNK N   1      44.645  21.861   3.720  0.00  0.00     0.176 C 
HETATM   15  O   UNK N   1      44.299  20.691   3.766  0.00  0.00    -0.648 OA
BRANCH  14  16
HETATM   16  O   UNK N   1      45.804  22.227   4.303  0.00  0.00    -0.774 OA
HETATM   17  H   UNK N   1      45.923  22.863   4.981  0.00  0.00     0.167 HD
ENDBRANCH  14  16
ENDBRANCH   1  14
TORSDOF 34
ENDMDL
MODEL 6
REMARK VINA RESULT:      -4.6      1.339      3.257
REMARK WARNING: 32 MAX_TORS EXCEEDED!!!
REMARK  34 active torsions:
REMARK  status: ('A' for Active; 'I' for Inactive)
REMARK    1  A    between atoms: O_1  and  C_32 
REMARK    2  A    between atoms: O_1  and  C_33 
REMARK    3  A    between atoms: O_5  and  C_51 
REMARK    4  A    between atoms: O_6  and  C_52 
REMARK    5  A    between atoms: O_7  and  C_53 
REMARK    6  A    between atoms: O_8  and  C_61 
REMARK    7  A    between atoms: O_9  and  C_62 
REMARK    8  A    between atoms: O_10  and  C_67 
REMARK    9  A    between atoms: O_11  and  C_68 
REMARK   10  A    between atoms: O_14  and  C_69 
REMARK   11  A    between atoms: O_15  and  C_70 
REMARK   12  A    between atoms: O_16  and  C_71 
REMARK   13  A    between atoms: O_17  and  C_72 
REMARK       I    between atoms: N_22  and  C_34 
REMARK   14  A    between atoms: C_27  and  C_32 
REMARK   15  A    between atoms: C_33  and  C_35 
REMARK   16  A    between atoms: C_33  and  C_36 
REMARK   17  A    between atoms: C_34  and  C_39 
REMARK   18  A    between atoms: C_35  and  C_37 
REMARK   19  A    between atoms: C_36  and  C_38 
REMARK   20  A    between atoms: C_37  and  C_40 
REMARK   21  A    between atoms: C_38  and  C_41 
REMARK   22  A    between atoms: C_39  and  C_42 
REMARK   23  A    between atoms: C_40  and  C_43 
REMARK   24  A    between atoms: C_41  and  C_44 
REMARK   25  A    between atoms: C_61  and  C_63 
REMARK   26  A    between atoms: C_61  and  C_64 
REMARK   27  A    between atoms: C_61  and  C_67 
REMARK   28  A    between atoms: C_62  and  C_65 
REMARK   29  A    between atoms: C_62  and  C_66 
REMARK   30  A    between atoms: C_62  and  C_68 
REMARK   31  A    between atoms: C_63  and  C_69 
REMARK   32  A    between atoms: C_64  and  C_70 
REMARK   33  A    between atoms: C_65  and  C_71 
REMARK   34  A    between atoms: C_66  and  C_72 
ROOT
HETATM    1  C   UNK N   1      33.898  16.176   9.153  0.00  0.00     0.161 C 
ENDROOT
BRANCH   1   2
HETATM    2  O   UNK N   1      34.723  15.655   8.154  0.00  0.00    -0.378 OA
HETATM    3  H   UNK N   1      34.657  15.409   7.218  0.00  0.00     0.211 HD
ENDBRANCH   1   2
BRANCH   1   4
HETATM    4  C   UNK N   1      32.691  15.224   9.316  0.00  0.00     0.159 C 
BRANCH   4   5
HETATM    5  C   UNK N   1      32.932  13.801   8.893  0.00  0.00     0.142 C 
HETATM    6  O   UNK N   1      32.501  13.409   7.822  0.00  0.00    -0.650 OA
BRANCH   5   7
HETATM    7  O   UNK N   1      33.654  12.966   9.664  0.00  0.00    -0.776 OA
HETATM    8  H   UNK N   1      33.399  12.144  10.035  0.00  0.00     0.167 HD
ENDBRANCH   5   7
ENDBRANCH   4   5
ENDBRANCH   1   4
BRANCH   1   9
HETATM    9  C   UNK N   1      33.438  17.582   8.732  0.00  0.00     0.159 C 
BRANCH   9  10
HETATM   10  C   UNK N   1      34.434  18.318   7.881  0.00  0.00     0.142 C 
HETATM   11  O   UNK N   1      34.480  18.101   6.683  0.00  0.00    -0.650 OA
BRANCH  10  12
HETATM   12  O   UNK N   1      35.288  19.200   8.435  0.00  0.00    -0.776 OA
HETATM   13  H   UNK N   1      35.077  20.030   8.816  0.00  0.00     0.167 HD
ENDBRANCH  10  12
ENDBRANCH   9  10
ENDBRANCH   1   9
BRANCH   1  14
HETATM   14  C   UNK N   1      34.733  16.296  10.409  0.00  0.00     0.176 C 
HETATM   15  O   UNK N   1      35.597  17.154  10.516  0.00  0.00    -0.648 OA
BRANCH  14  16
HETATM   16  O   UNK N   1      34.499  15.466  11.444  0.00  0.00    -0.774 OA
HETATM   17  H   UNK N   1      33.719  15.408  11.960  0.00  0.00     0.167 HD
ENDBRANCH  14  16
ENDBRANCH   1  14
TORSDOF 34
ENDMDL
MODEL 7
REMARK VINA RESULT:      -4.6      1.052      3.297
REMARK WARNING: 32 MAX_TORS EXCEEDED!!!
REMARK  34 active torsions:
REMARK  status: ('A' for Active; 'I' for Inactive)
REMARK    1  A    between atoms: O_1  and  C_32 
REMARK    2  A    between atoms: O_1  and  C_33 
REMARK    3  A    between atoms: O_5  and  C_51 
REMARK    4  A    between atoms: O_6  and  C_52 
REMARK    5  A    between atoms: O_7  and  C_53 
REMARK    6  A    between atoms: O_8  and  C_61 
REMARK    7  A    between atoms: O_9  and  C_62 
REMARK    8  A    between atoms: O_10  and  C_67 
REMARK    9  A    between atoms: O_11  and  C_68 
REMARK   10  A    between atoms: O_14  and  C_69 
REMARK   11  A    between atoms: O_15  and  C_70 
REMARK   12  A    between atoms: O_16  and  C_71 
REMARK   13  A    between atoms: O_17  and  C_72 
REMARK       I    between atoms: N_22  and  C_34 
REMARK   14  A    between atoms: C_27  and  C_32 
REMARK   15  A    between atoms: C_33  and  C_35 
REMARK   16  A    between atoms: C_33  and  C_36 
REMARK   17  A    between atoms: C_34  and  C_39 
REMARK   18  A    between atoms: C_35  and  C_37 
REMARK   19  A    between atoms: C_36  and  C_38 
REMARK   20  A    between atoms: C_37  and  C_40 
REMARK   21  A    between atoms: C_38  and  C_41 
REMARK   22  A    between atoms: C_39  and  C_42 
REMARK   23  A    between atoms: C_40  and  C_43 
REMARK   24  A    between atoms: C_41  and  C_44 
REMARK   25  A    between atoms: C_61  and  C_63 
REMARK   26  A    between atoms: C_61  and  C_64 
REMARK   27  A    between atoms: C_61  and  C_67 
REMARK   28  A    between atoms: C_62  and  C_65 
REMARK   29  A    between atoms: C_62  and  C_66 
REMARK   30  A    between atoms: C_62  and  C_68 
REMARK   31  A    between atoms: C_63  and  C_69 
REMARK   32  A    between atoms: C_64  and  C_70 
REMARK   33  A    between atoms: C_65  and  C_71 
REMARK   34  A    between atoms: C_66  and  C_72 
ROOT
HETATM    1  C   UNK N   1      34.399  16.872   8.844  0.00  0.00     0.161 C 
ENDROOT
BRANCH   1   2
HETATM    2  O   UNK N   1      35.056  15.800   8.235  0.00  0.00    -0.378 OA
HETATM    3  H   UNK N   1      35.938  15.598   7.884  0.00  0.00     0.211 HD
ENDBRANCH   1   2
BRANCH   1   4
HETATM    4  C   UNK N   1      34.981  17.040  10.265  0.00  0.00     0.159 C 
BRANCH   4   5
HETATM    5  C   UNK N   1      35.792  15.877  10.770  0.00  0.00     0.142 C 
HETATM    6  O   UNK N   1      35.224  14.873  11.165  0.00  0.00    -0.650 OA
BRANCH   5   7
HETATM    7  O   UNK N   1      37.137  15.915  10.752  0.00  0.00    -0.776 OA
HETATM    8  H   UNK N   1      37.743  15.481  11.319  0.00  0.00     0.167 HD
ENDBRANCH   5   7
ENDBRANCH   4   5
ENDBRANCH   1   4
BRANCH   1   9
HETATM    9  C   UNK N   1      32.893  16.564   8.898  0.00  0.00     0.159 C 
BRANCH   9  10
HETATM   10  C   UNK N   1      32.561  15.112   8.700  0.00  0.00     0.142 C 
HETATM   11  O   UNK N   1      32.128  14.733   7.626  0.00  0.00    -0.650 OA
BRANCH  10  12
HETATM   12  O   UNK N   1      32.719  14.230   9.706  0.00  0.00    -0.776 OA
HETATM   13  H   UNK N   1      32.123  14.062  10.410  0.00  0.00     0.167 HD
ENDBRANCH  10  12
ENDBRANCH   9  10
ENDBRANCH   1   9
BRANCH   1  14
HETATM   14  C   UNK N   1      34.612  18.086   7.967  0.00  0.00     0.176 C 
HETATM   15  O   UNK N   1      35.061  19.127   8.422  0.00  0.00    -0.648 OA
BRANCH  14  16
HETATM   16  O   UNK N   1      34.335  18.010   6.650  0.00  0.00    -0.774 OA
HETATM   17  H   UNK N   1      34.490  17.284   6.078  0.00  0.00     0.167 HD
ENDBRANCH  14  16
ENDBRANCH   1  14
TORSDOF 34
ENDMDL
MODEL 8
REMARK VINA RESULT:      -4.6      1.220      2.015
REMARK WARNING: 32 MAX_TORS EXCEEDED!!!
REMARK  34 active torsions:
REMARK  status: ('A' for Active; 'I' for Inactive)
REMARK    1  A    between atoms: O_1  and  C_32 
REMARK    2  A    between atoms: O_1  and  C_33 
REMARK    3  A    between atoms: O_5  and  C_51 
REMARK    4  A    between atoms: O_6  and  C_52 
REMARK    5  A    between atoms: O_7  and  C_53 
REMARK    6  A    between atoms: O_8  and  C_61 
REMARK    7  A    between atoms: O_9  and  C_62 
REMARK    8  A    between atoms: O_10  and  C_67 
REMARK    9  A    between atoms: O_11  and  C_68 
REMARK   10  A    between atoms: O_14  and  C_69 
REMARK   11  A    between atoms: O_15  and  C_70 
REMARK   12  A    between atoms: O_16  and  C_71 
REMARK   13  A    between atoms: O_17  and  C_72 
REMARK       I    between atoms: N_22  and  C_34 
REMARK   14  A    between atoms: C_27  and  C_32 
REMARK   15  A    between atoms: C_33  and  C_35 
REMARK   16  A    between atoms: C_33  and  C_36 
REMARK   17  A    between atoms: C_34  and  C_39 
REMARK   18  A    between atoms: C_35  and  C_37 
REMARK   19  A    between atoms: C_36  and  C_38 
REMARK   20  A    between atoms: C_37  and  C_40 
REMARK   21  A    between atoms: C_38  and  C_41 
REMARK   22  A    between atoms: C_39  and  C_42 
REMARK   23  A    between atoms: C_40  and  C_43 
REMARK   24  A    between atoms: C_41  and  C_44 
REMARK   25  A    between atoms: C_61  and  C_63 
REMARK   26  A    between atoms: C_61  and  C_64 
REMARK   27  A    between atoms: C_61  and  C_67 
REMARK   28  A    between atoms: C_62  and  C_65 
REMARK   29  A    between atoms: C_62  and  C_66 
REMARK   30  A    between atoms: C_62  and  C_68 
REMARK   31  A    between atoms: C_63  and  C_69 
REMARK   32  A    between atoms: C_64  and  C_70 
REMARK   33  A    between atoms: C_65  and  C_71 
REMARK   34  A    between atoms: C_66  and  C_72 
ROOT
HETATM    1  C   UNK N   1      33.996  16.859   8.708  0.00  0.00     0.161 C 
ENDROOT
BRANCH   1   2
HETATM    2  O   UNK N   1      32.704  17.146   9.154  0.00  0.00    -0.378 OA
HETATM    3  H   UNK N   1      31.998  16.706   9.654  0.00  0.00     0.211 HD
ENDBRANCH   1   2
BRANCH   1   4
HETATM    4  C   UNK N   1      33.934  15.554   7.883  0.00  0.00     0.159 C 
BRANCH   4   5
HETATM    5  C   UNK N   1      32.570  14.933   7.761  0.00  0.00     0.142 C 
HETATM    6  O   UNK N   1      32.234  14.059   8.542  0.00  0.00    -0.650 OA
BRANCH   5   7
HETATM    7  O   UNK N   1      31.698  15.360   6.829  0.00  0.00    -0.776 OA
HETATM    8  H   UNK N   1      30.762  15.372   6.864  0.00  0.00     0.167 HD
ENDBRANCH   5   7
ENDBRANCH   4   5
ENDBRANCH   1   4
BRANCH   1   9
HETATM    9  C   UNK N   1      34.916  16.697   9.929  0.00  0.00     0.159 C 
BRANCH   9  10
HETATM   10  C   UNK N   1      34.681  15.431  10.705  0.00  0.00     0.142 C 
HETATM   11  O   UNK N   1      35.608  14.665  10.904  0.00  0.00    -0.650 OA
BRANCH  10  12
HETATM   12  O   UNK N   1      33.452  15.127  11.163  0.00  0.00    -0.776 OA
HETATM   13  H   UNK N   1      32.952  14.357  10.975  0.00  0.00     0.167 HD
ENDBRANCH  10  12
ENDBRANCH   9  10
ENDBRANCH   1   9
BRANCH   1  14
HETATM   14  C   UNK N   1      34.467  18.051   7.903  0.00  0.00     0.176 C 
HETATM   15  O   UNK N   1      35.006  19.006   8.441  0.00  0.00    -0.648 OA
BRANCH  14  16
HETATM   16  O   UNK N   1      34.324  18.045   6.564  0.00  0.00    -0.774 OA
HETATM   17  H   UNK N   1      34.831  18.521   5.936  0.00  0.00     0.167 HD
ENDBRANCH  14  16
ENDBRANCH   1  14
TORSDOF 34
ENDMDL
MODEL 9
REMARK VINA RESULT:      -4.5      1.858      3.754
REMARK WARNING: 32 MAX_TORS EXCEEDED!!!
REMARK  34 active torsions:
REMARK  status: ('A' for Active; 'I' for Inactive)
REMARK    1  A    between atoms: O_1  and  C_32 
REMARK    2  A    between atoms: O_1  and  C_33 
REMARK    3  A    between atoms: O_5  and  C_51 
REMARK    4  A    between atoms: O_6  and  C_52 
REMARK    5  A    between atoms: O_7  and  C_53 
REMARK    6  A    between atoms: O_8  and  C_61 
REMARK    7  A    between atoms: O_9  and  C_62 
REMARK    8  A    between atoms: O_10  and  C_67 
REMARK    9  A    between atoms: O_11  and  C_68 
REMARK   10  A    between atoms: O_14  and  C_69 
REMARK   11  A    between atoms: O_15  and  C_70 
REMARK   12  A    between atoms: O_16  and  C_71 
REMARK   13  A    between atoms: O_17  and  C_72 
REMARK       I    between atoms: N_22  and  C_34 
REMARK   14  A    between atoms: C_27  and  C_32 
REMARK   15  A    between atoms: C_33  and  C_35 
REMARK   16  A    between atoms: C_33  and  C_36 
REMARK   17  A    between atoms: C_34  and  C_39 
REMARK   18  A    between atoms: C_35  and  C_37 
REMARK   19  A    between atoms: C_36  and  C_38 
REMARK   20  A    between atoms: C_37  and  C_40 
REMARK   21  A    between atoms: C_38  and  C_41 
REMARK   22  A    between atoms: C_39  and  C_42 
REMARK   23  A    between atoms: C_40  and  C_43 
REMARK   24  A    between atoms: C_41  and  C_44 
REMARK   25  A    between atoms: C_61  and  C_63 
REMARK   26  A    between atoms: C_61  and  C_64 
REMARK   27  A    between atoms: C_61  and  C_67 
REMARK   28  A    between atoms: C_62  and  C_65 
REMARK   29  A    between atoms: C_62  and  C_66 
REMARK   30  A    between atoms: C_62  and  C_68 
REMARK   31  A    between atoms: C_63  and  C_69 
REMARK   32  A    between atoms: C_64  and  C_70 
REMARK   33  A    between atoms: C_65  and  C_71 
REMARK   34  A    between atoms: C_66  and  C_72 
ROOT
HETATM    1  C   UNK N   1      34.129  14.431  10.162  0.00  0.00     0.161 C 
ENDROOT
BRANCH   1   2
HETATM    2  O   UNK N   1      33.672  15.100  11.299  0.00  0.00    -0.378 OA
HETATM    3  H   UNK N   1      33.498  16.013  11.579  0.00  0.00     0.211 HD
ENDBRANCH   1   2
BRANCH   1   4
HETATM    4  C   UNK N   1      34.814  13.125  10.623  0.00  0.00     0.159 C 
BRANCH   4   5
HETATM    5  C   UNK N   1      35.185  13.073  12.080  0.00  0.00     0.142 C 
HETATM    6  O   UNK N   1      36.256  13.525  12.446  0.00  0.00    -0.650 OA
BRANCH   5   7
HETATM    7  O   UNK N   1      34.330  12.571  12.991  0.00  0.00    -0.776 OA
HETATM    8  H   UNK N   1      34.224  11.682  13.268  0.00  0.00     0.167 HD
ENDBRANCH   5   7
ENDBRANCH   4   5
ENDBRANCH   1   4
BRANCH   1   9
HETATM    9  C   UNK N   1      35.120  15.340   9.416  0.00  0.00     0.159 C 
BRANCH   9  10
HETATM   10  C   UNK N   1      35.763  16.382  10.287  0.00  0.00     0.142 C 
HETATM   11  O   UNK N   1      35.343  17.526  10.270  0.00  0.00    -0.650 OA
BRANCH  10  12
HETATM   12  O   UNK N   1      36.814  16.068  11.068  0.00  0.00    -0.776 OA
HETATM   13  H   UNK N   1      37.487  16.645  11.371  0.00  0.00     0.167 HD
ENDBRANCH  10  12
ENDBRANCH   9  10
ENDBRANCH   1   9
BRANCH   1  14
HETATM   14  C   UNK N   1      32.930  14.190   9.271  0.00  0.00     0.176 C 
HETATM   15  O   UNK N   1      32.422  15.099   8.632  0.00  0.00    -0.648 OA
BRANCH  14  16
HETATM   16  O   UNK N   1      32.433  12.944   9.149  0.00  0.00    -0.774 OA
HETATM   17  H   UNK N   1      32.857  12.197   8.774  0.00  0.00     0.167 HD
ENDBRANCH  14  16
ENDBRANCH   1  14
TORSDOF 34
ENDMDL
