REMARK  16 active torsions:
REMARK  status: ('A' for Active; 'I' for Inactive)
REMARK    1  A    between atoms: C_11  and  C_13 
REMARK    2  A    between atoms: C_13  and  C_14 
REMARK    3  A    between atoms: C_22  and  C_24 
REMARK    4  A    between atoms: C_31  and  O_32 
REMARK    5  A    between atoms: C_33  and  C_34 
REMARK    6  A    between atoms: C_34  and  C_35 
REMARK    7  A    between atoms: C_39  and  N_41 
REMARK       I    between atoms: N_41  and  C_57 
REMARK    8  A    between atoms: C_46  and  C_47 
REMARK    9  A    between atoms: C_47  and  C_49 
REMARK   10  A    between atoms: C_52  and  O_55 
REMARK   11  A    between atoms: C_57  and  C_58 
REMARK   12  A    between atoms: C_58  and  C_60 
REMARK   13  A    between atoms: C_58  and  N_61 
REMARK   14  A    between atoms: C_60  and  C_63 
REMARK       I    between atoms: N_61  and  C_66 
REMARK   15  A    between atoms: C_67  and  C_66 
REMARK       I    between atoms: N_69  and  C_73 
REMARK   16  A    between atoms: C_73  and  C_75 
ROOT
HETATM    1  N   UNK N   1       1.100  -2.848   0.121  0.00  0.00    -0.340 N 
HETATM    2  C   UNK N   1       1.280  -3.093   1.533  0.00  0.00     0.153 C 
HETATM    3  C   UNK N   1       1.626  -3.721  -0.821  0.00  0.00     0.243 C 
HETATM    4  C   UNK N   1       2.352  -5.002  -0.385  0.00  0.00     0.179 C 
HETATM    5  O   UNK N   1       1.475  -3.502  -2.015  0.00  0.00    -0.271 OA
HETATM    6  C   UNK N   1       2.241  -6.310  -1.124  0.00  0.00     0.037 C 
HETATM    7  C   UNK N   1       3.354  -7.157  -0.429  0.00  0.00     0.022 C 
HETATM    8  C   UNK N   1       4.268  -6.157   0.323  0.00  0.00     0.127 C 
HETATM    9  N   UNK N   1       3.762  -4.916  -0.164  0.00  0.00    -0.337 N 
HETATM   10  C   UNK N   1       4.599  -3.989  -0.704  0.00  0.00     0.243 C 
HETATM   11  C   UNK N   1       5.922  -3.715  -0.036  0.00  0.00     0.177 C 
HETATM   12  O   UNK N   1       4.209  -3.249  -1.594  0.00  0.00    -0.271 OA
HETATM   13  C   UNK N   1       5.139  -1.492   0.782  0.00  0.00     0.229 C 
HETATM   14  C   UNK N   1       5.161  -0.473   1.860  0.00  0.00     0.146 C 
HETATM   15  O   UNK N   1       4.648  -1.202  -0.298  0.00  0.00    -0.273 OA
HETATM   16  C   UNK N   1       6.583  -0.027   2.130  0.00  0.00     0.028 C 
HETATM   17  C   UNK N   1       4.126   0.617   1.679  0.00  0.00     0.169 C 
HETATM   18  C   UNK N   1       4.361   1.967   1.021  0.00  0.00     0.205 C 
HETATM   19  O   UNK N   1       2.986   0.359   2.030  0.00  0.00    -0.294 OA
HETATM   20  O   UNK N   1       4.110   2.973   1.931  0.00  0.00    -0.308 OA
HETATM   21  C   UNK N   1       2.959   3.686   1.977  0.00  0.00     0.262 C 
HETATM   22  C   UNK N   1       1.820   3.423   1.046  0.00  0.00     0.144 C 
HETATM   23  O   UNK N   1       2.820   4.530   2.846  0.00  0.00    -0.265 OA
HETATM   24  C   UNK N   1       2.054   4.042  -0.332  0.00  0.00     0.150 C 
HETATM   25  C   UNK N   1       0.723   4.421  -0.994  0.00  0.00     0.117 C 
HETATM   26  C   UNK N   1      -1.238   2.903  -0.929  0.00  0.00     0.243 C 
HETATM   27  C   UNK N   1      -1.588   1.962   0.200  0.00  0.00     0.205 C 
HETATM   28  O   UNK N   1      -2.112   3.523  -1.505  0.00  0.00    -0.271 OA
HETATM   29  C   UNK N   1      -0.367   1.171   0.751  0.00  0.00     0.159 C 
HETATM   30  O   UNK N   1       0.575   0.777  -0.205  0.00  0.00    -0.312 OA
HETATM   31  C   UNK N   1       0.983  -0.461  -0.616  0.00  0.00     0.282 C 
HETATM   32  O   UNK N   1       1.903  -0.538  -1.414  0.00  0.00    -0.263 OA
HETATM   33  C   UNK N   1       0.250  -1.709  -0.228  0.00  0.00     0.190 C 
HETATM   34  C   UNK N   1      -0.761   0.118   1.777  0.00  0.00     0.042 C 
HETATM   35  N   UNK N   1       5.713  -2.711   0.997  0.00  0.00    -0.347 N 
HETATM   36  N   UNK N   1       0.050   3.153  -1.214  0.00  0.00    -0.352 N 
HETATM   37  H   UNK N   1       6.005  -2.926   1.913  0.00  0.00     0.163 HD
HETATM   38  H   UNK N   1       0.580   2.419  -1.601  0.00  0.00     0.163 HD
ENDROOT
BRANCH  27  39
HETATM   39  N   UNK N   1      -2.085   2.786   1.291  0.00  0.00    -0.344 N 
HETATM   40  C   UNK N   1      -3.339   3.296   1.451  0.00  0.00     0.241 C 
HETATM   41  O   UNK N   1      -3.558   4.013   2.414  0.00  0.00    -0.271 OA
HETATM   42  H   UNK N   1      -1.437   3.001   2.000  0.00  0.00     0.163 HD
BRANCH  40  43
HETATM   43  C   UNK N   1      -4.501   2.964   0.552  0.00  0.00     0.179 C 
BRANCH  43  44
HETATM   44  C   UNK N   1      -4.689   3.736  -0.762  0.00  0.00     0.039 C 
BRANCH  44  45
HETATM   45  C   UNK N   1      -6.099   4.270  -1.006  0.00  0.00    -0.020 C 
HETATM   46  C   UNK N   1      -6.446   5.380  -0.035  0.00  0.00     0.009 C 
HETATM   47  C   UNK N   1      -7.153   3.181  -0.975  0.00  0.00     0.009 C 
ENDBRANCH  44  45
ENDBRANCH  43  44
BRANCH  43  48
HETATM   48  N   UNK N   1      -4.828   1.551   0.539  0.00  0.00    -0.341 N 
HETATM   49  C   UNK N   1      -5.596   1.050   1.651  0.00  0.00     0.153 C 
HETATM   50  C   UNK N   1      -4.392   0.716  -0.460  0.00  0.00     0.243 C 
HETATM   51  O   UNK N   1      -3.775   1.161  -1.414  0.00  0.00    -0.271 OA
BRANCH  50  52
HETATM   52  C   UNK N   1      -4.659  -0.769  -0.442  0.00  0.00     0.179 C 
HETATM   53  N   UNK N   1      -6.054  -1.099  -0.316  0.00  0.00    -0.332 N 
HETATM   54  C   UNK N   1      -6.327  -2.044   0.737  0.00  0.00     0.127 C 
HETATM   55  C   UNK N   1      -7.028  -0.544  -1.105  0.00  0.00     0.289 C 
HETATM   56  C   UNK N   1      -4.970  -2.430   1.298  0.00  0.00     0.022 C 
HETATM   57  C   UNK N   1      -3.979  -1.412   0.753  0.00  0.00     0.037 C 
HETATM   58  O   UNK N   1      -6.707   0.288  -1.952  0.00  0.00    -0.264 OA
BRANCH  55  59
HETATM   59  C   UNK N   1      -8.479  -0.864  -0.981  0.00  0.00     0.212 C 
HETATM   60  O   UNK N   1      -9.291  -0.187  -1.586  0.00  0.00    -0.288 OA
HETATM   61  C   UNK N   1      -8.989  -2.008  -0.164  0.00  0.00     0.102 C 
ENDBRANCH  55  59
ENDBRANCH  50  52
ENDBRANCH  43  48
ENDBRANCH  40  43
ENDBRANCH  27  39
BRANCH  25  62
HETATM   62  C   UNK N   1      -0.056   5.406  -0.063  0.00  0.00     0.006 C 
HETATM   63  C   UNK N   1       0.817   6.568   0.396  0.00  0.00     0.012 C 
BRANCH  62  64
HETATM   64  C   UNK N   1      -1.314   5.981  -0.697  0.00  0.00     0.002 C 
HETATM   65  C   UNK N   1      -2.246   6.526   0.371  0.00  0.00     0.005 C 
ENDBRANCH  62  64
ENDBRANCH  25  62
BRANCH  24  66
HETATM   66  O   UNK N   1       2.719   3.126  -1.149  0.00  0.00    -0.393 OA
HETATM   67  H   UNK N   1       2.399   2.407  -1.716  0.00  0.00     0.210 HD
ENDBRANCH  24  66
BRANCH  33  68
HETATM   68  C   UNK N   1      -0.856  -2.043  -1.223  0.00  0.00     0.074 C 
BRANCH  68  69
HETATM   69  C   UNK N   1      -1.777  -3.144  -0.801  0.00  0.00    -0.056 A 
HETATM   70  C   UNK N   1      -2.724  -3.593  -1.720  0.00  0.00     0.010 A 
HETATM   71  C   UNK N   1      -3.594  -4.629  -1.383  0.00  0.00     0.037 A 
HETATM   72  C   UNK N   1      -3.527  -5.226  -0.112  0.00  0.00     0.068 A 
HETATM   73  C   UNK N   1      -2.584  -4.769   0.814  0.00  0.00     0.037 A 
HETATM   74  C   UNK N   1      -1.713  -3.733   0.473  0.00  0.00     0.010 A 
BRANCH  72  75
HETATM   75  O   UNK N   1      -4.353  -6.239   0.236  0.00  0.00    -0.356 OA
HETATM   76  C   UNK N   1      -5.289  -6.771  -0.622  0.00  0.00     0.210 C 
ENDBRANCH  72  75
ENDBRANCH  68  69
ENDBRANCH  33  68
BRANCH  18  77
HETATM   77  C   UNK N   1       5.677   2.228   0.263  0.00  0.00     0.014 C 
HETATM   78  C   UNK N   1       5.475   3.299  -0.790  0.00  0.00     0.012 C 
HETATM   79  C   UNK N   1       6.789   2.715   1.178  0.00  0.00     0.012 C 
ENDBRANCH  18  77
BRANCH  11  80
HETATM   80  C   UNK N   1       7.062  -3.258  -0.951  0.00  0.00     0.038 C 
BRANCH  80  81
HETATM   81  C   UNK N   1       8.257  -2.831  -0.085  0.00  0.00    -0.020 C 
HETATM   82  C   UNK N   1       9.012  -4.026   0.467  0.00  0.00     0.009 C 
HETATM   83  C   UNK N   1       9.192  -1.905  -0.829  0.00  0.00     0.009 C 
ENDBRANCH  80  81
ENDBRANCH  11  80
TORSDOF 16
