MODEL 1
REMARK VINA RESULT:      -7.8      0.000      0.000
REMARK  16 active torsions:
REMARK  status: ('A' for Active; 'I' for Inactive)
REMARK    1  A    between atoms: C_11  and  C_13 
REMARK    2  A    between atoms: C_13  and  C_14 
REMARK    3  A    between atoms: C_22  and  C_24 
REMARK    4  A    between atoms: C_31  and  O_32 
REMARK    5  A    between atoms: C_33  and  C_34 
REMARK    6  A    between atoms: C_34  and  C_35 
REMARK    7  A    between atoms: C_39  and  N_41 
REMARK       I    between atoms: N_41  and  C_57 
REMARK    8  A    between atoms: C_46  and  C_47 
REMARK    9  A    between atoms: C_47  and  C_49 
REMARK   10  A    between atoms: C_52  and  O_55 
REMARK   11  A    between atoms: C_57  and  C_58 
REMARK   12  A    between atoms: C_58  and  C_60 
REMARK   13  A    between atoms: C_58  and  N_61 
REMARK   14  A    between atoms: C_60  and  C_63 
REMARK       I    between atoms: N_61  and  C_66 
REMARK   15  A    between atoms: C_67  and  C_66 
REMARK       I    between atoms: N_69  and  C_73 
REMARK   16  A    between atoms: C_73  and  C_75 
ROOT
HETATM    1  N   UNK N   1      29.036  11.254   2.111  0.00  0.00    -0.340 N 
HETATM    2  C   UNK N   1      29.307  10.437   3.271  0.00  0.00     0.153 C 
HETATM    3  C   UNK N   1      29.613  10.955   0.885  0.00  0.00     0.243 C 
HETATM    4  C   UNK N   1      30.498   9.711   0.716  0.00  0.00     0.179 C 
HETATM    5  O   UNK N   1      29.383  11.656  -0.091  0.00  0.00    -0.271 OA
HETATM    6  C   UNK N   1      30.502   8.858  -0.525  0.00  0.00     0.037 C 
HETATM    7  C   UNK N   1      31.734   7.934  -0.266  0.00  0.00     0.022 C 
HETATM    8  C   UNK N   1      32.563   8.605   0.858  0.00  0.00     0.127 C 
HETATM    9  N   UNK N   1      31.898   9.862   0.965  0.00  0.00    -0.337 N 
HETATM   10  C   UNK N   1      32.599  11.026   0.897  0.00  0.00     0.243 C 
HETATM   11  C   UNK N   1      33.912  11.138   1.629  0.00  0.00     0.177 C 
HETATM   12  O   UNK N   1      32.088  12.029   0.422  0.00  0.00    -0.271 OA
HETATM   13  C   UNK N   1      32.922  12.662   3.338  0.00  0.00     0.229 C 
HETATM   14  C   UNK N   1      32.878  13.098   4.755  0.00  0.00     0.146 C 
HETATM   15  O   UNK N   1      32.352  13.335   2.493  0.00  0.00    -0.273 OA
HETATM   16  C   UNK N   1      34.252  13.549   5.206  0.00  0.00     0.028 C 
HETATM   17  C   UNK N   1      31.720  14.022   5.065  0.00  0.00     0.169 C 
HETATM   18  C   UNK N   1      31.770  15.541   5.073  0.00  0.00     0.205 C 
HETATM   19  O   UNK N   1      30.633  13.499   5.256  0.00  0.00    -0.294 OA
HETATM   20  O   UNK N   1      31.449  16.006   6.331  0.00  0.00    -0.308 OA
HETATM   21  C   UNK N   1      30.228  16.480   6.678  0.00  0.00     0.262 C 
HETATM   22  C   UNK N   1      29.085  16.517   5.716  0.00  0.00     0.144 C 
HETATM   23  O   UNK N   1      30.035  16.833   7.829  0.00  0.00    -0.265 OA
HETATM   24  C   UNK N   1      29.184  17.701   4.756  0.00  0.00     0.150 C 
HETATM   25  C   UNK N   1      27.789  18.168   4.318  0.00  0.00     0.117 C 
HETATM   26  C   UNK N   1      26.017  16.549   3.689  0.00  0.00     0.243 C 
HETATM   27  C   UNK N   1      25.828  15.173   4.283  0.00  0.00     0.205 C 
HETATM   28  O   UNK N   1      25.053  17.248   3.438  0.00  0.00    -0.271 OA
HETATM   29  C   UNK N   1      27.155  14.376   4.438  0.00  0.00     0.159 C 
HETATM   30  O   UNK N   1      28.090  14.560   3.415  0.00  0.00    -0.312 OA
HETATM   31  C   UNK N   1      28.616  13.688   2.503  0.00  0.00     0.282 C 
HETATM   32  O   UNK N   1      29.501  14.082   1.761  0.00  0.00    -0.263 OA
HETATM   33  C   UNK N   1      28.047  12.317   2.294  0.00  0.00     0.190 C 
HETATM   34  C   UNK N   1      26.930  12.940   4.890  0.00  0.00     0.042 C 
HETATM   35  N   UNK N   1      33.639  11.552   2.997  0.00  0.00    -0.347 N 
HETATM   36  N   UNK N   1      27.254  17.054   3.554  0.00  0.00    -0.352 N 
HETATM   37  H   UNK N   1      33.995  10.994   3.726  0.00  0.00     0.163 HD
HETATM   38  H   UNK N   1      27.845  16.635   2.888  0.00  0.00     0.163 HD
ENDROOT
BRANCH  27  39
HETATM   39  N   UNK N   1      25.292  15.367   5.621  0.00  0.00    -0.344 N 
HETATM   40  C   UNK N   1      24.058  15.023   6.087  0.00  0.00     0.241 C 
HETATM   41  O   UNK N   1      23.767  15.313   7.236  0.00  0.00    -0.271 OA
HETATM   42  H   UNK N   1      25.894  15.799   6.270  0.00  0.00     0.163 HD
BRANCH  40  43
HETATM   43  C   UNK N   1      23.052  14.231   5.293  0.00  0.00     0.179 C 
BRANCH  43  44
HETATM   44  C   UNK N   1      22.752  12.776   5.683  0.00  0.00     0.039 C 
BRANCH  44  45
HETATM   45  C   UNK N   1      23.837  12.088   6.510  0.00  0.00    -0.020 C 
HETATM   46  C   UNK N   1      24.243  10.764   5.897  0.00  0.00     0.009 C 
HETATM   47  C   UNK N   1      23.443  11.909   7.963  0.00  0.00     0.009 C 
ENDBRANCH  44  45
ENDBRANCH  43  44
BRANCH  43  48
HETATM   48  N   UNK N   1      21.937  15.031   4.823  0.00  0.00    -0.341 N 
HETATM   49  C   UNK N   1      20.927  15.373   5.793  0.00  0.00     0.153 C 
HETATM   50  C   UNK N   1      21.821  15.410   3.509  0.00  0.00     0.243 C 
HETATM   51  O   UNK N   1      22.703  15.146   2.708  0.00  0.00    -0.271 OA
BRANCH  50  52
HETATM   52  C   UNK N   1      20.626  16.174   2.994  0.00  0.00     0.179 C 
HETATM   53  N   UNK N   1      19.923  15.494   1.939  0.00  0.00    -0.332 N 
HETATM   54  C   UNK N   1      19.698  16.316   0.777  0.00  0.00     0.127 C 
HETATM   55  C   UNK N   1      19.531  14.183   2.025  0.00  0.00     0.289 C 
HETATM   56  C   UNK N   1      20.234  17.689   1.140  0.00  0.00     0.022 C 
HETATM   57  C   UNK N   1      21.065  17.501   2.401  0.00  0.00     0.037 C 
HETATM   58  O   UNK N   1      19.804  13.545   3.041  0.00  0.00    -0.264 OA
BRANCH  55  59
HETATM   59  C   UNK N   1      18.812  13.458   0.938  0.00  0.00     0.212 C 
HETATM   60  O   UNK N   1      17.689  13.812   0.630  0.00  0.00    -0.288 OA
HETATM   61  C   UNK N   1      19.424  12.323   0.180  0.00  0.00     0.102 C 
ENDBRANCH  55  59
ENDBRANCH  50  52
ENDBRANCH  43  48
ENDBRANCH  40  43
ENDBRANCH  27  39
BRANCH  25  62
HETATM   62  C   UNK N   1      26.948  18.541   5.581  0.00  0.00     0.006 C 
HETATM   63  C   UNK N   1      27.813  19.130   6.689  0.00  0.00     0.012 C 
BRANCH  62  64
HETATM   64  C   UNK N   1      25.815  19.515   5.296  0.00  0.00     0.002 C 
HETATM   65  C   UNK N   1      26.256  20.562   4.288  0.00  0.00     0.005 C 
ENDBRANCH  62  64
ENDBRANCH  25  62
BRANCH  24  66
HETATM   66  O   UNK N   1      29.909  17.326   3.624  0.00  0.00    -0.393 OA
HETATM   67  H   UNK N   1      30.751  16.855   3.516  0.00  0.00     0.210 HD
ENDBRANCH  24  66
BRANCH  33  68
HETATM   68  C   UNK N   1      26.942  12.323   1.244  0.00  0.00     0.074 C 
BRANCH  68  69
HETATM   69  C   UNK N   1      25.678  11.633   1.651  0.00  0.00    -0.056 A 
HETATM   70  C   UNK N   1      25.700  10.245   1.774  0.00  0.00     0.010 A 
HETATM   71  C   UNK N   1      24.554   9.556   2.168  0.00  0.00     0.037 A 
HETATM   72  C   UNK N   1      23.365  10.254   2.440  0.00  0.00     0.068 A 
HETATM   73  C   UNK N   1      23.339  11.646   2.307  0.00  0.00     0.037 A 
HETATM   74  C   UNK N   1      24.488  12.334   1.914  0.00  0.00     0.010 A 
BRANCH  72  75
HETATM   75  O   UNK N   1      22.243   9.610   2.834  0.00  0.00    -0.356 OA
HETATM   76  C   UNK N   1      21.081  10.267   3.172  0.00  0.00     0.210 C 
ENDBRANCH  72  75
ENDBRANCH  68  69
ENDBRANCH  33  68
BRANCH  18  77
HETATM   77  C   UNK N   1      33.012  16.266   4.520  0.00  0.00     0.014 C 
HETATM   78  C   UNK N   1      32.805  16.629   3.063  0.00  0.00     0.012 C 
HETATM   79  C   UNK N   1      33.306  17.562   5.258  0.00  0.00     0.012 C 
ENDBRANCH  18  77
BRANCH  11  80
HETATM   80  C   UNK N   1      34.950  12.085   1.020  0.00  0.00     0.038 C 
BRANCH  80  81
HETATM   81  C   UNK N   1      36.222  12.053   1.880  0.00  0.00    -0.020 C 
HETATM   82  C   UNK N   1      37.362  11.336   1.180  0.00  0.00     0.009 C 
HETATM   83  C   UNK N   1      36.648  13.437   2.313  0.00  0.00     0.009 C 
ENDBRANCH  80  81
ENDBRANCH  11  80
TORSDOF 16
ENDMDL
MODEL 2
REMARK VINA RESULT:      -7.6      2.330      7.271
REMARK  16 active torsions:
REMARK  status: ('A' for Active; 'I' for Inactive)
REMARK    1  A    between atoms: C_11  and  C_13 
REMARK    2  A    between atoms: C_13  and  C_14 
REMARK    3  A    between atoms: C_22  and  C_24 
REMARK    4  A    between atoms: C_31  and  O_32 
REMARK    5  A    between atoms: C_33  and  C_34 
REMARK    6  A    between atoms: C_34  and  C_35 
REMARK    7  A    between atoms: C_39  and  N_41 
REMARK       I    between atoms: N_41  and  C_57 
REMARK    8  A    between atoms: C_46  and  C_47 
REMARK    9  A    between atoms: C_47  and  C_49 
REMARK   10  A    between atoms: C_52  and  O_55 
REMARK   11  A    between atoms: C_57  and  C_58 
REMARK   12  A    between atoms: C_58  and  C_60 
REMARK   13  A    between atoms: C_58  and  N_61 
REMARK   14  A    between atoms: C_60  and  C_63 
REMARK       I    between atoms: N_61  and  C_66 
REMARK   15  A    between atoms: C_67  and  C_66 
REMARK       I    between atoms: N_69  and  C_73 
REMARK   16  A    between atoms: C_73  and  C_75 
ROOT
HETATM    1  N   UNK N   1      28.749  15.231   3.668  0.00  0.00    -0.340 N 
HETATM    2  C   UNK N   1      28.820  15.687   2.299  0.00  0.00     0.153 C 
HETATM    3  C   UNK N   1      29.805  15.451   4.542  0.00  0.00     0.243 C 
HETATM    4  C   UNK N   1      31.042  16.243   4.095  0.00  0.00     0.179 C 
HETATM    5  O   UNK N   1      29.740  15.054   5.697  0.00  0.00    -0.271 OA
HETATM    6  C   UNK N   1      31.785  17.196   4.994  0.00  0.00     0.037 C 
HETATM    7  C   UNK N   1      33.061  17.496   4.145  0.00  0.00     0.022 C 
HETATM    8  C   UNK N   1      33.145  16.390   3.063  0.00  0.00     0.127 C 
HETATM    9  N   UNK N   1      32.117  15.506   3.507  0.00  0.00    -0.337 N 
HETATM   10  C   UNK N   1      32.372  14.183   3.691  0.00  0.00     0.243 C 
HETATM   11  C   UNK N   1      33.205  13.445   2.674  0.00  0.00     0.177 C 
HETATM   12  O   UNK N   1      31.778  13.553   4.553  0.00  0.00    -0.271 OA
HETATM   13  C   UNK N   1      31.212  12.214   1.817  0.00  0.00     0.229 C 
HETATM   14  C   UNK N   1      30.504  11.627   0.653  0.00  0.00     0.146 C 
HETATM   15  O   UNK N   1      30.812  11.960   2.943  0.00  0.00    -0.273 OA
HETATM   16  C   UNK N   1      31.383  10.600  -0.031  0.00  0.00     0.028 C 
HETATM   17  C   UNK N   1      29.081  11.213   0.959  0.00  0.00     0.169 C 
HETATM   18  C   UNK N   1      28.627   9.819   1.360  0.00  0.00     0.205 C 
HETATM   19  O   UNK N   1      28.236  12.094   0.951  0.00  0.00    -0.294 OA
HETATM   20  O   UNK N   1      27.728   9.341   0.429  0.00  0.00    -0.308 OA
HETATM   21  C   UNK N   1      26.384   9.353   0.595  0.00  0.00     0.262 C 
HETATM   22  C   UNK N   1      25.735   9.922   1.815  0.00  0.00     0.144 C 
HETATM   23  O   UNK N   1      25.672   8.941  -0.306  0.00  0.00    -0.265 OA
HETATM   24  C   UNK N   1      25.793   8.954   2.997  0.00  0.00     0.150 C 
HETATM   25  C   UNK N   1      24.592   9.159   3.929  0.00  0.00     0.117 C 
HETATM   26  C   UNK N   1      23.813  11.427   4.565  0.00  0.00     0.243 C 
HETATM   27  C   UNK N   1      23.876  12.658   3.692  0.00  0.00     0.205 C 
HETATM   28  O   UNK N   1      22.841  11.221   5.267  0.00  0.00    -0.271 OA
HETATM   29  C   UNK N   1      25.231  12.822   2.946  0.00  0.00     0.159 C 
HETATM   30  O   UNK N   1      26.365  12.431   3.666  0.00  0.00    -0.312 OA
HETATM   31  C   UNK N   1      27.445  13.142   4.107  0.00  0.00     0.282 C 
HETATM   32  O   UNK N   1      28.362  12.540   4.642  0.00  0.00    -0.263 OA
HETATM   33  C   UNK N   1      27.476  14.640   4.081  0.00  0.00     0.190 C 
HETATM   34  C   UNK N   1      25.336  14.143   2.196  0.00  0.00     0.042 C 
HETATM   35  N   UNK N   1      32.323  12.978   1.614  0.00  0.00    -0.347 N 
HETATM   36  N   UNK N   1      24.774  10.494   4.473  0.00  0.00    -0.352 N 
HETATM   37  H   UNK N   1      32.544  13.231   0.688  0.00  0.00     0.163 HD
HETATM   38  H   UNK N   1      25.672  10.733   4.797  0.00  0.00     0.163 HD
ENDROOT
BRANCH  27  39
HETATM   39  N   UNK N   1      22.849  12.501   2.674  0.00  0.00    -0.344 N 
HETATM   40  C   UNK N   1      21.662  13.162   2.573  0.00  0.00     0.241 C 
HETATM   41  O   UNK N   1      20.899  12.857   1.670  0.00  0.00    -0.271 OA
HETATM   42  H   UNK N   1      23.035  11.836   1.972  0.00  0.00     0.163 HD
BRANCH  40  43
HETATM   43  C   UNK N   1      21.261  14.308   3.464  0.00  0.00     0.179 C 
BRANCH  43  44
HETATM   44  C   UNK N   1      20.681  15.587   2.842  0.00  0.00     0.039 C 
BRANCH  44  45
HETATM   45  C   UNK N   1      20.931  16.867   3.636  0.00  0.00    -0.020 C 
HETATM   46  C   UNK N   1      20.040  17.996   3.159  0.00  0.00     0.009 C 
HETATM   47  C   UNK N   1      22.386  17.291   3.625  0.00  0.00     0.009 C 
ENDBRANCH  44  45
ENDBRANCH  43  44
BRANCH  43  48
HETATM   48  N   UNK N   1      20.701  13.879   4.731  0.00  0.00    -0.341 N 
HETATM   49  C   UNK N   1      19.454  13.158   4.681  0.00  0.00     0.153 C 
HETATM   50  C   UNK N   1      21.303  14.180   5.928  0.00  0.00     0.243 C 
HETATM   51  O   UNK N   1      22.377  14.758   5.953  0.00  0.00    -0.271 OA
BRANCH  50  52
HETATM   52  C   UNK N   1      20.688  13.807   7.255  0.00  0.00     0.179 C 
HETATM   53  N   UNK N   1      20.434  14.939   8.107  0.00  0.00    -0.332 N 
HETATM   54  C   UNK N   1      20.966  14.785   9.437  0.00  0.00     0.127 C 
HETATM   55  C   UNK N   1      19.775  16.063   7.682  0.00  0.00     0.289 C 
HETATM   56  C   UNK N   1      21.551  13.384   9.481  0.00  0.00     0.022 C 
HETATM   57  C   UNK N   1      21.629  12.910   8.038  0.00  0.00     0.037 C 
HETATM   58  O   UNK N   1      19.393  16.124   6.514  0.00  0.00    -0.264 OA
BRANCH  55  59
HETATM   59  C   UNK N   1      19.515  17.249   8.546  0.00  0.00     0.212 C 
HETATM   60  O   UNK N   1      20.313  18.170   8.549  0.00  0.00    -0.288 OA
HETATM   61  C   UNK N   1      18.292  17.378   9.398  0.00  0.00     0.102 C 
ENDBRANCH  55  59
ENDBRANCH  50  52
ENDBRANCH  43  48
ENDBRANCH  40  43
ENDBRANCH  27  39
BRANCH  25  62
HETATM   62  C   UNK N   1      23.269   8.973   3.118  0.00  0.00     0.006 C 
HETATM   63  C   UNK N   1      23.388   7.865   2.078  0.00  0.00     0.012 C 
BRANCH  62  64
HETATM   64  C   UNK N   1      22.054   8.679   3.986  0.00  0.00     0.002 C 
HETATM   65  C   UNK N   1      20.789   9.193   3.322  0.00  0.00     0.005 C 
ENDBRANCH  62  64
ENDBRANCH  25  62
BRANCH  24  66
HETATM   66  O   UNK N   1      26.967   9.169   3.721  0.00  0.00    -0.393 OA
HETATM   67  H   UNK N   1      27.188   9.789   4.434  0.00  0.00     0.210 HD
ENDBRANCH  24  66
BRANCH  33  68
HETATM   68  C   UNK N   1      26.903  15.236   5.363  0.00  0.00     0.074 C 
BRANCH  68  69
HETATM   69  C   UNK N   1      26.725  16.721   5.347  0.00  0.00    -0.056 A 
HETATM   70  C   UNK N   1      27.435  17.476   6.279  0.00  0.00     0.010 A 
HETATM   71  C   UNK N   1      27.317  18.865   6.295  0.00  0.00     0.037 A 
HETATM   72  C   UNK N   1      26.479  19.516   5.374  0.00  0.00     0.068 A 
HETATM   73  C   UNK N   1      25.758  18.759   4.444  0.00  0.00     0.037 A 
HETATM   74  C   UNK N   1      25.879  17.369   4.430  0.00  0.00     0.010 A 
BRANCH  72  75
HETATM   75  O   UNK N   1      26.355  20.863   5.362  0.00  0.00    -0.356 OA
HETATM   76  C   UNK N   1      27.060  21.688   6.209  0.00  0.00     0.210 C 
ENDBRANCH  72  75
ENDBRANCH  68  69
ENDBRANCH  33  68
BRANCH  18  77
HETATM   77  C   UNK N   1      29.675   8.746   1.712  0.00  0.00     0.014 C 
HETATM   78  C   UNK N   1      30.049   8.836   3.178  0.00  0.00     0.012 C 
HETATM   79  C   UNK N   1      29.166   7.334   1.474  0.00  0.00     0.012 C 
ENDBRANCH  18  77
BRANCH  11  80
HETATM   80  C   UNK N   1      34.025  12.262   3.197  0.00  0.00     0.038 C 
BRANCH  80  81
HETATM   81  C   UNK N   1      35.507  12.663   3.243  0.00  0.00    -0.020 C 
HETATM   82  C   UNK N   1      35.923  13.437   2.006  0.00  0.00     0.009 C 
HETATM   83  C   UNK N   1      35.845  13.437   4.497  0.00  0.00     0.009 C 
ENDBRANCH  80  81
ENDBRANCH  11  80
TORSDOF 16
ENDMDL
MODEL 3
REMARK VINA RESULT:      -7.6      1.791      2.754
REMARK  16 active torsions:
REMARK  status: ('A' for Active; 'I' for Inactive)
REMARK    1  A    between atoms: C_11  and  C_13 
REMARK    2  A    between atoms: C_13  and  C_14 
REMARK    3  A    between atoms: C_22  and  C_24 
REMARK    4  A    between atoms: C_31  and  O_32 
REMARK    5  A    between atoms: C_33  and  C_34 
REMARK    6  A    between atoms: C_34  and  C_35 
REMARK    7  A    between atoms: C_39  and  N_41 
REMARK       I    between atoms: N_41  and  C_57 
REMARK    8  A    between atoms: C_46  and  C_47 
REMARK    9  A    between atoms: C_47  and  C_49 
REMARK   10  A    between atoms: C_52  and  O_55 
REMARK   11  A    between atoms: C_57  and  C_58 
REMARK   12  A    between atoms: C_58  and  C_60 
REMARK   13  A    between atoms: C_58  and  N_61 
REMARK   14  A    between atoms: C_60  and  C_63 
REMARK       I    between atoms: N_61  and  C_66 
REMARK   15  A    between atoms: C_67  and  C_66 
REMARK       I    between atoms: N_69  and  C_73 
REMARK   16  A    between atoms: C_73  and  C_75 
ROOT
HETATM    1  N   UNK N   1      30.716  11.893   2.885  0.00  0.00    -0.340 N 
HETATM    2  C   UNK N   1      30.679  11.028   4.041  0.00  0.00     0.153 C 
HETATM    3  C   UNK N   1      31.637  11.677   1.869  0.00  0.00     0.243 C 
HETATM    4  C   UNK N   1      32.592  10.476   1.918  0.00  0.00     0.179 C 
HETATM    5  O   UNK N   1      31.666  12.419   0.897  0.00  0.00    -0.271 OA
HETATM    6  C   UNK N   1      32.996   9.688   0.699  0.00  0.00     0.037 C 
HETATM    7  C   UNK N   1      34.144   8.796   1.269  0.00  0.00     0.022 C 
HETATM    8  C   UNK N   1      34.579   9.437   2.611  0.00  0.00     0.127 C 
HETATM    9  N   UNK N   1      33.851  10.663   2.569  0.00  0.00    -0.337 N 
HETATM   10  C   UNK N   1      34.485  11.852   2.753  0.00  0.00     0.243 C 
HETATM   11  C   UNK N   1      35.524  11.972   3.839  0.00  0.00     0.177 C 
HETATM   12  O   UNK N   1      34.085  12.859   2.189  0.00  0.00    -0.271 OA
HETATM   13  C   UNK N   1      34.009  13.371   5.244  0.00  0.00     0.229 C 
HETATM   14  C   UNK N   1      33.536  13.732   6.603  0.00  0.00     0.146 C 
HETATM   15  O   UNK N   1      33.676  14.066   4.296  0.00  0.00    -0.273 OA
HETATM   16  C   UNK N   1      34.697  14.207   7.452  0.00  0.00     0.028 C 
HETATM   17  C   UNK N   1      32.294  14.598   6.598  0.00  0.00     0.169 C 
HETATM   18  C   UNK N   1      32.267  16.115   6.679  0.00  0.00     0.205 C 
HETATM   19  O   UNK N   1      31.226  14.028   6.444  0.00  0.00    -0.294 OA
HETATM   20  O   UNK N   1      31.574  16.504   7.807  0.00  0.00    -0.308 OA
HETATM   21  C   UNK N   1      30.284  16.917   7.801  0.00  0.00     0.262 C 
HETATM   22  C   UNK N   1      29.466  16.963   6.551  0.00  0.00     0.144 C 
HETATM   23  O   UNK N   1      29.749  17.203   8.859  0.00  0.00    -0.265 OA
HETATM   24  C   UNK N   1      29.782  18.198   5.707  0.00  0.00     0.150 C 
HETATM   25  C   UNK N   1      28.553  18.637   4.901  0.00  0.00     0.117 C 
HETATM   26  C   UNK N   1      27.119  16.992   3.721  0.00  0.00     0.243 C 
HETATM   27  C   UNK N   1      26.832  15.582   4.180  0.00  0.00     0.205 C 
HETATM   28  O   UNK N   1      26.236  17.669   3.228  0.00  0.00    -0.271 OA
HETATM   29  C   UNK N   1      28.094  14.824   4.684  0.00  0.00     0.159 C 
HETATM   30  O   UNK N   1      29.276  15.093   3.985  0.00  0.00    -0.312 OA
HETATM   31  C   UNK N   1      30.084  14.288   3.232  0.00  0.00     0.282 C 
HETATM   32  O   UNK N   1      31.126  14.750   2.796  0.00  0.00    -0.263 OA
HETATM   33  C   UNK N   1      29.667  12.911   2.813  0.00  0.00     0.190 C 
HETATM   34  C   UNK N   1      27.818  13.360   4.995  0.00  0.00     0.042 C 
HETATM   35  N   UNK N   1      34.847  12.306   5.084  0.00  0.00    -0.347 N 
HETATM   36  N   UNK N   1      28.316  17.546   3.972  0.00  0.00    -0.352 N 
HETATM   37  H   UNK N   1      35.003  11.724   5.863  0.00  0.00     0.163 HD
HETATM   38  H   UNK N   1      29.094  17.183   3.490  0.00  0.00     0.163 HD
ENDROOT
BRANCH  27  39
HETATM   39  N   UNK N   1      25.923  15.688   5.311  0.00  0.00    -0.344 N 
HETATM   40  C   UNK N   1      24.697  15.110   5.457  0.00  0.00     0.241 C 
HETATM   41  O   UNK N   1      24.053  15.356   6.464  0.00  0.00    -0.271 OA
HETATM   42  H   UNK N   1      26.232  16.244   6.062  0.00  0.00     0.163 HD
BRANCH  40  43
HETATM   43  C   UNK N   1      24.117  14.117   4.484  0.00  0.00     0.179 C 
BRANCH  43  44
HETATM   44  C   UNK N   1      23.439  12.845   5.013  0.00  0.00     0.039 C 
BRANCH  44  45
HETATM   45  C   UNK N   1      24.339  11.921   5.831  0.00  0.00    -0.020 C 
HETATM   46  C   UNK N   1      24.536  10.587   5.140  0.00  0.00     0.009 C 
HETATM   47  C   UNK N   1      23.844  11.723   7.249  0.00  0.00     0.009 C 
ENDBRANCH  44  45
ENDBRANCH  43  44
BRANCH  43  48
HETATM   48  N   UNK N   1      23.528  14.740   3.315  0.00  0.00    -0.341 N 
HETATM   49  C   UNK N   1      24.340  14.790   2.125  0.00  0.00     0.153 C 
HETATM   50  C   UNK N   1      22.273  15.298   3.345  0.00  0.00     0.243 C 
HETATM   51  O   UNK N   1      21.583  15.216   4.348  0.00  0.00    -0.271 OA
BRANCH  50  52
HETATM   52  C   UNK N   1      21.683  16.018   2.158  0.00  0.00     0.179 C 
HETATM   53  N   UNK N   1      21.107  17.295   2.490  0.00  0.00    -0.332 N 
HETATM   54  C   UNK N   1      19.762  17.462   2.001  0.00  0.00     0.127 C 
HETATM   55  C   UNK N   1      21.768  18.245   3.225  0.00  0.00     0.289 C 
HETATM   56  C   UNK N   1      19.462  16.206   1.202  0.00  0.00     0.022 C 
HETATM   57  C   UNK N   1      20.551  15.205   1.558  0.00  0.00     0.037 C 
HETATM   58  O   UNK N   1      22.900  17.998   3.638  0.00  0.00    -0.264 OA
BRANCH  55  59
HETATM   59  C   UNK N   1      21.183  19.567   3.589  0.00  0.00     0.212 C 
HETATM   60  O   UNK N   1      20.766  19.741   4.720  0.00  0.00    -0.288 OA
HETATM   61  C   UNK N   1      21.111  20.713   2.631  0.00  0.00     0.102 C 
ENDBRANCH  55  59
ENDBRANCH  50  52
ENDBRANCH  43  48
ENDBRANCH  40  43
ENDBRANCH  27  39
BRANCH  25  62
HETATM   62  C   UNK N   1      27.365  18.915   5.878  0.00  0.00     0.006 C 
HETATM   63  C   UNK N   1      27.849  19.385   7.245  0.00  0.00     0.012 C 
BRANCH  62  64
HETATM   64  C   UNK N   1      26.367  19.936   5.352  0.00  0.00     0.002 C 
HETATM   65  C   UNK N   1      26.531  21.261   6.076  0.00  0.00     0.005 C 
ENDBRANCH  62  64
ENDBRANCH  25  62
BRANCH  24  66
HETATM   66  O   UNK N   1      30.821  17.906   4.822  0.00  0.00    -0.393 OA
HETATM   67  H   UNK N   1      31.748  17.659   4.965  0.00  0.00     0.210 HD
ENDBRANCH  24  66
BRANCH  33  68
HETATM   68  C   UNK N   1      28.913  12.931   1.488  0.00  0.00     0.074 C 
BRANCH  68  69
HETATM   69  C   UNK N   1      27.865  11.874   1.339  0.00  0.00    -0.056 A 
HETATM   70  C   UNK N   1      26.571  12.171   1.764  0.00  0.00     0.010 A 
HETATM   71  C   UNK N   1      25.554  11.226   1.630  0.00  0.00     0.037 A 
HETATM   72  C   UNK N   1      25.826   9.966   1.070  0.00  0.00     0.068 A 
HETATM   73  C   UNK N   1      27.126   9.664   0.653  0.00  0.00     0.037 A 
HETATM   74  C   UNK N   1      28.142  10.612   0.786  0.00  0.00     0.010 A 
BRANCH  72  75
HETATM   75  O   UNK N   1      24.855   9.036   0.920  0.00  0.00    -0.356 OA
HETATM   76  C   UNK N   1      24.769   7.909   1.706  0.00  0.00     0.210 C 
ENDBRANCH  72  75
ENDBRANCH  68  69
ENDBRANCH  33  68
BRANCH  18  77
HETATM   77  C   UNK N   1      33.579  16.911   6.540  0.00  0.00     0.014 C 
HETATM   78  C   UNK N   1      33.675  17.532   5.161  0.00  0.00     0.012 C 
HETATM   79  C   UNK N   1      33.679  18.049   7.543  0.00  0.00     0.012 C 
ENDBRANCH  18  77
BRANCH  11  80
HETATM   80  C   UNK N   1      36.646  12.985   3.596  0.00  0.00     0.038 C 
BRANCH  80  81
HETATM   81  C   UNK N   1      37.679  12.366   2.642  0.00  0.00    -0.020 C 
HETATM   82  C   UNK N   1      38.900  13.252   2.477  0.00  0.00     0.009 C 
HETATM   83  C   UNK N   1      38.083  10.974   3.072  0.00  0.00     0.009 C 
ENDBRANCH  80  81
ENDBRANCH  11  80
TORSDOF 16
ENDMDL
MODEL 4
REMARK VINA RESULT:      -6.8      3.044     12.098
REMARK  16 active torsions:
REMARK  status: ('A' for Active; 'I' for Inactive)
REMARK    1  A    between atoms: C_11  and  C_13 
REMARK    2  A    between atoms: C_13  and  C_14 
REMARK    3  A    between atoms: C_22  and  C_24 
REMARK    4  A    between atoms: C_31  and  O_32 
REMARK    5  A    between atoms: C_33  and  C_34 
REMARK    6  A    between atoms: C_34  and  C_35 
REMARK    7  A    between atoms: C_39  and  N_41 
REMARK       I    between atoms: N_41  and  C_57 
REMARK    8  A    between atoms: C_46  and  C_47 
REMARK    9  A    between atoms: C_47  and  C_49 
REMARK   10  A    between atoms: C_52  and  O_55 
REMARK   11  A    between atoms: C_57  and  C_58 
REMARK   12  A    between atoms: C_58  and  C_60 
REMARK   13  A    between atoms: C_58  and  N_61 
REMARK   14  A    between atoms: C_60  and  C_63 
REMARK       I    between atoms: N_61  and  C_66 
REMARK   15  A    between atoms: C_67  and  C_66 
REMARK       I    between atoms: N_69  and  C_73 
REMARK   16  A    between atoms: C_73  and  C_75 
ROOT
HETATM    1  N   UNK N   1      28.634  17.587   5.568  0.00  0.00    -0.340 N 
HETATM    2  C   UNK N   1      28.117  17.131   6.837  0.00  0.00     0.153 C 
HETATM    3  C   UNK N   1      28.334  18.857   5.097  0.00  0.00     0.243 C 
HETATM    4  C   UNK N   1      27.502  19.832   5.944  0.00  0.00     0.179 C 
HETATM    5  O   UNK N   1      28.771  19.233   4.018  0.00  0.00    -0.271 OA
HETATM    6  C   UNK N   1      27.764  21.314   5.998  0.00  0.00     0.037 C 
HETATM    7  C   UNK N   1      26.502  21.827   6.762  0.00  0.00     0.022 C 
HETATM    8  C   UNK N   1      25.453  20.689   6.699  0.00  0.00     0.127 C 
HETATM    9  N   UNK N   1      26.082  19.797   5.782  0.00  0.00    -0.337 N 
HETATM   10  C   UNK N   1      25.415  19.343   4.686  0.00  0.00     0.243 C 
HETATM   11  C   UNK N   1      23.976  18.919   4.824  0.00  0.00     0.177 C 
HETATM   12  O   UNK N   1      26.020  19.094   3.654  0.00  0.00    -0.271 OA
HETATM   13  C   UNK N   1      24.579  16.511   4.575  0.00  0.00     0.229 C 
HETATM   14  C   UNK N   1      24.317  15.105   4.968  0.00  0.00     0.146 C 
HETATM   15  O   UNK N   1      25.319  16.734   3.629  0.00  0.00    -0.273 OA
HETATM   16  C   UNK N   1      22.880  14.735   4.666  0.00  0.00     0.028 C 
HETATM   17  C   UNK N   1      25.384  14.139   4.498  0.00  0.00     0.169 C 
HETATM   18  C   UNK N   1      25.338  13.314   3.223  0.00  0.00     0.205 C 
HETATM   19  O   UNK N   1      26.402  14.073   5.168  0.00  0.00    -0.294 OA
HETATM   20  O   UNK N   1      25.381  11.972   3.541  0.00  0.00    -0.308 OA
HETATM   21  C   UNK N   1      26.500  11.211   3.474  0.00  0.00     0.262 C 
HETATM   22  C   UNK N   1      27.824  11.773   3.069  0.00  0.00     0.144 C 
HETATM   23  O   UNK N   1      26.441  10.041   3.814  0.00  0.00    -0.265 OA
HETATM   24  C   UNK N   1      27.938  11.932   1.553  0.00  0.00     0.150 C 
HETATM   25  C   UNK N   1      29.395  11.786   1.096  0.00  0.00     0.117 C 
HETATM   26  C   UNK N   1      31.256  12.866   2.330  0.00  0.00     0.243 C 
HETATM   27  C   UNK N   1      31.309  13.096   3.822  0.00  0.00     0.205 C 
HETATM   28  O   UNK N   1      32.254  12.518   1.727  0.00  0.00    -0.271 OA
HETATM   29  C   UNK N   1      29.978  13.641   4.415  0.00  0.00     0.159 C 
HETATM   30  O   UNK N   1      29.286  14.547   3.604  0.00  0.00    -0.312 OA
HETATM   31  C   UNK N   1      28.966  15.863   3.786  0.00  0.00     0.282 C 
HETATM   32  O   UNK N   1      28.263  16.415   2.955  0.00  0.00    -0.263 OA
HETATM   33  C   UNK N   1      29.563  16.680   4.892  0.00  0.00     0.190 C 
HETATM   34  C   UNK N   1      30.096  14.014   5.886  0.00  0.00     0.042 C 
HETATM   35  N   UNK N   1      23.949  17.523   5.238  0.00  0.00    -0.347 N 
HETATM   36  N   UNK N   1      30.079  12.923   1.688  0.00  0.00    -0.352 N 
HETATM   37  H   UNK N   1      23.442  17.294   6.051  0.00  0.00     0.163 HD
HETATM   38  H   UNK N   1      29.644  13.803   1.613  0.00  0.00     0.163 HD
ENDROOT
BRANCH  27  39
HETATM   39  N   UNK N   1      31.545  11.798   4.436  0.00  0.00    -0.344 N 
HETATM   40  C   UNK N   1      32.648  11.384   5.122  0.00  0.00     0.241 C 
HETATM   41  O   UNK N   1      32.685  10.233   5.525  0.00  0.00    -0.271 OA
HETATM   42  H   UNK N   1      30.819  11.140   4.346  0.00  0.00     0.163 HD
BRANCH  40  43
HETATM   43  C   UNK N   1      33.797  12.287   5.485  0.00  0.00     0.179 C 
BRANCH  43  44
HETATM   44  C   UNK N   1      34.261  13.364   4.494  0.00  0.00     0.039 C 
BRANCH  44  45
HETATM   45  C   UNK N   1      35.546  13.039   3.735  0.00  0.00    -0.020 C 
HETATM   46  C   UNK N   1      36.768  13.533   4.480  0.00  0.00     0.009 C 
HETATM   47  C   UNK N   1      35.536  13.562   2.312  0.00  0.00     0.009 C 
ENDBRANCH  44  45
ENDBRANCH  43  44
BRANCH  43  48
HETATM   48  N   UNK N   1      33.831  12.630   6.894  0.00  0.00    -0.341 N 
HETATM   49  C   UNK N   1      33.019  13.745   7.313  0.00  0.00     0.153 C 
HETATM   50  C   UNK N   1      34.630  11.957   7.785  0.00  0.00     0.243 C 
HETATM   51  O   UNK N   1      35.283  10.991   7.424  0.00  0.00    -0.271 OA
BRANCH  50  52
HETATM   52  C   UNK N   1      34.733  12.356   9.236  0.00  0.00     0.179 C 
HETATM   53  N   UNK N   1      36.081  12.622   9.663  0.00  0.00    -0.332 N 
HETATM   54  C   UNK N   1      36.453  11.914  10.862  0.00  0.00     0.127 C 
HETATM   55  C   UNK N   1      36.934  13.447   8.978  0.00  0.00     0.289 C 
HETATM   56  C   UNK N   1      35.200  11.179  11.305  0.00  0.00     0.022 C 
HETATM   57  C   UNK N   1      34.238  11.232  10.128  0.00  0.00     0.037 C 
HETATM   58  O   UNK N   1      36.544  13.977   7.939  0.00  0.00    -0.264 OA
BRANCH  55  59
HETATM   59  C   UNK N   1      38.338  13.725   9.398  0.00  0.00     0.212 C 
HETATM   60  O   UNK N   1      38.621  14.826   9.834  0.00  0.00    -0.288 OA
HETATM   61  C   UNK N   1      39.420  12.695   9.337  0.00  0.00     0.102 C 
ENDBRANCH  55  59
ENDBRANCH  50  52
ENDBRANCH  43  48
ENDBRANCH  40  43
ENDBRANCH  27  39
BRANCH  25  62
HETATM   62  C   UNK N   1      29.945  10.397   1.556  0.00  0.00     0.006 C 
HETATM   63  C   UNK N   1      28.871   9.317   1.519  0.00  0.00     0.012 C 
BRANCH  62  64
HETATM   64  C   UNK N   1      31.135   9.910   0.742  0.00  0.00     0.002 C 
HETATM   65  C   UNK N   1      30.956  10.264  -0.724  0.00  0.00     0.005 C 
ENDBRANCH  62  64
ENDBRANCH  25  62
BRANCH  24  66
HETATM   66  O   UNK N   1      27.472  13.193   1.178  0.00  0.00    -0.393 OA
HETATM   67  H   UNK N   1      26.789  13.475   0.550  0.00  0.00     0.210 HD
ENDBRANCH  24  66
BRANCH  33  68
HETATM   68  C   UNK N   1      30.869  17.339   4.461  0.00  0.00     0.074 C 
BRANCH  68  69
HETATM   69  C   UNK N   1      31.958  17.318   5.488  0.00  0.00    -0.056 A 
HETATM   70  C   UNK N   1      31.601  17.498   6.823  0.00  0.00     0.010 A 
HETATM   71  C   UNK N   1      32.575  17.469   7.820  0.00  0.00     0.037 A 
HETATM   72  C   UNK N   1      33.925  17.264   7.487  0.00  0.00     0.068 A 
HETATM   73  C   UNK N   1      34.285  17.093   6.147  0.00  0.00     0.037 A 
HETATM   74  C   UNK N   1      33.307  17.120   5.151  0.00  0.00     0.010 A 
BRANCH  72  75
HETATM   75  O   UNK N   1      34.888  17.222   8.437  0.00  0.00    -0.356 OA
HETATM   76  C   UNK N   1      34.752  16.516   9.611  0.00  0.00     0.210 C 
ENDBRANCH  72  75
ENDBRANCH  68  69
ENDBRANCH  33  68
BRANCH  18  77
HETATM   77  C   UNK N   1      24.246  13.594   2.171  0.00  0.00     0.014 C 
HETATM   78  C   UNK N   1      24.684  14.707   1.241  0.00  0.00     0.012 C 
HETATM   79  C   UNK N   1      23.952  12.383   1.301  0.00  0.00     0.012 C 
ENDBRANCH  18  77
BRANCH  11  80
HETATM   80  C   UNK N   1      23.097  19.087   3.582  0.00  0.00     0.038 C 
BRANCH  80  81
HETATM   81  C   UNK N   1      21.636  18.800   3.961  0.00  0.00    -0.020 C 
HETATM   82  C   UNK N   1      20.730  19.979   3.659  0.00  0.00     0.009 C 
HETATM   83  C   UNK N   1      21.116  17.544   3.300  0.00  0.00     0.009 C 
ENDBRANCH  80  81
ENDBRANCH  11  80
TORSDOF 16
ENDMDL
MODEL 5
REMARK VINA RESULT:      -6.6      2.652     12.044
REMARK  16 active torsions:
REMARK  status: ('A' for Active; 'I' for Inactive)
REMARK    1  A    between atoms: C_11  and  C_13 
REMARK    2  A    between atoms: C_13  and  C_14 
REMARK    3  A    between atoms: C_22  and  C_24 
REMARK    4  A    between atoms: C_31  and  O_32 
REMARK    5  A    between atoms: C_33  and  C_34 
REMARK    6  A    between atoms: C_34  and  C_35 
REMARK    7  A    between atoms: C_39  and  N_41 
REMARK       I    between atoms: N_41  and  C_57 
REMARK    8  A    between atoms: C_46  and  C_47 
REMARK    9  A    between atoms: C_47  and  C_49 
REMARK   10  A    between atoms: C_52  and  O_55 
REMARK   11  A    between atoms: C_57  and  C_58 
REMARK   12  A    between atoms: C_58  and  C_60 
REMARK   13  A    between atoms: C_58  and  N_61 
REMARK   14  A    between atoms: C_60  and  C_63 
REMARK       I    between atoms: N_61  and  C_66 
REMARK   15  A    between atoms: C_67  and  C_66 
REMARK       I    between atoms: N_69  and  C_73 
REMARK   16  A    between atoms: C_73  and  C_75 
ROOT
HETATM    1  N   UNK N   1      28.715  17.415   5.623  0.00  0.00    -0.340 N 
HETATM    2  C   UNK N   1      28.150  16.933   6.861  0.00  0.00     0.153 C 
HETATM    3  C   UNK N   1      28.454  18.705   5.182  0.00  0.00     0.243 C 
HETATM    4  C   UNK N   1      27.616  19.671   6.032  0.00  0.00     0.179 C 
HETATM    5  O   UNK N   1      28.931  19.104   4.128  0.00  0.00    -0.271 OA
HETATM    6  C   UNK N   1      27.904  21.146   6.139  0.00  0.00     0.037 C 
HETATM    7  C   UNK N   1      26.629  21.661   6.879  0.00  0.00     0.022 C 
HETATM    8  C   UNK N   1      25.560  20.547   6.749  0.00  0.00     0.127 C 
HETATM    9  N   UNK N   1      26.201  19.670   5.825  0.00  0.00    -0.337 N 
HETATM   10  C   UNK N   1      25.560  19.262   4.696  0.00  0.00     0.243 C 
HETATM   11  C   UNK N   1      24.109  18.863   4.778  0.00  0.00     0.177 C 
HETATM   12  O   UNK N   1      26.192  19.031   3.677  0.00  0.00    -0.271 OA
HETATM   13  C   UNK N   1      24.673  16.452   4.474  0.00  0.00     0.229 C 
HETATM   14  C   UNK N   1      24.372  15.040   4.817  0.00  0.00     0.146 C 
HETATM   15  O   UNK N   1      25.447  16.688   3.559  0.00  0.00    -0.273 OA
HETATM   16  C   UNK N   1      22.938  14.709   4.460  0.00  0.00     0.028 C 
HETATM   17  C   UNK N   1      25.434  14.068   4.351  0.00  0.00     0.169 C 
HETATM   18  C   UNK N   1      25.411  13.281   3.050  0.00  0.00     0.205 C 
HETATM   19  O   UNK N   1      26.430  13.961   5.049  0.00  0.00    -0.294 OA
HETATM   20  O   UNK N   1      25.419  11.930   3.329  0.00  0.00    -0.308 OA
HETATM   21  C   UNK N   1      26.524  11.149   3.273  0.00  0.00     0.262 C 
HETATM   22  C   UNK N   1      27.871  11.696   2.926  0.00  0.00     0.144 C 
HETATM   23  O   UNK N   1      26.433   9.971   3.576  0.00  0.00    -0.265 OA
HETATM   24  C   UNK N   1      28.035  11.897   1.419  0.00  0.00     0.150 C 
HETATM   25  C   UNK N   1      29.503  11.736   1.003  0.00  0.00     0.117 C 
HETATM   26  C   UNK N   1      31.345  12.741   2.326  0.00  0.00     0.243 C 
HETATM   27  C   UNK N   1      31.356  12.925   3.825  0.00  0.00     0.205 C 
HETATM   28  O   UNK N   1      32.354  12.390   1.743  0.00  0.00    -0.271 OA
HETATM   29  C   UNK N   1      30.018  13.480   4.393  0.00  0.00     0.159 C 
HETATM   30  O   UNK N   1      29.369  14.422   3.589  0.00  0.00    -0.312 OA
HETATM   31  C   UNK N   1      29.069  15.739   3.801  0.00  0.00     0.282 C 
HETATM   32  O   UNK N   1      28.403  16.329   2.966  0.00  0.00    -0.263 OA
HETATM   33  C   UNK N   1      29.647  16.511   4.949  0.00  0.00     0.190 C 
HETATM   34  C   UNK N   1      30.097  13.806   5.877  0.00  0.00     0.042 C 
HETATM   35  N   UNK N   1      24.042  17.457   5.148  0.00  0.00    -0.347 N 
HETATM   36  N   UNK N   1      30.190  12.840   1.650  0.00  0.00    -0.352 N 
HETATM   37  H   UNK N   1      23.506  17.214   5.938  0.00  0.00     0.163 HD
HETATM   38  H   UNK N   1      29.775  13.731   1.589  0.00  0.00     0.163 HD
ENDROOT
BRANCH  27  39
HETATM   39  N   UNK N   1      31.547  11.605   4.407  0.00  0.00    -0.344 N 
HETATM   40  C   UNK N   1      32.654  11.120   5.037  0.00  0.00     0.241 C 
HETATM   41  O   UNK N   1      32.647   9.961   5.419  0.00  0.00    -0.271 OA
HETATM   42  H   UNK N   1      30.784  10.988   4.337  0.00  0.00     0.163 HD
BRANCH  40  43
HETATM   43  C   UNK N   1      33.866  11.954   5.365  0.00  0.00     0.179 C 
BRANCH  43  44
HETATM   44  C   UNK N   1      34.121  12.382   6.817  0.00  0.00     0.039 C 
BRANCH  44  45
HETATM   45  C   UNK N   1      33.971  13.878   7.090  0.00  0.00    -0.020 C 
HETATM   46  C   UNK N   1      35.317  14.539   7.304  0.00  0.00     0.009 C 
HETATM   47  C   UNK N   1      33.038  14.173   8.247  0.00  0.00     0.009 C 
ENDBRANCH  44  45
ENDBRANCH  43  44
BRANCH  43  48
HETATM   48  N   UNK N   1      35.026  11.615   4.564  0.00  0.00    -0.341 N 
HETATM   49  C   UNK N   1      35.546  10.278   4.702  0.00  0.00     0.153 C 
HETATM   50  C   UNK N   1      35.633  12.535   3.744  0.00  0.00     0.243 C 
HETATM   51  O   UNK N   1      35.160  13.651   3.609  0.00  0.00    -0.271 OA
BRANCH  50  52
HETATM   52  C   UNK N   1      36.887  12.217   2.967  0.00  0.00     0.179 C 
HETATM   53  N   UNK N   1      37.991  13.085   3.282  0.00  0.00    -0.332 N 
HETATM   54  C   UNK N   1      38.611  13.668   2.119  0.00  0.00     0.127 C 
HETATM   55  C   UNK N   1      38.392  13.350   4.565  0.00  0.00     0.289 C 
HETATM   56  C   UNK N   1      37.895  13.058   0.928  0.00  0.00     0.022 C 
HETATM   57  C   UNK N   1      36.643  12.391   1.479  0.00  0.00     0.037 C 
HETATM   58  O   UNK N   1      37.776  12.840   5.500  0.00  0.00    -0.264 OA
BRANCH  55  59
HETATM   59  C   UNK N   1      39.525  14.255   4.911  0.00  0.00     0.212 C 
HETATM   60  O   UNK N   1      39.294  15.420   5.180  0.00  0.00    -0.288 OA
HETATM   61  C   UNK N   1      40.945  13.789   4.973  0.00  0.00     0.102 C 
ENDBRANCH  55  59
ENDBRANCH  50  52
ENDBRANCH  43  48
ENDBRANCH  40  43
ENDBRANCH  27  39
BRANCH  25  62
HETATM   62  C   UNK N   1      30.012  10.323   1.438  0.00  0.00     0.006 C 
HETATM   63  C   UNK N   1      28.918   9.266   1.336  0.00  0.00     0.012 C 
BRANCH  62  64
HETATM   64  C   UNK N   1      31.216   9.836   0.646  0.00  0.00     0.002 C 
HETATM   65  C   UNK N   1      31.090  10.238  -0.813  0.00  0.00     0.005 C 
ENDBRANCH  62  64
ENDBRANCH  25  62
BRANCH  24  66
HETATM   66  O   UNK N   1      27.606  13.178   1.069  0.00  0.00    -0.393 OA
HETATM   67  H   UNK N   1      26.803  13.678   1.287  0.00  0.00     0.210 HD
ENDBRANCH  24  66
BRANCH  33  68
HETATM   68  C   UNK N   1      30.978  17.155   4.579  0.00  0.00     0.074 C 
BRANCH  68  69
HETATM   69  C   UNK N   1      31.918  17.370   5.723  0.00  0.00    -0.056 A 
HETATM   70  C   UNK N   1      33.278  17.483   5.439  0.00  0.00     0.010 A 
HETATM   71  C   UNK N   1      34.194  17.702   6.468  0.00  0.00     0.037 A 
HETATM   72  C   UNK N   1      33.754  17.806   7.799  0.00  0.00     0.068 A 
HETATM   73  C   UNK N   1      32.391  17.682   8.085  0.00  0.00     0.037 A 
HETATM   74  C   UNK N   1      31.476  17.465   7.053  0.00  0.00     0.010 A 
BRANCH  72  75
HETATM   75  O   UNK N   1      34.621  18.028   8.813  0.00  0.00    -0.356 OA
HETATM   76  C   UNK N   1      34.916  17.081   9.768  0.00  0.00     0.210 C 
ENDBRANCH  72  75
ENDBRANCH  68  69
ENDBRANCH  33  68
BRANCH  18  77
HETATM   77  C   UNK N   1      24.359  13.614   1.975  0.00  0.00     0.014 C 
HETATM   78  C   UNK N   1      24.835  14.764   1.110  0.00  0.00     0.012 C 
HETATM   79  C   UNK N   1      24.090  12.444   1.042  0.00  0.00     0.012 C 
ENDBRANCH  18  77
BRANCH  11  80
HETATM   80  C   UNK N   1      23.272  19.085   3.515  0.00  0.00     0.038 C 
BRANCH  80  81
HETATM   81  C   UNK N   1      21.793  18.832   3.844  0.00  0.00    -0.020 C 
HETATM   82  C   UNK N   1      20.931  20.045   3.549  0.00  0.00     0.009 C 
HETATM   83  C   UNK N   1      21.257  17.610   3.133  0.00  0.00     0.009 C 
ENDBRANCH  80  81
ENDBRANCH  11  80
TORSDOF 16
ENDMDL
MODEL 6
REMARK VINA RESULT:      -6.6      2.492     11.676
REMARK  16 active torsions:
REMARK  status: ('A' for Active; 'I' for Inactive)
REMARK    1  A    between atoms: C_11  and  C_13 
REMARK    2  A    between atoms: C_13  and  C_14 
REMARK    3  A    between atoms: C_22  and  C_24 
REMARK    4  A    between atoms: C_31  and  O_32 
REMARK    5  A    between atoms: C_33  and  C_34 
REMARK    6  A    between atoms: C_34  and  C_35 
REMARK    7  A    between atoms: C_39  and  N_41 
REMARK       I    between atoms: N_41  and  C_57 
REMARK    8  A    between atoms: C_46  and  C_47 
REMARK    9  A    between atoms: C_47  and  C_49 
REMARK   10  A    between atoms: C_52  and  O_55 
REMARK   11  A    between atoms: C_57  and  C_58 
REMARK   12  A    between atoms: C_58  and  C_60 
REMARK   13  A    between atoms: C_58  and  N_61 
REMARK   14  A    between atoms: C_60  and  C_63 
REMARK       I    between atoms: N_61  and  C_66 
REMARK   15  A    between atoms: C_67  and  C_66 
REMARK       I    between atoms: N_69  and  C_73 
REMARK   16  A    between atoms: C_73  and  C_75 
ROOT
HETATM    1  N   UNK N   1      28.319  17.053   4.927  0.00  0.00    -0.340 N 
HETATM    2  C   UNK N   1      27.972  16.693   6.282  0.00  0.00     0.153 C 
HETATM    3  C   UNK N   1      28.022  18.315   4.432  0.00  0.00     0.243 C 
HETATM    4  C   UNK N   1      27.380  19.380   5.332  0.00  0.00     0.179 C 
HETATM    5  O   UNK N   1      28.314  18.609   3.281  0.00  0.00    -0.271 OA
HETATM    6  C   UNK N   1      27.728  20.844   5.262  0.00  0.00     0.037 C 
HETATM    7  C   UNK N   1      26.623  21.471   6.171  0.00  0.00     0.022 C 
HETATM    8  C   UNK N   1      25.515  20.400   6.326  0.00  0.00     0.127 C 
HETATM    9  N   UNK N   1      25.952  19.426   5.380  0.00  0.00    -0.337 N 
HETATM   10  C   UNK N   1      25.106  18.962   4.421  0.00  0.00     0.243 C 
HETATM   11  C   UNK N   1      23.682  18.635   4.792  0.00  0.00     0.177 C 
HETATM   12  O   UNK N   1      25.537  18.625   3.329  0.00  0.00    -0.271 OA
HETATM   13  C   UNK N   1      24.109  16.185   4.597  0.00  0.00     0.229 C 
HETATM   14  C   UNK N   1      23.832  14.819   5.105  0.00  0.00     0.146 C 
HETATM   15  O   UNK N   1      24.712  16.314   3.543  0.00  0.00    -0.273 OA
HETATM   16  C   UNK N   1      22.348  14.525   5.036  0.00  0.00     0.028 C 
HETATM   17  C   UNK N   1      24.763  13.767   4.541  0.00  0.00     0.169 C 
HETATM   18  C   UNK N   1      24.483  12.884   3.336  0.00  0.00     0.205 C 
HETATM   19  O   UNK N   1      25.864  13.670   5.059  0.00  0.00    -0.294 OA
HETATM   20  O   UNK N   1      24.500  11.559   3.722  0.00  0.00    -0.308 OA
HETATM   21  C   UNK N   1      25.553  10.727   3.537  0.00  0.00     0.262 C 
HETATM   22  C   UNK N   1      26.831  11.185   2.912  0.00  0.00     0.144 C 
HETATM   23  O   UNK N   1      25.482   9.582   3.949  0.00  0.00    -0.265 OA
HETATM   24  C   UNK N   1      26.727  11.262   1.389  0.00  0.00     0.150 C 
HETATM   25  C   UNK N   1      28.090  11.003   0.735  0.00  0.00     0.117 C 
HETATM   26  C   UNK N   1      30.170  12.024   1.621  0.00  0.00     0.243 C 
HETATM   27  C   UNK N   1      30.456  12.323   3.074  0.00  0.00     0.205 C 
HETATM   28  O   UNK N   1      31.047  11.584   0.900  0.00  0.00    -0.271 OA
HETATM   29  C   UNK N   1      29.260  12.979   3.821  0.00  0.00     0.159 C 
HETATM   30  O   UNK N   1      28.505  13.885   3.068  0.00  0.00    -0.312 OA
HETATM   31  C   UNK N   1      28.289  15.226   3.219  0.00  0.00     0.282 C 
HETATM   32  O   UNK N   1      27.501  15.779   2.468  0.00  0.00    -0.263 OA
HETATM   33  C   UNK N   1      29.087  16.058   4.177  0.00  0.00     0.190 C 
HETATM   34  C   UNK N   1      29.615  13.415   5.235  0.00  0.00     0.042 C 
HETATM   35  N   UNK N   1      23.640  17.266   5.284  0.00  0.00    -0.347 N 
HETATM   36  N   UNK N   1      28.915  12.122   1.154  0.00  0.00    -0.352 N 
HETATM   37  H   UNK N   1      23.248  17.110   6.175  0.00  0.00     0.163 HD
HETATM   38  H   UNK N   1      28.523  13.023   1.093  0.00  0.00     0.163 HD
ENDROOT
BRANCH  27  39
HETATM   39  N   UNK N   1      30.709  11.045   3.721  0.00  0.00    -0.344 N 
HETATM   40  C   UNK N   1      31.914  10.484   4.024  0.00  0.00     0.241 C 
HETATM   41  O   UNK N   1      31.929   9.372   4.527  0.00  0.00    -0.271 OA
HETATM   42  H   UNK N   1      29.913  10.522   3.971  0.00  0.00     0.163 HD
BRANCH  40  43
HETATM   43  C   UNK N   1      33.235  11.187   3.851  0.00  0.00     0.179 C 
BRANCH  43  44
HETATM   44  C   UNK N   1      33.917  11.193   2.475  0.00  0.00     0.039 C 
BRANCH  44  45
HETATM   45  C   UNK N   1      35.379  10.753   2.473  0.00  0.00    -0.020 C 
HETATM   46  C   UNK N   1      35.699   9.888   3.675  0.00  0.00     0.009 C 
HETATM   47  C   UNK N   1      36.343  11.919   2.379  0.00  0.00     0.009 C 
ENDBRANCH  44  45
ENDBRANCH  43  44
BRANCH  43  48
HETATM   48  N   UNK N   1      33.349  12.393   4.649  0.00  0.00    -0.341 N 
HETATM   49  C   UNK N   1      33.344  13.647   3.938  0.00  0.00     0.153 C 
HETATM   50  C   UNK N   1      33.501  12.347   6.013  0.00  0.00     0.243 C 
HETATM   51  O   UNK N   1      33.466  11.280   6.604  0.00  0.00    -0.271 OA
BRANCH  50  52
HETATM   52  C   UNK N   1      33.700  13.591   6.843  0.00  0.00     0.179 C 
HETATM   53  N   UNK N   1      34.827  13.509   7.735  0.00  0.00    -0.332 N 
HETATM   54  C   UNK N   1      34.505  13.854   9.097  0.00  0.00     0.127 C 
HETATM   55  C   UNK N   1      36.075  13.115   7.330  0.00  0.00     0.289 C 
HETATM   56  C   UNK N   1      33.048  14.280   9.075  0.00  0.00     0.022 C 
HETATM   57  C   UNK N   1      32.493  13.830   7.732  0.00  0.00     0.037 C 
HETATM   58  O   UNK N   1      36.247  12.798   6.154  0.00  0.00    -0.264 OA
BRANCH  55  59
HETATM   59  C   UNK N   1      37.250  13.013   8.242  0.00  0.00     0.212 C 
HETATM   60  O   UNK N   1      37.796  14.032   8.625  0.00  0.00    -0.288 OA
HETATM   61  C   UNK N   1      37.779  11.705   8.738  0.00  0.00     0.102 C 
ENDBRANCH  55  59
ENDBRANCH  50  52
ENDBRANCH  43  48
ENDBRANCH  40  43
ENDBRANCH  27  39
BRANCH  25  62
HETATM   62  C   UNK N   1      28.626   9.607   1.190  0.00  0.00     0.006 C 
HETATM   63  C   UNK N   1      27.503   8.591   1.356  0.00  0.00     0.012 C 
BRANCH  62  64
HETATM   64  C   UNK N   1      29.665   9.014   0.249  0.00  0.00     0.002 C 
HETATM   65  C   UNK N   1      29.287   9.281  -1.197  0.00  0.00     0.005 C 
ENDBRANCH  62  64
ENDBRANCH  25  62
BRANCH  24  66
HETATM   66  O   UNK N   1      26.280  12.530   1.014  0.00  0.00    -0.393 OA
HETATM   67  H   UNK N   1      26.257  13.378   1.485  0.00  0.00     0.210 HD
ENDBRANCH  24  66
BRANCH  33  68
HETATM   68  C   UNK N   1      30.348  16.611   3.524  0.00  0.00     0.074 C 
BRANCH  68  69
HETATM   69  C   UNK N   1      31.468  16.919   4.468  0.00  0.00    -0.056 A 
HETATM   70  C   UNK N   1      32.700  17.279   3.925  0.00  0.00     0.010 A 
HETATM   71  C   UNK N   1      33.771  17.593   4.762  0.00  0.00     0.037 A 
HETATM   72  C   UNK N   1      33.618  17.544   6.158  0.00  0.00     0.068 A 
HETATM   73  C   UNK N   1      32.385  17.172   6.703  0.00  0.00     0.037 A 
HETATM   74  C   UNK N   1      31.314  16.860   5.863  0.00  0.00     0.010 A 
BRANCH  72  75
HETATM   75  O   UNK N   1      34.638  17.853   6.991  0.00  0.00    -0.356 OA
HETATM   76  C   UNK N   1      34.445  18.300   8.279  0.00  0.00     0.210 C 
ENDBRANCH  72  75
ENDBRANCH  68  69
ENDBRANCH  33  68
BRANCH  18  77
HETATM   77  C   UNK N   1      23.265  13.179   2.440  0.00  0.00     0.014 C 
HETATM   78  C   UNK N   1      23.647  14.139   1.331  0.00  0.00     0.012 C 
HETATM   79  C   UNK N   1      22.718  11.929   1.770  0.00  0.00     0.012 C 
ENDBRANCH  18  77
BRANCH  11  80
HETATM   80  C   UNK N   1      22.638  18.797   3.682  0.00  0.00     0.038 C 
BRANCH  80  81
HETATM   81  C   UNK N   1      21.254  18.984   4.322  0.00  0.00    -0.020 C 
HETATM   82  C   UNK N   1      20.484  20.124   3.681  0.00  0.00     0.009 C 
HETATM   83  C   UNK N   1      20.442  17.710   4.296  0.00  0.00     0.009 C 
ENDBRANCH  80  81
ENDBRANCH  11  80
TORSDOF 16
ENDMDL
MODEL 7
REMARK VINA RESULT:      -6.5      2.981     11.526
REMARK  16 active torsions:
REMARK  status: ('A' for Active; 'I' for Inactive)
REMARK    1  A    between atoms: C_11  and  C_13 
REMARK    2  A    between atoms: C_13  and  C_14 
REMARK    3  A    between atoms: C_22  and  C_24 
REMARK    4  A    between atoms: C_31  and  O_32 
REMARK    5  A    between atoms: C_33  and  C_34 
REMARK    6  A    between atoms: C_34  and  C_35 
REMARK    7  A    between atoms: C_39  and  N_41 
REMARK       I    between atoms: N_41  and  C_57 
REMARK    8  A    between atoms: C_46  and  C_47 
REMARK    9  A    between atoms: C_47  and  C_49 
REMARK   10  A    between atoms: C_52  and  O_55 
REMARK   11  A    between atoms: C_57  and  C_58 
REMARK   12  A    between atoms: C_58  and  C_60 
REMARK   13  A    between atoms: C_58  and  N_61 
REMARK   14  A    between atoms: C_60  and  C_63 
REMARK       I    between atoms: N_61  and  C_66 
REMARK   15  A    between atoms: C_67  and  C_66 
REMARK       I    between atoms: N_69  and  C_73 
REMARK   16  A    between atoms: C_73  and  C_75 
ROOT
HETATM    1  N   UNK N   1      25.563  16.121   4.414  0.00  0.00    -0.340 N 
HETATM    2  C   UNK N   1      25.100  15.612   5.684  0.00  0.00     0.153 C 
HETATM    3  C   UNK N   1      24.741  16.920   3.630  0.00  0.00     0.243 C 
HETATM    4  C   UNK N   1      23.348  17.336   4.125  0.00  0.00     0.179 C 
HETATM    5  O   UNK N   1      25.139  17.341   2.553  0.00  0.00    -0.271 OA
HETATM    6  C   UNK N   1      22.748  18.693   3.865  0.00  0.00     0.037 C 
HETATM    7  C   UNK N   1      21.275  18.479   4.336  0.00  0.00     0.022 C 
HETATM    8  C   UNK N   1      21.052  16.947   4.414  0.00  0.00     0.127 C 
HETATM    9  N   UNK N   1      22.253  16.473   3.808  0.00  0.00    -0.337 N 
HETATM   10  C   UNK N   1      22.208  15.588   2.776  0.00  0.00     0.243 C 
HETATM   11  C   UNK N   1      21.238  14.435   2.838  0.00  0.00     0.177 C 
HETATM   12  O   UNK N   1      23.068  15.606   1.909  0.00  0.00    -0.271 OA
HETATM   13  C   UNK N   1      23.083  12.801   3.224  0.00  0.00     0.229 C 
HETATM   14  C   UNK N   1      23.540  11.561   3.898  0.00  0.00     0.146 C 
HETATM   15  O   UNK N   1      23.779  13.290   2.347  0.00  0.00    -0.273 OA
HETATM   16  C   UNK N   1      22.644  10.400   3.522  0.00  0.00     0.028 C 
HETATM   17  C   UNK N   1      25.033  11.333   3.793  0.00  0.00     0.169 C 
HETATM   18  C   UNK N   1      25.732  10.480   2.747  0.00  0.00     0.205 C 
HETATM   19  O   UNK N   1      25.741  11.947   4.575  0.00  0.00    -0.294 OA
HETATM   20  O   UNK N   1      26.418   9.458   3.369  0.00  0.00    -0.308 OA
HETATM   21  C   UNK N   1      27.751   9.476   3.612  0.00  0.00     0.262 C 
HETATM   22  C   UNK N   1      28.613  10.641   3.248  0.00  0.00     0.144 C 
HETATM   23  O   UNK N   1      28.257   8.537   4.204  0.00  0.00    -0.265 OA
HETATM   24  C   UNK N   1      28.965  10.647   1.760  0.00  0.00     0.150 C 
HETATM   25  C   UNK N   1      30.329  11.309   1.525  0.00  0.00     0.117 C 
HETATM   26  C   UNK N   1      30.974  13.404   2.687  0.00  0.00     0.243 C 
HETATM   27  C   UNK N   1      30.552  13.805   4.081  0.00  0.00     0.205 C 
HETATM   28  O   UNK N   1      32.108  13.619   2.303  0.00  0.00    -0.271 OA
HETATM   29  C   UNK N   1      29.044  13.555   4.370  0.00  0.00     0.159 C 
HETATM   30  O   UNK N   1      28.179  13.791   3.296  0.00  0.00    -0.312 OA
HETATM   31  C   UNK N   1      27.168  14.696   3.131  0.00  0.00     0.282 C 
HETATM   32  O   UNK N   1      26.491  14.637   2.118  0.00  0.00    -0.263 OA
HETATM   33  C   UNK N   1      26.959  15.837   4.080  0.00  0.00     0.190 C 
HETATM   34  C   UNK N   1      28.603  14.107   5.719  0.00  0.00     0.042 C 
HETATM   35  N   UNK N   1      21.875  13.341   3.556  0.00  0.00    -0.347 N 
HETATM   36  N   UNK N   1      30.135  12.695   1.914  0.00  0.00    -0.352 N 
HETATM   37  H   UNK N   1      21.402  12.965   4.335  0.00  0.00     0.163 HD
HETATM   38  H   UNK N   1      29.325  13.149   1.588  0.00  0.00     0.163 HD
ENDROOT
BRANCH  27  39
HETATM   39  N   UNK N   1      31.303  12.965   5.002  0.00  0.00    -0.344 N 
HETATM   40  C   UNK N   1      32.150  13.360   5.994  0.00  0.00     0.241 C 
HETATM   41  O   UNK N   1      32.734  12.502   6.637  0.00  0.00    -0.271 OA
HETATM   42  H   UNK N   1      31.184  11.994   4.895  0.00  0.00     0.163 HD
BRANCH  40  43
HETATM   43  C   UNK N   1      32.353  14.795   6.403  0.00  0.00     0.179 C 
BRANCH  43  44
HETATM   44  C   UNK N   1      31.161  15.612   6.922  0.00  0.00     0.039 C 
BRANCH  44  45
HETATM   45  C   UNK N   1      31.185  17.096   6.564  0.00  0.00    -0.020 C 
HETATM   46  C   UNK N   1      31.736  17.321   5.171  0.00  0.00     0.009 C 
HETATM   47  C   UNK N   1      31.937  17.933   7.580  0.00  0.00     0.009 C 
ENDBRANCH  44  45
ENDBRANCH  43  44
BRANCH  43  48
HETATM   48  N   UNK N   1      33.639  15.035   7.029  0.00  0.00    -0.341 N 
HETATM   49  C   UNK N   1      34.751  15.297   6.151  0.00  0.00     0.153 C 
HETATM   50  C   UNK N   1      33.804  14.973   8.390  0.00  0.00     0.243 C 
HETATM   51  O   UNK N   1      32.846  14.787   9.123  0.00  0.00    -0.271 OA
BRANCH  50  52
HETATM   52  C   UNK N   1      35.153  15.142   9.046  0.00  0.00     0.179 C 
HETATM   53  N   UNK N   1      35.480  14.084   9.965  0.00  0.00    -0.332 N 
HETATM   54  C   UNK N   1      35.900  14.557  11.259  0.00  0.00     0.127 C 
HETATM   55  C   UNK N   1      35.374  12.755   9.643  0.00  0.00     0.289 C 
HETATM   56  C   UNK N   1      35.928  16.071  11.148  0.00  0.00     0.022 C 
HETATM   57  C   UNK N   1      35.182  16.418   9.868  0.00  0.00     0.037 C 
HETATM   58  O   UNK N   1      34.966  12.443   8.526  0.00  0.00    -0.264 OA
BRANCH  55  59
HETATM   59  C   UNK N   1      35.697  11.645  10.585  0.00  0.00     0.212 C 
HETATM   60  O   UNK N   1      36.839  11.226  10.641  0.00  0.00    -0.288 OA
HETATM   61  C   UNK N   1      34.681  11.036  11.497  0.00  0.00     0.102 C 
ENDBRANCH  55  59
ENDBRANCH  50  52
ENDBRANCH  43  48
ENDBRANCH  40  43
ENDBRANCH  27  39
BRANCH  25  62
HETATM   62  C   UNK N   1      31.420  10.557   2.355  0.00  0.00     0.006 C 
HETATM   63  C   UNK N   1      31.143   9.061   2.438  0.00  0.00     0.012 C 
BRANCH  62  64
HETATM   64  C   UNK N   1      32.833  10.748   1.824  0.00  0.00     0.002 C 
HETATM   65  C   UNK N   1      32.832  10.762   0.306  0.00  0.00     0.005 C 
ENDBRANCH  62  64
ENDBRANCH  25  62
BRANCH  24  66
HETATM   66  O   UNK N   1      27.993  11.355   1.052  0.00  0.00    -0.393 OA
HETATM   67  H   UNK N   1      27.265  11.928   1.341  0.00  0.00     0.210 HD
ENDBRANCH  24  66
BRANCH  33  68
HETATM   68  C   UNK N   1      27.760  17.066   3.667  0.00  0.00     0.074 C 
BRANCH  68  69
HETATM   69  C   UNK N   1      27.610  18.253   4.565  0.00  0.00    -0.056 A 
HETATM   70  C   UNK N   1      27.221  19.462   3.992  0.00  0.00     0.010 A 
HETATM   71  C   UNK N   1      27.049  20.594   4.788  0.00  0.00     0.037 A 
HETATM   72  C   UNK N   1      27.270  20.526   6.174  0.00  0.00     0.068 A 
HETATM   73  C   UNK N   1      27.669  19.315   6.749  0.00  0.00     0.037 A 
HETATM   74  C   UNK N   1      27.839  18.184   5.950  0.00  0.00     0.010 A 
BRANCH  72  75
HETATM   75  O   UNK N   1      27.100  21.607   6.970  0.00  0.00    -0.356 OA
HETATM   76  C   UNK N   1      25.990  21.785   7.765  0.00  0.00     0.210 C 
ENDBRANCH  72  75
ENDBRANCH  68  69
ENDBRANCH  33  68
BRANCH  18  77
HETATM   77  C   UNK N   1      24.936   9.951   1.538  0.00  0.00     0.014 C 
HETATM   78  C   UNK N   1      24.823  11.022   0.472  0.00  0.00     0.012 C 
HETATM   79  C   UNK N   1      25.599   8.749   0.885  0.00  0.00     0.012 C 
ENDBRANCH  18  77
BRANCH  11  80
HETATM   80  C   UNK N   1      20.718  13.914   1.495  0.00  0.00     0.038 C 
BRANCH  80  81
HETATM   81  C   UNK N   1      19.389  14.611   1.169  0.00  0.00    -0.020 C 
HETATM   82  C   UNK N   1      19.600  15.905   0.406  0.00  0.00     0.009 C 
HETATM   83  C   UNK N   1      18.440  13.699   0.424  0.00  0.00     0.009 C 
ENDBRANCH  80  81
ENDBRANCH  11  80
TORSDOF 16
ENDMDL
MODEL 8
REMARK VINA RESULT:      -6.5      5.663     11.551
REMARK  16 active torsions:
REMARK  status: ('A' for Active; 'I' for Inactive)
REMARK    1  A    between atoms: C_11  and  C_13 
REMARK    2  A    between atoms: C_13  and  C_14 
REMARK    3  A    between atoms: C_22  and  C_24 
REMARK    4  A    between atoms: C_31  and  O_32 
REMARK    5  A    between atoms: C_33  and  C_34 
REMARK    6  A    between atoms: C_34  and  C_35 
REMARK    7  A    between atoms: C_39  and  N_41 
REMARK       I    between atoms: N_41  and  C_57 
REMARK    8  A    between atoms: C_46  and  C_47 
REMARK    9  A    between atoms: C_47  and  C_49 
REMARK   10  A    between atoms: C_52  and  O_55 
REMARK   11  A    between atoms: C_57  and  C_58 
REMARK   12  A    between atoms: C_58  and  C_60 
REMARK   13  A    between atoms: C_58  and  N_61 
REMARK   14  A    between atoms: C_60  and  C_63 
REMARK       I    between atoms: N_61  and  C_66 
REMARK   15  A    between atoms: C_67  and  C_66 
REMARK       I    between atoms: N_69  and  C_73 
REMARK   16  A    between atoms: C_73  and  C_75 
ROOT
HETATM    1  N   UNK N   1      33.789   8.894   8.598  0.00  0.00    -0.340 N 
HETATM    2  C   UNK N   1      34.844   8.224   7.874  0.00  0.00     0.153 C 
HETATM    3  C   UNK N   1      33.539   8.589   9.929  0.00  0.00     0.243 C 
HETATM    4  C   UNK N   1      34.421   7.582  10.682  0.00  0.00     0.179 C 
HETATM    5  O   UNK N   1      32.639   9.156  10.532  0.00  0.00    -0.271 OA
HETATM    6  C   UNK N   1      34.810   7.741  12.129  0.00  0.00     0.037 C 
HETATM    7  C   UNK N   1      35.453   6.351  12.434  0.00  0.00     0.022 C 
HETATM    8  C   UNK N   1      35.000   5.395  11.302  0.00  0.00     0.127 C 
HETATM    9  N   UNK N   1      34.034   6.207  10.638  0.00  0.00    -0.337 N 
HETATM   10  C   UNK N   1      32.779   5.739  10.401  0.00  0.00     0.243 C 
HETATM   11  C   UNK N   1      32.601   4.324   9.913  0.00  0.00     0.177 C 
HETATM   12  O   UNK N   1      31.826   6.504  10.388  0.00  0.00    -0.271 OA
HETATM   13  C   UNK N   1      31.975   5.105   7.628  0.00  0.00     0.229 C 
HETATM   14  C   UNK N   1      32.035   4.875   6.164  0.00  0.00     0.146 C 
HETATM   15  O   UNK N   1      31.222   5.962   8.064  0.00  0.00    -0.273 OA
HETATM   16  C   UNK N   1      31.442   3.524   5.821  0.00  0.00     0.028 C 
HETATM   17  C   UNK N   1      31.555   6.058   5.349  0.00  0.00     0.169 C 
HETATM   18  C   UNK N   1      30.150   6.251   4.803  0.00  0.00     0.205 C 
HETATM   19  O   UNK N   1      32.350   6.967   5.177  0.00  0.00    -0.294 OA
HETATM   20  O   UNK N   1      30.197   6.330   3.426  0.00  0.00    -0.308 OA
HETATM   21  C   UNK N   1      30.157   7.491   2.730  0.00  0.00     0.262 C 
HETATM   22  C   UNK N   1      30.086   8.823   3.404  0.00  0.00     0.144 C 
HETATM   23  O   UNK N   1      30.243   7.455   1.514  0.00  0.00    -0.265 OA
HETATM   24  C   UNK N   1      28.669   9.150   3.875  0.00  0.00     0.150 C 
HETATM   25  C   UNK N   1      28.427  10.665   3.871  0.00  0.00     0.117 C 
HETATM   26  C   UNK N   1      30.129  12.253   4.729  0.00  0.00     0.243 C 
HETATM   27  C   UNK N   1      31.627  12.070   4.647  0.00  0.00     0.205 C 
HETATM   28  O   UNK N   1      29.633  13.348   4.543  0.00  0.00    -0.271 OA
HETATM   29  C   UNK N   1      32.099  10.635   5.018  0.00  0.00     0.159 C 
HETATM   30  O   UNK N   1      31.386  10.015   6.050  0.00  0.00    -0.312 OA
HETATM   31  C   UNK N   1      31.774   9.592   7.290  0.00  0.00     0.282 C 
HETATM   32  O   UNK N   1      30.970   8.987   7.980  0.00  0.00    -0.263 OA
HETATM   33  C   UNK N   1      33.100   9.967   7.879  0.00  0.00     0.190 C 
HETATM   34  C   UNK N   1      33.614  10.511   5.082  0.00  0.00     0.042 C 
HETATM   35  N   UNK N   1      32.719   4.322   8.462  0.00  0.00    -0.347 N 
HETATM   36  N   UNK N   1      29.334  11.182   4.881  0.00  0.00    -0.352 N 
HETATM   37  H   UNK N   1      33.380   3.716   8.055  0.00  0.00     0.163 HD
HETATM   38  H   UNK N   1      29.369  10.710   5.744  0.00  0.00     0.163 HD
ENDROOT
BRANCH  27  39
HETATM   39  N   UNK N   1      31.999  12.292   3.259  0.00  0.00    -0.344 N 
HETATM   40  C   UNK N   1      32.874  13.212   2.763  0.00  0.00     0.241 C 
HETATM   41  O   UNK N   1      33.022  13.283   1.554  0.00  0.00    -0.271 OA
HETATM   42  H   UNK N   1      31.567  11.706   2.596  0.00  0.00     0.163 HD
BRANCH  40  43
HETATM   43  C   UNK N   1      33.735  14.099   3.623  0.00  0.00     0.179 C 
BRANCH  43  44
HETATM   44  C   UNK N   1      35.242  14.197   3.343  0.00  0.00     0.039 C 
BRANCH  44  45
HETATM   45  C   UNK N   1      36.136  13.444   4.326  0.00  0.00    -0.020 C 
HETATM   46  C   UNK N   1      36.640  14.355   5.426  0.00  0.00     0.009 C 
HETATM   47  C   UNK N   1      37.291  12.735   3.645  0.00  0.00     0.009 C 
ENDBRANCH  44  45
ENDBRANCH  43  44
BRANCH  43  48
HETATM   48  N   UNK N   1      33.063  15.313   4.045  0.00  0.00    -0.341 N 
HETATM   49  C   UNK N   1      32.907  16.349   3.055  0.00  0.00     0.153 C 
HETATM   50  C   UNK N   1      32.633  15.491   5.337  0.00  0.00     0.243 C 
HETATM   51  O   UNK N   1      32.738  14.591   6.154  0.00  0.00    -0.271 OA
BRANCH  50  52
HETATM   52  C   UNK N   1      32.004  16.780   5.806  0.00  0.00     0.179 C 
HETATM   53  N   UNK N   1      32.618  17.320   6.990  0.00  0.00    -0.332 N 
HETATM   54  C   UNK N   1      31.674  17.641   8.030  0.00  0.00     0.127 C 
HETATM   55  C   UNK N   1      33.973  17.484   7.122  0.00  0.00     0.289 C 
HETATM   56  C   UNK N   1      30.305  17.361   7.437  0.00  0.00     0.022 C 
HETATM   57  C   UNK N   1      30.548  16.554   6.169  0.00  0.00     0.037 C 
HETATM   58  O   UNK N   1      34.708  17.142   6.197  0.00  0.00    -0.264 OA
BRANCH  55  59
HETATM   59  C   UNK N   1      34.628  18.029   8.345  0.00  0.00     0.212 C 
HETATM   60  O   UNK N   1      34.989  19.192   8.358  0.00  0.00    -0.288 OA
HETATM   61  C   UNK N   1      34.839  17.215   9.582  0.00  0.00     0.102 C 
ENDBRANCH  55  59
ENDBRANCH  50  52
ENDBRANCH  43  48
ENDBRANCH  40  43
ENDBRANCH  27  39
BRANCH  25  62
HETATM   62  C   UNK N   1      28.683  11.226   2.434  0.00  0.00     0.006 C 
HETATM   63  C   UNK N   1      28.237  10.249   1.353  0.00  0.00     0.012 C 
BRANCH  62  64
HETATM   64  C   UNK N   1      28.006  12.563   2.171  0.00  0.00     0.002 C 
HETATM   65  C   UNK N   1      26.537  12.361   1.845  0.00  0.00     0.005 C 
ENDBRANCH  62  64
ENDBRANCH  25  62
BRANCH  24  66
HETATM   66  O   UNK N   1      28.485   8.668   5.172  0.00  0.00    -0.393 OA
HETATM   67  H   UNK N   1      28.113   9.073   5.971  0.00  0.00     0.210 HD
ENDBRANCH  24  66
BRANCH  33  68
HETATM   68  C   UNK N   1      33.021  11.279   8.651  0.00  0.00     0.074 C 
BRANCH  68  69
HETATM   69  C   UNK N   1      34.337  11.832   9.099  0.00  0.00    -0.056 A 
HETATM   70  C   UNK N   1      35.316  12.055   8.132  0.00  0.00     0.010 A 
HETATM   71  C   UNK N   1      36.553  12.586   8.494  0.00  0.00     0.037 A 
HETATM   72  C   UNK N   1      36.826  12.895   9.838  0.00  0.00     0.068 A 
HETATM   73  C   UNK N   1      35.848  12.661  10.810  0.00  0.00     0.037 A 
HETATM   74  C   UNK N   1      34.610  12.132  10.444  0.00  0.00     0.010 A 
BRANCH  72  75
HETATM   75  O   UNK N   1      38.015  13.420  10.214  0.00  0.00    -0.356 OA
HETATM   76  C   UNK N   1      38.771  14.226   9.394  0.00  0.00     0.210 C 
ENDBRANCH  72  75
ENDBRANCH  68  69
ENDBRANCH  33  68
BRANCH  18  77
HETATM   77  C   UNK N   1      29.017   5.312   5.261  0.00  0.00     0.014 C 
HETATM   78  C   UNK N   1      28.387   5.830   6.538  0.00  0.00     0.012 C 
HETATM   79  C   UNK N   1      27.902   5.202   4.234  0.00  0.00     0.012 C 
ENDBRANCH  18  77
BRANCH  11  80
HETATM   80  C   UNK N   1      31.294   3.629  10.307  0.00  0.00     0.038 C 
BRANCH  80  81
HETATM   81  C   UNK N   1      31.519   2.844  11.609  0.00  0.00    -0.020 C 
HETATM   82  C   UNK N   1      32.930   2.294  11.702  0.00  0.00     0.009 C 
HETATM   83  C   UNK N   1      31.185   3.668  12.831  0.00  0.00     0.009 C 
ENDBRANCH  80  81
ENDBRANCH  11  80
TORSDOF 16
ENDMDL
MODEL 9
REMARK VINA RESULT:      -6.5      2.300     11.437
REMARK  16 active torsions:
REMARK  status: ('A' for Active; 'I' for Inactive)
REMARK    1  A    between atoms: C_11  and  C_13 
REMARK    2  A    between atoms: C_13  and  C_14 
REMARK    3  A    between atoms: C_22  and  C_24 
REMARK    4  A    between atoms: C_31  and  O_32 
REMARK    5  A    between atoms: C_33  and  C_34 
REMARK    6  A    between atoms: C_34  and  C_35 
REMARK    7  A    between atoms: C_39  and  N_41 
REMARK       I    between atoms: N_41  and  C_57 
REMARK    8  A    between atoms: C_46  and  C_47 
REMARK    9  A    between atoms: C_47  and  C_49 
REMARK   10  A    between atoms: C_52  and  O_55 
REMARK   11  A    between atoms: C_57  and  C_58 
REMARK   12  A    between atoms: C_58  and  C_60 
REMARK   13  A    between atoms: C_58  and  N_61 
REMARK   14  A    between atoms: C_60  and  C_63 
REMARK       I    between atoms: N_61  and  C_66 
REMARK   15  A    between atoms: C_67  and  C_66 
REMARK       I    between atoms: N_69  and  C_73 
REMARK   16  A    between atoms: C_73  and  C_75 
ROOT
HETATM    1  N   UNK N   1      28.250  16.358   4.591  0.00  0.00    -0.340 N 
HETATM    2  C   UNK N   1      27.916  16.070   5.967  0.00  0.00     0.153 C 
HETATM    3  C   UNK N   1      28.091  17.638   4.078  0.00  0.00     0.243 C 
HETATM    4  C   UNK N   1      27.621  18.791   4.976  0.00  0.00     0.179 C 
HETATM    5  O   UNK N   1      28.369  17.871   2.910  0.00  0.00    -0.271 OA
HETATM    6  C   UNK N   1      28.143  20.199   4.858  0.00  0.00     0.037 C 
HETATM    7  C   UNK N   1      27.162  20.976   5.792  0.00  0.00     0.022 C 
HETATM    8  C   UNK N   1      25.937  20.053   6.015  0.00  0.00     0.127 C 
HETATM    9  N   UNK N   1      26.213  19.015   5.077  0.00  0.00    -0.337 N 
HETATM   10  C   UNK N   1      25.278  18.640   4.162  0.00  0.00     0.243 C 
HETATM   11  C   UNK N   1      23.841  18.500   4.593  0.00  0.00     0.177 C 
HETATM   12  O   UNK N   1      25.619  18.232   3.062  0.00  0.00    -0.271 OA
HETATM   13  C   UNK N   1      23.955  16.013   4.442  0.00  0.00     0.229 C 
HETATM   14  C   UNK N   1      23.533  14.701   4.993  0.00  0.00     0.146 C 
HETATM   15  O   UNK N   1      24.526  16.046   3.363  0.00  0.00    -0.273 OA
HETATM   16  C   UNK N   1      22.022  14.593   4.987  0.00  0.00     0.028 C 
HETATM   17  C   UNK N   1      24.304  13.531   4.419  0.00  0.00     0.169 C 
HETATM   18  C   UNK N   1      23.868  12.667   3.247  0.00  0.00     0.205 C 
HETATM   19  O   UNK N   1      25.405  13.309   4.897  0.00  0.00    -0.294 OA
HETATM   20  O   UNK N   1      23.738  11.358   3.664  0.00  0.00    -0.308 OA
HETATM   21  C   UNK N   1      24.672  10.399   3.459  0.00  0.00     0.262 C 
HETATM   22  C   UNK N   1      25.970  10.683   2.776  0.00  0.00     0.144 C 
HETATM   23  O   UNK N   1      24.477   9.279   3.901  0.00  0.00    -0.265 OA
HETATM   24  C   UNK N   1      25.815  10.742   1.256  0.00  0.00     0.150 C 
HETATM   25  C   UNK N   1      27.109  10.304   0.557  0.00  0.00     0.117 C 
HETATM   26  C   UNK N   1      29.333  11.076   1.340  0.00  0.00     0.243 C 
HETATM   27  C   UNK N   1      29.712  11.366   2.773  0.00  0.00     0.205 C 
HETATM   28  O   UNK N   1      30.118  10.518   0.597  0.00  0.00    -0.271 OA
HETATM   29  C   UNK N   1      28.636  12.179   3.549  0.00  0.00     0.159 C 
HETATM   30  O   UNK N   1      27.969  13.157   2.803  0.00  0.00    -0.312 OA
HETATM   31  C   UNK N   1      27.926  14.517   2.930  0.00  0.00     0.282 C 
HETATM   32  O   UNK N   1      27.182  15.149   2.196  0.00  0.00    -0.263 OA
HETATM   33  C   UNK N   1      28.858  15.261   3.837  0.00  0.00     0.190 C 
HETATM   34  C   UNK N   1      29.099  12.595   4.937  0.00  0.00     0.042 C 
HETATM   35  N   UNK N   1      23.651  17.157   5.120  0.00  0.00    -0.347 N 
HETATM   36  N   UNK N   1      28.081  11.320   0.918  0.00  0.00    -0.352 N 
HETATM   37  H   UNK N   1      23.279  17.067   6.028  0.00  0.00     0.163 HD
HETATM   38  H   UNK N   1      27.801  12.262   0.850  0.00  0.00     0.163 HD
ENDROOT
BRANCH  27  39
HETATM   39  N   UNK N   1      29.831  10.079   3.441  0.00  0.00    -0.344 N 
HETATM   40  C   UNK N   1      30.968   9.459   3.867  0.00  0.00     0.241 C 
HETATM   41  O   UNK N   1      30.875   8.349   4.366  0.00  0.00    -0.271 OA
HETATM   42  H   UNK N   1      28.989   9.597   3.606  0.00  0.00     0.163 HD
BRANCH  40  43
HETATM   43  C   UNK N   1      32.334  10.094   3.833  0.00  0.00     0.179 C 
BRANCH  43  44
HETATM   44  C   UNK N   1      33.268   9.950   5.043  0.00  0.00     0.039 C 
BRANCH  44  45
HETATM   45  C   UNK N   1      33.984  11.231   5.467  0.00  0.00    -0.020 C 
HETATM   46  C   UNK N   1      35.118  10.938   6.429  0.00  0.00     0.009 C 
HETATM   47  C   UNK N   1      33.041  12.265   6.048  0.00  0.00     0.009 C 
ENDBRANCH  44  45
ENDBRANCH  43  44
BRANCH  43  48
HETATM   48  N   UNK N   1      32.947  10.062   2.519  0.00  0.00    -0.341 N 
HETATM   49  C   UNK N   1      33.221   8.762   1.960  0.00  0.00     0.153 C 
HETATM   50  C   UNK N   1      33.292  11.211   1.852  0.00  0.00     0.243 C 
HETATM   51  O   UNK N   1      33.020  12.304   2.321  0.00  0.00    -0.271 OA
BRANCH  50  52
HETATM   52  C   UNK N   1      34.002  11.188   0.521  0.00  0.00     0.179 C 
HETATM   53  N   UNK N   1      35.254  11.898   0.526  0.00  0.00    -0.332 N 
HETATM   54  C   UNK N   1      35.377  12.850  -0.548  0.00  0.00     0.127 C 
HETATM   55  C   UNK N   1      36.220  11.703   1.479  0.00  0.00     0.289 C 
HETATM   56  C   UNK N   1      34.119  12.687  -1.382  0.00  0.00     0.022 C 
HETATM   57  C   UNK N   1      33.154  11.865  -0.540  0.00  0.00     0.037 C 
HETATM   58  O   UNK N   1      36.010  10.898   2.385  0.00  0.00    -0.264 OA
BRANCH  55  59
HETATM   59  C   UNK N   1      37.517  12.438   1.508  0.00  0.00     0.212 C 
HETATM   60  O   UNK N   1      37.619  13.438   2.196  0.00  0.00    -0.288 OA
HETATM   61  C   UNK N   1      38.722  11.984   0.747  0.00  0.00     0.102 C 
ENDBRANCH  55  59
ENDBRANCH  50  52
ENDBRANCH  43  48
ENDBRANCH  40  43
ENDBRANCH  27  39
BRANCH  25  62
HETATM   62  C   UNK N   1      27.487   8.861   1.025  0.00  0.00     0.006 C 
HETATM   63  C   UNK N   1      26.255   7.990   1.239  0.00  0.00     0.012 C 
BRANCH  62  64
HETATM   64  C   UNK N   1      28.421   8.134   0.070  0.00  0.00     0.002 C 
HETATM   65  C   UNK N   1      27.892   8.209  -1.351  0.00  0.00     0.005 C 
ENDBRANCH  62  64
ENDBRANCH  25  62
BRANCH  24  66
HETATM   66  O   UNK N   1      25.513  12.049   0.868  0.00  0.00    -0.393 OA
HETATM   67  H   UNK N   1      25.928  12.651   0.231  0.00  0.00     0.210 HD
ENDBRANCH  24  66
BRANCH  33  68
HETATM   68  C   UNK N   1      30.151  15.642   3.123  0.00  0.00     0.074 C 
BRANCH  68  69
HETATM   69  C   UNK N   1      31.251  16.119   4.018  0.00  0.00    -0.056 A 
HETATM   70  C   UNK N   1      32.033  17.187   3.580  0.00  0.00     0.010 A 
HETATM   71  C   UNK N   1      33.059  17.682   4.383  0.00  0.00     0.037 A 
HETATM   72  C   UNK N   1      33.318  17.106   5.639  0.00  0.00     0.068 A 
HETATM   73  C   UNK N   1      32.540  16.028   6.074  0.00  0.00     0.037 A 
HETATM   74  C   UNK N   1      31.512  15.536   5.269  0.00  0.00     0.010 A 
BRANCH  72  75
HETATM   75  O   UNK N   1      34.301  17.574   6.441  0.00  0.00    -0.356 OA
HETATM   76  C   UNK N   1      34.089  17.938   7.752  0.00  0.00     0.210 C 
ENDBRANCH  72  75
ENDBRANCH  68  69
ENDBRANCH  33  68
BRANCH  18  77
HETATM   77  C   UNK N   1      22.661  13.094   2.391  0.00  0.00     0.014 C 
HETATM   78  C   UNK N   1      23.106  14.019   1.276  0.00  0.00     0.012 C 
HETATM   79  C   UNK N   1      21.967  11.913   1.732  0.00  0.00     0.012 C 
ENDBRANCH  18  77
BRANCH  11  80
HETATM   80  C   UNK N   1      22.781  18.768   3.521  0.00  0.00     0.038 C 
BRANCH  80  81
HETATM   81  C   UNK N   1      21.427  19.008   4.205  0.00  0.00    -0.020 C 
HETATM   82  C   UNK N   1      20.688  20.187   3.602  0.00  0.00     0.009 C 
HETATM   83  C   UNK N   1      20.560  17.769   4.191  0.00  0.00     0.009 C 
ENDBRANCH  80  81
ENDBRANCH  11  80
TORSDOF 16
ENDMDL
