MODEL 1
REMARK VINA RESULT:      -7.1      0.000      0.000
REMARK  32 active torsions:
REMARK  status: ('A' for Active; 'I' for Inactive)
REMARK    1  A    between atoms: C_11  and  C_10 
REMARK    2  A    between atoms: C_18  and  C_10 
REMARK    3  A    between atoms: C_23  and  C_11 
REMARK    4  A    between atoms: C_43  and  C_18 
REMARK    5  A    between atoms: N_58  and  C_23 
REMARK    6  A    between atoms: C_33  and  C_24 
REMARK    7  A    between atoms: C_40  and  C_24 
REMARK    8  A    between atoms: C_34  and  C_25 
REMARK    9  A    between atoms: C_45  and  C_25 
REMARK   10  A    between atoms: C_35  and  C_26 
REMARK   11  A    between atoms: C_44  and  C_26 
REMARK   12  A    between atoms: C_36  and  C_27 
REMARK   13  A    between atoms: C_46  and  C_27 
REMARK   14  A    between atoms: C_49  and  C_32 
REMARK   15  A    between atoms: O_78  and  C_37 
REMARK   16  A    between atoms: C_51  and  C_40 
REMARK   17  A    between atoms: C_40  and  N_59 
REMARK   18  A    between atoms: C_50  and  C_44 
REMARK   19  A    between atoms: C_44  and  N_66 
REMARK   20  A    between atoms: C_47  and  N_72 
REMARK   21  A    between atoms: C_48  and  C_55 
REMARK   22  A    between atoms: N_60  and  C_50 
REMARK   23  A    between atoms: O_79  and  C_50 
REMARK   24  A    between atoms: N_72  and  C_51 
REMARK   25  A    between atoms: C_51  and  O_80 
REMARK   26  A    between atoms: C_52  and  O_81 
REMARK   27  A    between atoms: C_53  and  O_82 
REMARK   28  A    between atoms: C_54  and  O_83 
REMARK   29  A    between atoms: N_66  and  C_55 
REMARK   30  A    between atoms: C_55  and  O_84 
REMARK   31  A    between atoms: C_56  and  O_85 
REMARK   32  A    between atoms: C_57  and  O_86 
ROOT
HETATM    1  C   UNK N   1      26.954  18.307   3.837  0.00  0.00     0.119 C 
HETATM    2  C   UNK N   1      27.654  15.749   6.267  0.00  0.00     0.119 C 
HETATM    3  C   UNK N   1      30.079  11.081   2.739  0.00  0.00     0.158 C 
HETATM    4  C   UNK N   1      24.615  14.470   4.231  0.00  0.00     0.162 C 
HETATM    5  C   UNK N   1      26.453  12.009   1.989  0.00  0.00     0.162 C 
HETATM    6  C   UNK N   1      25.439  18.122   3.695  0.00  0.00     0.168 C 
HETATM    7  C   UNK N   1      29.032  15.684   5.616  0.00  0.00     0.168 C 
HETATM    8  C   UNK N   1      30.444  13.919   3.665  0.00  0.00     0.161 C 
HETATM    9  C   UNK N   1      30.923  12.136   2.033  0.00  0.00     0.135 C 
HETATM   10  C   UNK N   1      24.926  13.375   3.240  0.00  0.00     0.135 C 
HETATM   11  C   UNK N   1      27.934  11.811   1.805  0.00  0.00     0.135 C 
HETATM   12  C   UNK N   1      24.936  16.862   4.338  0.00  0.00     0.136 C 
HETATM   13  C   UNK N   1      29.482  15.046   3.292  0.00  0.00     0.135 C 
HETATM   14  N   UNK N   1      28.664  11.431   2.805  0.00  0.00    -0.361 N 
ATOM     15  HN  UNK N   1      28.211  11.371   3.718  1.00  0.00     0.162 HD
HETATM   16  N   UNK N   1      25.148  15.730   3.750  0.00  0.00    -0.360 N 
ATOM     17  HN  UNK N   1      25.720  15.722   2.906  1.00  0.00     0.162 HD
HETATM   18  N   UNK N   1      26.152  13.053   2.960  0.00  0.00    -0.360 N 
ATOM     19  HN  UNK N   1      26.918  13.538   3.427  1.00  0.00     0.162 HD
HETATM   20  N   UNK N   1      28.890  15.794   4.174  0.00  0.00    -0.360 N 
ATOM     21  HN  UNK N   1      28.269  16.523   3.823  1.00  0.00     0.162 HD
HETATM   22  N   UNK N   1      31.028  13.351   2.460  0.00  0.00    -0.360 N 
ATOM     23  HN  UNK N   1      31.583  13.984   1.884  1.00  0.00     0.162 HD
HETATM   24  S   UNK N   1      27.707  18.808   5.423  0.00  0.00    -0.095 SA
HETATM   25  S   UNK N   1      26.903  17.344   6.780  0.00  0.00    -0.095 SA
ENDROOT
BRANCH   7  26
HETATM   26  C   UNK N   1      30.033  16.697   6.112  0.00  0.00     0.136 C 
BRANCH  26  27
HETATM   27  N   UNK N   1      30.422  16.677   7.345  0.00  0.00    -0.360 N 
ATOM     28  HN  UNK N   1      30.630  15.770   7.763  1.00  0.00     0.162 HD
BRANCH  27  29
HETATM   29  C   UNK N   1      30.584  17.861   8.182  0.00  0.00     0.161 C 
BRANCH  29  30
HETATM   30  C   UNK N   1      32.032  18.035   8.662  0.00  0.00     0.074 C 
BRANCH  30  31
HETATM   31  C   UNK N   1      33.055  17.255   7.892  0.00  0.00    -0.028 A 
HETATM   32  C   UNK N   1      33.707  17.618   6.714  0.00  0.00     0.096 A 
HETATM   33  N   UNK N   1      34.541  16.617   6.331  0.00  0.00    -0.365 N 
HETATM   34  C   UNK N   1      34.410  15.648   7.255  0.00  0.00     0.042 A 
HETATM   35  H   UNK N   1      35.124  16.603   5.537  0.00  0.00     0.165 HD
HETATM   36  C   UNK N   1      35.062  14.418   7.279  0.00  0.00     0.030 A 
HETATM   37  C   UNK N   1      33.515  16.007   8.220  0.00  0.00    -0.002 A 
HETATM   38  C   UNK N   1      34.769  13.543   8.342  0.00  0.00     0.002 A 
HETATM   39  C   UNK N   1      33.842  13.916   9.341  0.00  0.00     0.001 A 
HETATM   40  C   UNK N   1      33.200  15.166   9.285  0.00  0.00     0.014 A 
ENDBRANCH  30  31
ENDBRANCH  29  30
BRANCH  29  41
HETATM   41  C   UNK N   1      29.665  17.812   9.381  0.00  0.00     0.132 C 
BRANCH  41  42
HETATM   42  N   UNK N   1      29.832  16.915  10.281  0.00  0.00    -0.382 N 
HETATM   43  H   UNK N   1      30.622  16.371  10.500  0.00  0.00     0.158 HD
ATOM     44  HN  UNK N   1      29.015  16.737  10.866  1.00  0.00     0.158 HD
ENDBRANCH  41  42
BRANCH  41  45
HETATM   45  O   UNK N   1      28.650  18.689   9.507  0.00  0.00    -0.348 OA
HETATM   46  H   UNK N   1      28.080  19.281   9.957  0.00  0.00     0.219 HD
ENDBRANCH  41  45
ENDBRANCH  29  41
ENDBRANCH  27  29
ENDBRANCH  26  27
BRANCH  26  47
HETATM   47  O   UNK N   1      30.541  17.600   5.245  0.00  0.00    -0.348 OA
HETATM   48  H   UNK N   1      31.130  18.159   4.778  0.00  0.00     0.219 HD
ENDBRANCH  26  47
ENDBRANCH   7  26
BRANCH  13  49
HETATM   49  O   UNK N   1      29.244  15.289   1.989  0.00  0.00    -0.348 OA
HETATM   50  H   UNK N   1      29.549  15.489   1.126  0.00  0.00     0.219 HD
ENDBRANCH  13  49
BRANCH   8  51
HETATM   51  C   UNK N   1      31.601  14.422   4.551  0.00  0.00     0.008 C 
HETATM   52  C   UNK N   1      32.750  14.998   3.738  0.00  0.00     0.012 C 
HETATM   53  C   UNK N   1      32.124  13.324   5.463  0.00  0.00     0.012 C 
ENDBRANCH   8  51
BRANCH   6  54
HETATM   54  N   UNK N   1      24.573  19.273   3.935  0.00  0.00    -0.360 N 
ATOM     55  HN  UNK N   1      24.521  19.604   4.899  1.00  0.00     0.162 HD
BRANCH  54  56
HETATM   56  C   UNK N   1      23.864  19.921   3.070  0.00  0.00     0.135 C 
BRANCH  56  57
HETATM   57  C   UNK N   1      22.396  19.631   2.949  0.00  0.00     0.153 C 
BRANCH  57  58
HETATM   58  C   UNK N   1      21.870  19.037   4.261  0.00  0.00     0.071 C 
BRANCH  58  59
HETATM   59  C   UNK N   1      21.077  17.778   4.079  0.00  0.00    -0.056 A 
HETATM   60  C   UNK N   1      20.394  17.186   5.150  0.00  0.00     0.007 A 
HETATM   61  C   UNK N   1      19.640  16.023   4.939  0.00  0.00     0.001 A 
HETATM   62  C   UNK N   1      19.568  15.455   3.663  0.00  0.00     0.000 A 
HETATM   63  C   UNK N   1      20.244  16.050   2.595  0.00  0.00     0.001 A 
HETATM   64  C   UNK N   1      20.993  17.212   2.803  0.00  0.00     0.007 A 
ENDBRANCH  58  59
ENDBRANCH  57  58
BRANCH  57  65
HETATM   65  N   UNK N   1      21.688  20.871   2.689  0.00  0.00    -0.419 N 
HETATM   66  H   UNK N   1      20.932  21.179   3.299  0.00  0.00     0.150 HD
HETATM   67  H   UNK N   1      21.952  21.442   1.886  0.00  0.00     0.150 HD
ENDBRANCH  57  65
ENDBRANCH  56  57
BRANCH  56  68
HETATM   68  O   UNK N   1      24.403  20.886   2.303  0.00  0.00    -0.348 OA
HETATM   69  H   UNK N   1      25.216  21.251   2.014  0.00  0.00     0.219 HD
ENDBRANCH  56  68
ENDBRANCH  54  56
ENDBRANCH   6  54
BRANCH   9  70
HETATM   70  O   UNK N   1      31.605  11.796   0.920  0.00  0.00    -0.348 OA
HETATM   71  H   UNK N   1      31.489  11.225   0.188  0.00  0.00     0.219 HD
ENDBRANCH   9  70
BRANCH  12  72
HETATM   72  O   UNK N   1      24.166  16.925   5.446  0.00  0.00    -0.348 OA
HETATM   73  H   UNK N   1      23.558  17.449   5.929  0.00  0.00     0.219 HD
ENDBRANCH  12  72
BRANCH   3  74
HETATM   74  C   UNK N   1      30.258   9.661   2.169  0.00  0.00     0.033 C 
BRANCH  74  75
HETATM   75  C   UNK N   1      30.105   8.525   3.174  0.00  0.00     0.004 C 
BRANCH  75  76
HETATM   76  C   UNK N   1      31.215   8.549   4.218  0.00  0.00     0.019 C 
BRANCH  76  77
HETATM   77  C   UNK N   1      30.678   8.390   5.632  0.00  0.00     0.111 C 
BRANCH  77  78
HETATM   78  N   UNK N   1      30.178   9.667   6.111  0.00  0.00    -0.430 N 
HETATM   79  H   UNK N   1      30.058  10.672   6.236  0.00  0.00     0.149 HD
HETATM   80  H   UNK N   1      29.469   9.333   6.763  0.00  0.00     0.149 HD
ENDBRANCH  77  78
ENDBRANCH  76  77
ENDBRANCH  75  76
ENDBRANCH  74  75
ENDBRANCH   3  74
BRANCH   4  81
HETATM   81  C   UNK N   1      23.083  14.572   4.477  0.00  0.00     0.072 C 
BRANCH  81  82
HETATM   82  C   UNK N   1      22.573  13.982   5.767  0.00  0.00    -0.056 A 
HETATM   83  C   UNK N   1      22.030  12.689   5.806  0.00  0.00     0.010 A 
HETATM   84  C   UNK N   1      21.527  12.166   6.999  0.00  0.00     0.037 A 
HETATM   85  C   UNK N   1      21.552  12.939   8.160  0.00  0.00     0.065 A 
HETATM   86  C   UNK N   1      22.082  14.233   8.128  0.00  0.00     0.037 A 
HETATM   87  C   UNK N   1      22.588  14.754   6.932  0.00  0.00     0.010 A 
BRANCH  85  88
HETATM   88  O   UNK N   1      21.064  12.439   9.307  0.00  0.00    -0.361 OA
HETATM   89  H   UNK N   1      20.660  12.792  10.074  0.00  0.00     0.217 HD
ENDBRANCH  85  88
ENDBRANCH  81  82
ENDBRANCH   4  81
BRANCH  11  90
HETATM   90  O   UNK N   1      28.472  11.991   0.581  0.00  0.00    -0.348 OA
HETATM   91  H   UNK N   1      28.549  11.915  -0.351  0.00  0.00     0.219 HD
ENDBRANCH  11  90
BRANCH  10  92
HETATM   92  O   UNK N   1      23.905  12.720   2.647  0.00  0.00    -0.348 OA
HETATM   93  H   UNK N   1      23.088  13.157   2.503  0.00  0.00     0.219 HD
ENDBRANCH  10  92
BRANCH   5  94
HETATM   94  C   UNK N   1      25.844  10.672   2.439  0.00  0.00     0.074 C 
BRANCH  94  95
HETATM   95  C   UNK N   1      25.895   9.638   1.360  0.00  0.00    -0.028 A 
HETATM   96  C   UNK N   1      26.761   8.555   1.290  0.00  0.00     0.096 A 
HETATM   97  N   UNK N   1      26.491   7.832   0.171  0.00  0.00    -0.365 N 
HETATM   98  C   UNK N   1      25.466   8.455  -0.439  0.00  0.00     0.042 A 
HETATM   99  H   UNK N   1      26.952   7.017  -0.132  0.00  0.00     0.165 HD
HETATM  100  C   UNK N   1      24.833   8.074  -1.620  0.00  0.00     0.030 A 
HETATM  101  C   UNK N   1      25.078   9.560   0.259  0.00  0.00    -0.002 A 
HETATM  102  C   UNK N   1      23.766   8.870  -2.080  0.00  0.00     0.002 A 
HETATM  103  C   UNK N   1      23.364  10.014  -1.354  0.00  0.00     0.001 A 
HETATM  104  C   UNK N   1      24.026  10.368  -0.166  0.00  0.00     0.014 A 
ENDBRANCH  94  95
ENDBRANCH   5  94
TORSDOF 32
ENDMDL
MODEL 2
REMARK VINA RESULT:      -7.1      3.394      5.594
REMARK  32 active torsions:
REMARK  status: ('A' for Active; 'I' for Inactive)
REMARK    1  A    between atoms: C_11  and  C_10 
REMARK    2  A    between atoms: C_18  and  C_10 
REMARK    3  A    between atoms: C_23  and  C_11 
REMARK    4  A    between atoms: C_43  and  C_18 
REMARK    5  A    between atoms: N_58  and  C_23 
REMARK    6  A    between atoms: C_33  and  C_24 
REMARK    7  A    between atoms: C_40  and  C_24 
REMARK    8  A    between atoms: C_34  and  C_25 
REMARK    9  A    between atoms: C_45  and  C_25 
REMARK   10  A    between atoms: C_35  and  C_26 
REMARK   11  A    between atoms: C_44  and  C_26 
REMARK   12  A    between atoms: C_36  and  C_27 
REMARK   13  A    between atoms: C_46  and  C_27 
REMARK   14  A    between atoms: C_49  and  C_32 
REMARK   15  A    between atoms: O_78  and  C_37 
REMARK   16  A    between atoms: C_51  and  C_40 
REMARK   17  A    between atoms: C_40  and  N_59 
REMARK   18  A    between atoms: C_50  and  C_44 
REMARK   19  A    between atoms: C_44  and  N_66 
REMARK   20  A    between atoms: C_47  and  N_72 
REMARK   21  A    between atoms: C_48  and  C_55 
REMARK   22  A    between atoms: N_60  and  C_50 
REMARK   23  A    between atoms: O_79  and  C_50 
REMARK   24  A    between atoms: N_72  and  C_51 
REMARK   25  A    between atoms: C_51  and  O_80 
REMARK   26  A    between atoms: C_52  and  O_81 
REMARK   27  A    between atoms: C_53  and  O_82 
REMARK   28  A    between atoms: C_54  and  O_83 
REMARK   29  A    between atoms: N_66  and  C_55 
REMARK   30  A    between atoms: C_55  and  O_84 
REMARK   31  A    between atoms: C_56  and  O_85 
REMARK   32  A    between atoms: C_57  and  O_86 
ROOT
HETATM    1  C   UNK N   1      24.156  15.194   3.345  0.00  0.00     0.119 C 
HETATM    2  C   UNK N   1      26.750  14.360   5.693  0.00  0.00     0.119 C 
HETATM    3  C   UNK N   1      27.943   8.282   4.374  0.00  0.00     0.158 C 
HETATM    4  C   UNK N   1      23.573  12.518   6.929  0.00  0.00     0.162 C 
HETATM    5  C   UNK N   1      24.428   9.037   5.657  0.00  0.00     0.162 C 
HETATM    6  C   UNK N   1      22.937  15.134   4.273  0.00  0.00     0.168 C 
HETATM    7  C   UNK N   1      27.486  13.790   4.485  0.00  0.00     0.168 C 
HETATM    8  C   UNK N   1      27.982  11.092   3.305  0.00  0.00     0.161 C 
HETATM    9  C   UNK N   1      27.927   8.663   2.897  0.00  0.00     0.135 C 
HETATM   10  C   UNK N   1      23.560  11.030   6.676  0.00  0.00     0.135 C 
HETATM   11  C   UNK N   1      25.541   8.605   4.740  0.00  0.00     0.135 C 
HETATM   12  C   UNK N   1      23.240  14.511   5.605  0.00  0.00     0.136 C 
HETATM   13  C   UNK N   1      26.715  11.921   3.098  0.00  0.00     0.135 C 
HETATM   14  N   UNK N   1      26.775   8.766   5.102  0.00  0.00    -0.361 N 
ATOM     15  HN  UNK N   1      26.944   9.275   5.969  1.00  0.00     0.162 HD
HETATM   16  N   UNK N   1      23.384  13.227   5.678  0.00  0.00    -0.360 N 
ATOM     17  HN  UNK N   1      23.364  12.687   4.814  1.00  0.00     0.162 HD
HETATM   18  N   UNK N   1      24.453  10.470   5.917  0.00  0.00    -0.360 N 
ATOM     19  HN  UNK N   1      25.183  11.043   5.496  1.00  0.00     0.162 HD
HETATM   20  N   UNK N   1      26.540  13.094   3.628  0.00  0.00    -0.360 N 
ATOM     21  HN  UNK N   1      25.661  13.570   3.426  1.00  0.00     0.162 HD
HETATM   22  N   UNK N   1      27.920   9.888   2.490  0.00  0.00    -0.360 N 
ATOM     23  HN  UNK N   1      27.864  10.027   1.481  1.00  0.00     0.162 HD
HETATM   24  S   UNK N   1      25.497  16.404   3.614  0.00  0.00    -0.095 SA
HETATM   25  S   UNK N   1      26.018  16.043   5.670  0.00  0.00    -0.095 SA
ENDROOT
BRANCH   7  26
HETATM   26  C   UNK N   1      28.276  14.787   3.675  0.00  0.00     0.136 C 
BRANCH  26  27
HETATM   27  N   UNK N   1      29.423  15.206   4.099  0.00  0.00    -0.360 N 
ATOM     28  HN  UNK N   1      30.213  15.162   3.456  1.00  0.00     0.162 HD
BRANCH  27  29
HETATM   29  C   UNK N   1      29.667  15.739   5.435  0.00  0.00     0.161 C 
BRANCH  29  30
HETATM   30  C   UNK N   1      29.966  17.245   5.412  0.00  0.00     0.074 C 
BRANCH  30  31
HETATM   31  C   UNK N   1      29.079  18.082   6.285  0.00  0.00    -0.028 A 
HETATM   32  C   UNK N   1      28.923  18.016   7.669  0.00  0.00     0.096 A 
HETATM   33  N   UNK N   1      28.006  18.935   8.066  0.00  0.00    -0.365 N 
HETATM   34  C   UNK N   1      27.596  19.561   6.947  0.00  0.00     0.042 A 
HETATM   35  H   UNK N   1      27.700  19.108   8.986  0.00  0.00     0.165 HD
HETATM   36  C   UNK N   1      26.650  20.577   6.853  0.00  0.00     0.030 A 
HETATM   37  C   UNK N   1      28.234  19.066   5.847  0.00  0.00    -0.002 A 
HETATM   38  C   UNK N   1      26.364  21.089   5.572  0.00  0.00     0.002 A 
HETATM   39  C   UNK N   1      27.025  20.576   4.433  0.00  0.00     0.001 A 
HETATM   40  C   UNK N   1      27.976  19.548   4.565  0.00  0.00     0.014 A 
ENDBRANCH  30  31
ENDBRANCH  29  30
BRANCH  29  41
HETATM   41  C   UNK N   1      30.809  15.016   6.111  0.00  0.00     0.132 C 
BRANCH  41  42
HETATM   42  N   UNK N   1      31.120  13.827   5.747  0.00  0.00    -0.382 N 
HETATM   43  H   UNK N   1      30.659  13.204   5.140  0.00  0.00     0.158 HD
ATOM     44  HN  UNK N   1      31.985  13.467   6.152  1.00  0.00     0.158 HD
ENDBRANCH  41  42
BRANCH  41  45
HETATM   45  O   UNK N   1      31.496  15.597   7.113  0.00  0.00    -0.348 OA
HETATM   46  H   UNK N   1      31.656  16.223   7.793  0.00  0.00     0.219 HD
ENDBRANCH  41  45
ENDBRANCH  29  41
ENDBRANCH  27  29
ENDBRANCH  26  27
BRANCH  26  47
HETATM   47  O   UNK N   1      27.785  15.207   2.488  0.00  0.00    -0.348 OA
HETATM   48  H   UNK N   1      27.618  15.299   1.571  0.00  0.00     0.219 HD
ENDBRANCH  26  47
ENDBRANCH   7  26
BRANCH  13  49
HETATM   49  O   UNK N   1      25.735  11.423   2.319  0.00  0.00    -0.348 OA
HETATM   50  H   UNK N   1      24.830  11.361   2.084  0.00  0.00     0.219 HD
ENDBRANCH  13  49
BRANCH   8  51
HETATM   51  C   UNK N   1      29.249  11.868   2.894  0.00  0.00     0.008 C 
HETATM   52  C   UNK N   1      29.346  12.073   1.391  0.00  0.00     0.012 C 
HETATM   53  C   UNK N   1      30.510  11.185   3.396  0.00  0.00     0.012 C 
ENDBRANCH   8  51
BRANCH   6  54
HETATM   54  N   UNK N   1      22.081  16.313   4.374  0.00  0.00    -0.360 N 
ATOM     55  HN  UNK N   1      22.533  17.171   4.690  1.00  0.00     0.162 HD
BRANCH  54  56
HETATM   56  C   UNK N   1      20.819  16.395   4.111  0.00  0.00     0.135 C 
BRANCH  56  57
HETATM   57  C   UNK N   1      20.362  16.451   2.682  0.00  0.00     0.153 C 
BRANCH  57  58
HETATM   58  C   UNK N   1      19.682  15.132   2.297  0.00  0.00     0.071 C 
BRANCH  58  59
HETATM   59  C   UNK N   1      20.638  14.066   1.854  0.00  0.00    -0.056 A 
HETATM   60  C   UNK N   1      21.578  14.306   0.842  0.00  0.00     0.007 A 
HETATM   61  C   UNK N   1      22.475  13.295   0.470  0.00  0.00     0.001 A 
HETATM   62  C   UNK N   1      22.434  12.050   1.106  0.00  0.00     0.000 A 
HETATM   63  C   UNK N   1      21.500  11.815   2.119  0.00  0.00     0.001 A 
HETATM   64  C   UNK N   1      20.608  12.823   2.494  0.00  0.00     0.007 A 
ENDBRANCH  58  59
ENDBRANCH  57  58
BRANCH  57  65
HETATM   65  N   UNK N   1      19.399  17.527   2.534  0.00  0.00    -0.419 N 
HETATM   66  H   UNK N   1      19.702  18.470   2.292  0.00  0.00     0.150 HD
HETATM   67  H   UNK N   1      18.407  17.336   2.673  0.00  0.00     0.150 HD
ENDBRANCH  57  65
ENDBRANCH  56  57
BRANCH  56  68
HETATM   68  O   UNK N   1      19.896  16.384   5.090  0.00  0.00    -0.348 OA
HETATM   69  H   UNK N   1      19.598  16.846   5.848  0.00  0.00     0.219 HD
ENDBRANCH  56  68
ENDBRANCH  54  56
ENDBRANCH   6  54
BRANCH   9  70
HETATM   70  O   UNK N   1      27.933   7.687   1.966  0.00  0.00    -0.348 OA
HETATM   71  H   UNK N   1      27.832   6.757   1.941  0.00  0.00     0.219 HD
ENDBRANCH   9  70
BRANCH  12  72
HETATM   72  O   UNK N   1      23.238  15.265   6.725  0.00  0.00    -0.348 OA
HETATM   73  H   UNK N   1      23.659  15.971   7.176  0.00  0.00     0.219 HD
ENDBRANCH  12  72
BRANCH   3  74
HETATM   74  C   UNK N   1      28.148   6.775   4.622  0.00  0.00     0.033 C 
BRANCH  74  75
HETATM   75  C   UNK N   1      29.177   6.419   5.689  0.00  0.00     0.004 C 
BRANCH  75  76
HETATM   76  C   UNK N   1      30.268   7.479   5.789  0.00  0.00     0.019 C 
BRANCH  76  77
HETATM   77  C   UNK N   1      30.840   7.583   7.194  0.00  0.00     0.111 C 
BRANCH  77  78
HETATM   78  N   UNK N   1      30.806   8.968   7.635  0.00  0.00    -0.430 N 
HETATM   79  H   UNK N   1      30.479   9.918   7.811  0.00  0.00     0.149 HD
HETATM   80  H   UNK N   1      31.738   9.035   8.042  0.00  0.00     0.149 HD
ENDBRANCH  77  78
ENDBRANCH  76  77
ENDBRANCH  75  76
ENDBRANCH  74  75
ENDBRANCH   3  74
BRANCH   4  81
HETATM   81  C   UNK N   1      22.481  12.911   7.962  0.00  0.00     0.072 C 
BRANCH  81  82
HETATM   82  C   UNK N   1      22.807  12.649   9.411  0.00  0.00    -0.056 A 
HETATM   83  C   UNK N   1      24.135  12.509   9.840  0.00  0.00     0.010 A 
HETATM   84  C   UNK N   1      24.424  12.232  11.177  0.00  0.00     0.037 A 
HETATM   85  C   UNK N   1      23.384  12.078  12.094  0.00  0.00     0.065 A 
HETATM   86  C   UNK N   1      22.056  12.205  11.673  0.00  0.00     0.037 A 
HETATM   87  C   UNK N   1      21.769  12.486  10.333  0.00  0.00     0.010 A 
BRANCH  85  88
HETATM   88  O   UNK N   1      23.660  11.805  13.380  0.00  0.00    -0.361 OA
HETATM   89  H   UNK N   1      23.363  12.119  14.211  0.00  0.00     0.217 HD
ENDBRANCH  85  88
ENDBRANCH  81  82
ENDBRANCH   4  81
BRANCH  11  90
HETATM   90  O   UNK N   1      25.232   8.012   3.569  0.00  0.00    -0.348 OA
HETATM   91  H   UNK N   1      24.877   7.935   2.704  0.00  0.00     0.219 HD
ENDBRANCH  11  90
BRANCH  10  92
HETATM   92  O   UNK N   1      22.603  10.276   7.259  0.00  0.00    -0.348 OA
HETATM   93  H   UNK N   1      21.708  10.371   7.000  0.00  0.00     0.219 HD
ENDBRANCH  10  92
BRANCH   5  94
HETATM   94  C   UNK N   1      24.561   8.255   6.973  0.00  0.00     0.074 C 
BRANCH  94  95
HETATM   95  C   UNK N   1      24.425   6.780   6.768  0.00  0.00    -0.028 A 
HETATM   96  C   UNK N   1      23.456   6.133   6.014  0.00  0.00     0.096 A 
HETATM   97  N   UNK N   1      23.672   4.793   6.054  0.00  0.00    -0.365 N 
HETATM   98  C   UNK N   1      24.765   4.612   6.817  0.00  0.00     0.042 A 
HETATM   99  H   UNK N   1      23.137   4.093   5.613  0.00  0.00     0.165 HD
HETATM  100  C   UNK N   1      25.377   3.402   7.138  0.00  0.00     0.030 A 
HETATM  101  C   UNK N   1      25.249   5.803   7.270  0.00  0.00    -0.002 A 
HETATM  102  C   UNK N   1      26.527   3.442   7.950  0.00  0.00     0.002 A 
HETATM  103  C   UNK N   1      27.029   4.678   8.416  0.00  0.00     0.001 A 
HETATM  104  C   UNK N   1      26.385   5.879   8.073  0.00  0.00     0.014 A 
ENDBRANCH  94  95
ENDBRANCH   5  94
TORSDOF 32
ENDMDL
MODEL 3
REMARK VINA RESULT:      -7.1      3.560      5.705
REMARK  32 active torsions:
REMARK  status: ('A' for Active; 'I' for Inactive)
REMARK    1  A    between atoms: C_11  and  C_10 
REMARK    2  A    between atoms: C_18  and  C_10 
REMARK    3  A    between atoms: C_23  and  C_11 
REMARK    4  A    between atoms: C_43  and  C_18 
REMARK    5  A    between atoms: N_58  and  C_23 
REMARK    6  A    between atoms: C_33  and  C_24 
REMARK    7  A    between atoms: C_40  and  C_24 
REMARK    8  A    between atoms: C_34  and  C_25 
REMARK    9  A    between atoms: C_45  and  C_25 
REMARK   10  A    between atoms: C_35  and  C_26 
REMARK   11  A    between atoms: C_44  and  C_26 
REMARK   12  A    between atoms: C_36  and  C_27 
REMARK   13  A    between atoms: C_46  and  C_27 
REMARK   14  A    between atoms: C_49  and  C_32 
REMARK   15  A    between atoms: O_78  and  C_37 
REMARK   16  A    between atoms: C_51  and  C_40 
REMARK   17  A    between atoms: C_40  and  N_59 
REMARK   18  A    between atoms: C_50  and  C_44 
REMARK   19  A    between atoms: C_44  and  N_66 
REMARK   20  A    between atoms: C_47  and  N_72 
REMARK   21  A    between atoms: C_48  and  C_55 
REMARK   22  A    between atoms: N_60  and  C_50 
REMARK   23  A    between atoms: O_79  and  C_50 
REMARK   24  A    between atoms: N_72  and  C_51 
REMARK   25  A    between atoms: C_51  and  O_80 
REMARK   26  A    between atoms: C_52  and  O_81 
REMARK   27  A    between atoms: C_53  and  O_82 
REMARK   28  A    between atoms: C_54  and  O_83 
REMARK   29  A    between atoms: N_66  and  C_55 
REMARK   30  A    between atoms: C_55  and  O_84 
REMARK   31  A    between atoms: C_56  and  O_85 
REMARK   32  A    between atoms: C_57  and  O_86 
ROOT
HETATM    1  C   UNK N   1      23.987  15.374   3.387  0.00  0.00     0.119 C 
HETATM    2  C   UNK N   1      26.667  14.545   5.638  0.00  0.00     0.119 C 
HETATM    3  C   UNK N   1      27.906   8.505   4.193  0.00  0.00     0.158 C 
HETATM    4  C   UNK N   1      23.559  12.638   6.947  0.00  0.00     0.162 C 
HETATM    5  C   UNK N   1      24.423   9.189   5.598  0.00  0.00     0.162 C 
HETATM    6  C   UNK N   1      22.800  15.281   4.352  0.00  0.00     0.168 C 
HETATM    7  C   UNK N   1      27.372  14.003   4.399  0.00  0.00     0.168 C 
HETATM    8  C   UNK N   1      27.869  11.331   3.164  0.00  0.00     0.161 C 
HETATM    9  C   UNK N   1      27.837   8.906   2.723  0.00  0.00     0.135 C 
HETATM   10  C   UNK N   1      23.559  11.153   6.673  0.00  0.00     0.135 C 
HETATM   11  C   UNK N   1      25.513   8.787   4.640  0.00  0.00     0.135 C 
HETATM   12  C   UNK N   1      23.154  14.644   5.664  0.00  0.00     0.136 C 
HETATM   13  C   UNK N   1      26.585  12.143   3.010  0.00  0.00     0.135 C 
HETATM   14  N   UNK N   1      26.755   8.961   4.964  0.00  0.00    -0.361 N 
ATOM     15  HN  UNK N   1      26.944   9.460   5.834  1.00  0.00     0.162 HD
HETATM   16  N   UNK N   1      23.319  13.362   5.714  0.00  0.00    -0.360 N 
ATOM     17  HN  UNK N   1      23.280  12.834   4.843  1.00  0.00     0.162 HD
HETATM   18  N   UNK N   1      24.435  10.618   5.878  0.00  0.00    -0.360 N 
ATOM     19  HN  UNK N   1      25.143  11.208   5.442  1.00  0.00     0.162 HD
HETATM   20  N   UNK N   1      26.410  13.306   3.563  0.00  0.00    -0.360 N 
ATOM     21  HN  UNK N   1      25.517  13.771   3.396  1.00  0.00     0.162 HD
HETATM   22  N   UNK N   1      27.800  10.138   2.334  0.00  0.00    -0.360 N 
ATOM     23  HN  UNK N   1      27.710  10.290   1.330  1.00  0.00     0.162 HD
HETATM   24  S   UNK N   1      25.319  16.599   3.630  0.00  0.00    -0.095 SA
HETATM   25  S   UNK N   1      25.910  16.217   5.664  0.00  0.00    -0.095 SA
ENDROOT
BRANCH   7  26
HETATM   26  C   UNK N   1      28.121  15.024   3.579  0.00  0.00     0.136 C 
BRANCH  26  27
HETATM   27  N   UNK N   1      29.265  15.471   3.984  0.00  0.00    -0.360 N 
ATOM     28  HN  UNK N   1      30.007  15.573   3.292  1.00  0.00     0.162 HD
BRANCH  27  29
HETATM   29  C   UNK N   1      29.569  15.839   5.363  0.00  0.00     0.161 C 
BRANCH  29  30
HETATM   30  C   UNK N   1      29.983  17.312   5.490  0.00  0.00     0.074 C 
BRANCH  30  31
HETATM   31  C   UNK N   1      29.036  18.172   6.272  0.00  0.00    -0.028 A 
HETATM   32  C   UNK N   1      28.825  18.189   7.650  0.00  0.00     0.096 A 
HETATM   33  N   UNK N   1      27.864  19.100   7.951  0.00  0.00    -0.365 N 
HETATM   34  C   UNK N   1      27.482  19.639   6.779  0.00  0.00     0.042 A 
HETATM   35  H   UNK N   1      27.516  19.320   8.846  0.00  0.00     0.165 HD
HETATM   36  C   UNK N   1      26.508  20.615   6.583  0.00  0.00     0.030 A 
HETATM   37  C   UNK N   1      28.179  19.098   5.739  0.00  0.00    -0.002 A 
HETATM   38  C   UNK N   1      26.260  21.035   5.262  0.00  0.00     0.002 A 
HETATM   39  C   UNK N   1      26.982  20.474   4.185  0.00  0.00     0.001 A 
HETATM   40  C   UNK N   1      27.959  19.489   4.419  0.00  0.00     0.014 A 
ENDBRANCH  30  31
ENDBRANCH  29  30
BRANCH  29  41
HETATM   41  C   UNK N   1      30.661  14.964   5.933  0.00  0.00     0.132 C 
BRANCH  41  42
HETATM   42  N   UNK N   1      31.599  15.484   6.635  0.00  0.00    -0.382 N 
HETATM   43  H   UNK N   1      31.884  15.299   7.558  0.00  0.00     0.158 HD
ATOM     44  HN  UNK N   1      32.139  16.208   6.159  1.00  0.00     0.158 HD
ENDBRANCH  41  42
BRANCH  41  45
HETATM   45  O   UNK N   1      30.677  13.638   5.695  0.00  0.00    -0.348 OA
HETATM   46  H   UNK N   1      30.511  12.852   5.212  0.00  0.00     0.219 HD
ENDBRANCH  41  45
ENDBRANCH  29  41
ENDBRANCH  27  29
ENDBRANCH  26  27
BRANCH  26  47
HETATM   47  O   UNK N   1      27.598  15.436   2.404  0.00  0.00    -0.348 OA
HETATM   48  H   UNK N   1      27.469  15.601   1.491  0.00  0.00     0.219 HD
ENDBRANCH  26  47
ENDBRANCH   7  26
BRANCH  13  49
HETATM   49  O   UNK N   1      25.588  11.642   2.255  0.00  0.00    -0.348 OA
HETATM   50  H   UNK N   1      24.706  11.337   2.163  0.00  0.00     0.219 HD
ENDBRANCH  13  49
BRANCH   8  51
HETATM   51  C   UNK N   1      29.111  12.132   2.725  0.00  0.00     0.008 C 
HETATM   52  C   UNK N   1      29.126  12.412   1.231  0.00  0.00     0.012 C 
HETATM   53  C   UNK N   1      30.399  11.429   3.123  0.00  0.00     0.012 C 
ENDBRANCH   8  51
BRANCH   6  54
HETATM   54  N   UNK N   1      21.931  16.446   4.497  0.00  0.00    -0.360 N 
ATOM     55  HN  UNK N   1      22.268  17.314   4.081  1.00  0.00     0.162 HD
BRANCH  54  56
HETATM   56  C   UNK N   1      20.785  16.505   5.092  0.00  0.00     0.135 C 
BRANCH  56  57
HETATM   57  C   UNK N   1      20.591  17.464   6.231  0.00  0.00     0.153 C 
BRANCH  57  58
HETATM   58  C   UNK N   1      20.470  16.692   7.550  0.00  0.00     0.071 C 
BRANCH  58  59
HETATM   59  C   UNK N   1      19.548  17.333   8.543  0.00  0.00    -0.056 A 
HETATM   60  C   UNK N   1      19.934  18.468   9.269  0.00  0.00     0.007 A 
HETATM   61  C   UNK N   1      19.037  19.058  10.170  0.00  0.00     0.001 A 
HETATM   62  C   UNK N   1      17.759  18.517  10.344  0.00  0.00     0.000 A 
HETATM   63  C   UNK N   1      17.373  17.389   9.615  0.00  0.00     0.001 A 
HETATM   64  C   UNK N   1      18.265  16.802   8.714  0.00  0.00     0.007 A 
ENDBRANCH  58  59
ENDBRANCH  57  58
BRANCH  57  65
HETATM   65  N   UNK N   1      21.744  18.341   6.314  0.00  0.00    -0.419 N 
HETATM   66  H   UNK N   1      22.459  18.198   7.026  0.00  0.00     0.150 HD
HETATM   67  H   UNK N   1      21.840  19.110   5.651  0.00  0.00     0.150 HD
ENDBRANCH  57  65
ENDBRANCH  56  57
BRANCH  56  68
HETATM   68  O   UNK N   1      19.743  15.758   4.684  0.00  0.00    -0.348 OA
HETATM   69  H   UNK N   1      18.986  15.295   4.984  0.00  0.00     0.219 HD
ENDBRANCH  56  68
ENDBRANCH  54  56
ENDBRANCH   6  54
BRANCH   9  70
HETATM   70  O   UNK N   1      27.828   7.945   1.778  0.00  0.00    -0.348 OA
HETATM   71  H   UNK N   1      28.454   7.408   1.334  0.00  0.00     0.219 HD
ENDBRANCH   9  70
BRANCH  12  72
HETATM   72  O   UNK N   1      23.177  15.382   6.794  0.00  0.00    -0.348 OA
HETATM   73  H   UNK N   1      23.694  15.642   7.531  0.00  0.00     0.219 HD
ENDBRANCH  12  72
BRANCH   3  74
HETATM   74  C   UNK N   1      28.141   6.998   4.412  0.00  0.00     0.033 C 
BRANCH  74  75
HETATM   75  C   UNK N   1      28.825   6.624   5.722  0.00  0.00     0.004 C 
BRANCH  75  76
HETATM   76  C   UNK N   1      30.307   6.978   5.701  0.00  0.00     0.019 C 
BRANCH  76  77
HETATM   77  C   UNK N   1      30.708   7.846   6.883  0.00  0.00     0.111 C 
BRANCH  77  78
HETATM   78  N   UNK N   1      30.454   9.243   6.573  0.00  0.00    -0.430 N 
HETATM   79  H   UNK N   1      30.158  10.215   6.666  0.00  0.00     0.149 HD
HETATM   80  H   UNK N   1      30.814   9.269   5.620  0.00  0.00     0.149 HD
ENDBRANCH  77  78
ENDBRANCH  76  77
ENDBRANCH  75  76
ENDBRANCH  74  75
ENDBRANCH   3  74
BRANCH   4  81
HETATM   81  C   UNK N   1      22.494  13.000   8.021  0.00  0.00     0.072 C 
BRANCH  81  82
HETATM   82  C   UNK N   1      22.861  12.702   9.452  0.00  0.00    -0.056 A 
HETATM   83  C   UNK N   1      24.200  12.545   9.838  0.00  0.00     0.010 A 
HETATM   84  C   UNK N   1      24.527  12.235  11.159  0.00  0.00     0.037 A 
HETATM   85  C   UNK N   1      23.514  12.063  12.103  0.00  0.00     0.065 A 
HETATM   86  C   UNK N   1      22.175  12.206  11.724  0.00  0.00     0.037 A 
HETATM   87  C   UNK N   1      21.850  12.521  10.401  0.00  0.00     0.010 A 
BRANCH  85  88
HETATM   88  O   UNK N   1      23.826  11.759  13.373  0.00  0.00    -0.361 OA
HETATM   89  H   UNK N   1      23.418  11.281  14.068  0.00  0.00     0.217 HD
ENDBRANCH  85  88
ENDBRANCH  81  82
ENDBRANCH   4  81
BRANCH  11  90
HETATM   90  O   UNK N   1      25.175   8.205   3.470  0.00  0.00    -0.348 OA
HETATM   91  H   UNK N   1      25.279   7.671   2.707  0.00  0.00     0.219 HD
ENDBRANCH  11  90
BRANCH  10  92
HETATM   92  O   UNK N   1      22.633  10.377   7.275  0.00  0.00    -0.348 OA
HETATM   93  H   UNK N   1      22.221  10.665   8.066  0.00  0.00     0.219 HD
ENDBRANCH  10  92
BRANCH   5  94
HETATM   94  C   UNK N   1      24.610   8.390   6.897  0.00  0.00     0.074 C 
BRANCH  94  95
HETATM   95  C   UNK N   1      24.354   6.930   6.703  0.00  0.00    -0.028 A 
HETATM   96  C   UNK N   1      23.387   6.358   5.886  0.00  0.00     0.096 A 
HETATM   97  N   UNK N   1      23.476   5.005   5.961  0.00  0.00    -0.365 N 
HETATM   98  C   UNK N   1      24.489   4.741   6.807  0.00  0.00     0.042 A 
HETATM   99  H   UNK N   1      22.912   4.348   5.491  0.00  0.00     0.165 HD
HETATM  100  C   UNK N   1      24.961   3.487   7.188  0.00  0.00     0.030 A 
HETATM  101  C   UNK N   1      25.046   5.893   7.278  0.00  0.00    -0.002 A 
HETATM  102  C   UNK N   1      26.047   3.440   8.083  0.00  0.00     0.002 A 
HETATM  103  C   UNK N   1      26.626   4.634   8.569  0.00  0.00     0.001 A 
HETATM  104  C   UNK N   1      26.122   5.882   8.163  0.00  0.00     0.014 A 
ENDBRANCH  94  95
ENDBRANCH   5  94
TORSDOF 32
ENDMDL
MODEL 4
REMARK VINA RESULT:      -7.0      3.141      5.177
REMARK  32 active torsions:
REMARK  status: ('A' for Active; 'I' for Inactive)
REMARK    1  A    between atoms: C_11  and  C_10 
REMARK    2  A    between atoms: C_18  and  C_10 
REMARK    3  A    between atoms: C_23  and  C_11 
REMARK    4  A    between atoms: C_43  and  C_18 
REMARK    5  A    between atoms: N_58  and  C_23 
REMARK    6  A    between atoms: C_33  and  C_24 
REMARK    7  A    between atoms: C_40  and  C_24 
REMARK    8  A    between atoms: C_34  and  C_25 
REMARK    9  A    between atoms: C_45  and  C_25 
REMARK   10  A    between atoms: C_35  and  C_26 
REMARK   11  A    between atoms: C_44  and  C_26 
REMARK   12  A    between atoms: C_36  and  C_27 
REMARK   13  A    between atoms: C_46  and  C_27 
REMARK   14  A    between atoms: C_49  and  C_32 
REMARK   15  A    between atoms: O_78  and  C_37 
REMARK   16  A    between atoms: C_51  and  C_40 
REMARK   17  A    between atoms: C_40  and  N_59 
REMARK   18  A    between atoms: C_50  and  C_44 
REMARK   19  A    between atoms: C_44  and  N_66 
REMARK   20  A    between atoms: C_47  and  N_72 
REMARK   21  A    between atoms: C_48  and  C_55 
REMARK   22  A    between atoms: N_60  and  C_50 
REMARK   23  A    between atoms: O_79  and  C_50 
REMARK   24  A    between atoms: N_72  and  C_51 
REMARK   25  A    between atoms: C_51  and  O_80 
REMARK   26  A    between atoms: C_52  and  O_81 
REMARK   27  A    between atoms: C_53  and  O_82 
REMARK   28  A    between atoms: C_54  and  O_83 
REMARK   29  A    between atoms: N_66  and  C_55 
REMARK   30  A    between atoms: C_55  and  O_84 
REMARK   31  A    between atoms: C_56  and  O_85 
REMARK   32  A    between atoms: C_57  and  O_86 
ROOT
HETATM    1  C   UNK N   1      24.029  14.797   3.256  0.00  0.00     0.119 C 
HETATM    2  C   UNK N   1      26.627  14.163   5.661  0.00  0.00     0.119 C 
HETATM    3  C   UNK N   1      28.562   8.328   4.140  0.00  0.00     0.158 C 
HETATM    4  C   UNK N   1      23.650  11.914   6.703  0.00  0.00     0.162 C 
HETATM    5  C   UNK N   1      24.944   8.615   5.323  0.00  0.00     0.162 C 
HETATM    6  C   UNK N   1      22.797  14.555   4.135  0.00  0.00     0.168 C 
HETATM    7  C   UNK N   1      27.462  13.736   4.459  0.00  0.00     0.168 C 
HETATM    8  C   UNK N   1      28.307  11.170   3.189  0.00  0.00     0.161 C 
HETATM    9  C   UNK N   1      28.549   8.771   2.681  0.00  0.00     0.135 C 
HETATM   10  C   UNK N   1      23.818  10.446   6.390  0.00  0.00     0.135 C 
HETATM   11  C   UNK N   1      26.129   8.356   4.431  0.00  0.00     0.135 C 
HETATM   12  C   UNK N   1      23.128  13.912   5.451  0.00  0.00     0.136 C 
HETATM   13  C   UNK N   1      26.959  11.856   2.969  0.00  0.00     0.135 C 
HETATM   14  N   UNK N   1      27.324   8.641   4.844  0.00  0.00    -0.361 N 
ATOM     15  HN  UNK N   1      27.405   9.128   5.737  1.00  0.00     0.162 HD
HETATM   16  N   UNK N   1      23.418  12.651   5.477  0.00  0.00    -0.360 N 
ATOM     17  HN  UNK N   1      23.489  12.152   4.591  1.00  0.00     0.162 HD
HETATM   18  N   UNK N   1      24.794  10.028   5.642  0.00  0.00    -0.360 N 
ATOM     19  HN  UNK N   1      25.465  10.700   5.272  1.00  0.00     0.162 HD
HETATM   20  N   UNK N   1      26.632  12.975   3.540  0.00  0.00    -0.360 N 
ATOM     21  HN  UNK N   1      25.710  13.355   3.325  1.00  0.00     0.162 HD
HETATM   22  N   UNK N   1      28.412  10.004   2.323  0.00  0.00    -0.360 N 
ATOM     23  HN  UNK N   1      28.373  10.181   1.320  1.00  0.00     0.162 HD
HETATM   24  S   UNK N   1      25.211  16.140   3.622  0.00  0.00    -0.095 SA
HETATM   25  S   UNK N   1      25.704  15.750   5.680  0.00  0.00    -0.095 SA
ENDROOT
BRANCH   7  26
HETATM   26  C   UNK N   1      28.155  14.853   3.719  0.00  0.00     0.136 C 
BRANCH  26  27
HETATM   27  N   UNK N   1      28.962  15.646   4.347  0.00  0.00    -0.360 N 
ATOM     28  HN  UNK N   1      28.561  16.458   4.816  1.00  0.00     0.162 HD
BRANCH  27  29
HETATM   29  C   UNK N   1      30.407  15.459   4.431  0.00  0.00     0.161 C 
BRANCH  29  30
HETATM   30  C   UNK N   1      30.850  14.997   5.827  0.00  0.00     0.074 C 
BRANCH  30  31
HETATM   31  C   UNK N   1      31.162  16.101   6.792  0.00  0.00    -0.028 A 
HETATM   32  C   UNK N   1      32.414  16.556   7.203  0.00  0.00     0.096 A 
HETATM   33  N   UNK N   1      32.258  17.560   8.105  0.00  0.00    -0.365 N 
HETATM   34  C   UNK N   1      30.930  17.725   8.253  0.00  0.00     0.042 A 
HETATM   35  H   UNK N   1      32.971  18.064   8.560  0.00  0.00     0.165 HD
HETATM   36  C   UNK N   1      30.286  18.636   9.085  0.00  0.00     0.030 A 
HETATM   37  C   UNK N   1      30.237  16.854   7.464  0.00  0.00    -0.002 A 
HETATM   38  C   UNK N   1      28.878  18.635   9.091  0.00  0.00     0.002 A 
HETATM   39  C   UNK N   1      28.160  17.732   8.274  0.00  0.00     0.001 A 
HETATM   40  C   UNK N   1      28.844  16.824   7.445  0.00  0.00     0.014 A 
ENDBRANCH  30  31
ENDBRANCH  29  30
BRANCH  29  41
HETATM   41  C   UNK N   1      31.143  16.730   4.072  0.00  0.00     0.132 C 
BRANCH  41  42
HETATM   42  N   UNK N   1      32.350  16.673   3.646  0.00  0.00    -0.382 N 
HETATM   43  H   UNK N   1      33.169  16.357   4.091  0.00  0.00     0.158 HD
ATOM     44  HN  UNK N   1      32.484  17.010   2.692  1.00  0.00     0.158 HD
ENDBRANCH  41  42
BRANCH  41  45
HETATM   45  O   UNK N   1      30.551  17.932   4.215  0.00  0.00    -0.348 OA
HETATM   46  H   UNK N   1      30.016  18.580   4.630  0.00  0.00     0.219 HD
ENDBRANCH  41  45
ENDBRANCH  29  41
ENDBRANCH  27  29
ENDBRANCH  26  27
BRANCH  26  47
HETATM   47  O   UNK N   1      27.949  14.991   2.392  0.00  0.00    -0.348 OA
HETATM   48  H   UNK N   1      27.626  14.876   1.519  0.00  0.00     0.219 HD
ENDBRANCH  26  47
ENDBRANCH   7  26
BRANCH  13  49
HETATM   49  O   UNK N   1      26.069  11.283   2.135  0.00  0.00    -0.348 OA
HETATM   50  H   UNK N   1      25.261  11.306   1.661  0.00  0.00     0.219 HD
ENDBRANCH  13  49
BRANCH   8  51
HETATM   51  C   UNK N   1      29.487  12.104   2.857  0.00  0.00     0.008 C 
HETATM   52  C   UNK N   1      29.810  12.131   1.371  0.00  0.00     0.012 C 
HETATM   53  C   UNK N   1      30.734  11.730   3.641  0.00  0.00     0.012 C 
ENDBRANCH   8  51
BRANCH   6  54
HETATM   54  N   UNK N   1      21.806  15.622   4.253  0.00  0.00    -0.360 N 
ATOM     55  HN  UNK N   1      20.953  15.390   4.760  1.00  0.00     0.162 HD
BRANCH  54  56
HETATM   56  C   UNK N   1      21.885  16.825   3.787  0.00  0.00     0.135 C 
BRANCH  56  57
HETATM   57  C   UNK N   1      22.474  17.911   4.638  0.00  0.00     0.153 C 
BRANCH  57  58
HETATM   58  C   UNK N   1      22.743  19.157   3.786  0.00  0.00     0.071 C 
BRANCH  58  59
HETATM   59  C   UNK N   1      24.167  19.623   3.828  0.00  0.00    -0.056 A 
HETATM   60  C   UNK N   1      24.750  20.284   2.739  0.00  0.00     0.007 A 
HETATM   61  C   UNK N   1      26.077  20.729   2.821  0.00  0.00     0.001 A 
HETATM   62  C   UNK N   1      26.817  20.516   3.989  0.00  0.00     0.000 A 
HETATM   63  C   UNK N   1      26.232  19.862   5.077  0.00  0.00     0.001 A 
HETATM   64  C   UNK N   1      24.909  19.421   4.997  0.00  0.00     0.007 A 
ENDBRANCH  58  59
ENDBRANCH  57  58
BRANCH  57  65
HETATM   65  N   UNK N   1      21.528  18.262   5.682  0.00  0.00    -0.419 N 
HETATM   66  H   UNK N   1      21.303  17.603   6.426  0.00  0.00     0.150 HD
HETATM   67  H   UNK N   1      21.083  19.179   5.670  0.00  0.00     0.150 HD
ENDBRANCH  57  65
ENDBRANCH  56  57
BRANCH  56  68
HETATM   68  O   UNK N   1      21.493  17.119   2.533  0.00  0.00    -0.348 OA
HETATM   69  H   UNK N   1      20.986  17.721   2.026  0.00  0.00     0.219 HD
ENDBRANCH  56  68
ENDBRANCH  54  56
ENDBRANCH   6  54
BRANCH   9  70
HETATM   70  O   UNK N   1      28.699   7.845   1.712  0.00  0.00    -0.348 OA
HETATM   71  H   UNK N   1      29.097   7.790   0.866  0.00  0.00     0.219 HD
ENDBRANCH   9  70
BRANCH  12  72
HETATM   72  O   UNK N   1      23.002  14.610   6.600  0.00  0.00    -0.348 OA
HETATM   73  H   UNK N   1      22.472  14.746   7.360  0.00  0.00     0.219 HD
ENDBRANCH  12  72
BRANCH   3  74
HETATM   74  C   UNK N   1      28.934   6.846   4.334  0.00  0.00     0.033 C 
BRANCH  74  75
HETATM   75  C   UNK N   1      30.327   6.586   4.898  0.00  0.00     0.004 C 
BRANCH  75  76
HETATM   76  C   UNK N   1      30.416   6.980   6.368  0.00  0.00     0.019 C 
BRANCH  76  77
HETATM   77  C   UNK N   1      31.424   8.094   6.604  0.00  0.00     0.111 C 
BRANCH  77  78
HETATM   78  N   UNK N   1      30.748   9.254   7.161  0.00  0.00    -0.430 N 
HETATM   79  H   UNK N   1      30.484  10.003   7.801  0.00  0.00     0.149 HD
HETATM   80  H   UNK N   1      30.104   9.454   6.397  0.00  0.00     0.149 HD
ENDBRANCH  77  78
ENDBRANCH  76  77
ENDBRANCH  75  76
ENDBRANCH  74  75
ENDBRANCH   3  74
BRANCH   4  81
HETATM   81  C   UNK N   1      22.486  12.131   7.712  0.00  0.00     0.072 C 
BRANCH  81  82
HETATM   82  C   UNK N   1      22.865  12.176   9.170  0.00  0.00    -0.056 A 
HETATM   83  C   UNK N   1      24.210  12.164   9.568  0.00  0.00     0.010 A 
HETATM   84  C   UNK N   1      24.550  12.169  10.922  0.00  0.00     0.037 A 
HETATM   85  C   UNK N   1      23.545  12.172  11.890  0.00  0.00     0.065 A 
HETATM   86  C   UNK N   1      22.201  12.172  11.502  0.00  0.00     0.037 A 
HETATM   87  C   UNK N   1      21.863  12.170  10.144  0.00  0.00     0.010 A 
BRANCH  85  88
HETATM   88  O   UNK N   1      23.870  12.171  13.193  0.00  0.00    -0.361 OA
HETATM   89  H   UNK N   1      24.439  11.669  13.742  0.00  0.00     0.217 HD
ENDBRANCH  85  88
ENDBRANCH  81  82
ENDBRANCH   4  81
BRANCH  11  90
HETATM   90  O   UNK N   1      25.929   7.784   3.226  0.00  0.00    -0.348 OA
HETATM   91  H   UNK N   1      25.914   7.101   2.583  0.00  0.00     0.219 HD
ENDBRANCH  11  90
BRANCH  10  92
HETATM   92  O   UNK N   1      22.938   9.562   6.906  0.00  0.00    -0.348 OA
HETATM   93  H   UNK N   1      23.088   9.192   7.754  0.00  0.00     0.219 HD
ENDBRANCH  10  92
BRANCH   5  94
HETATM   94  C   UNK N   1      25.127   7.796   6.610  0.00  0.00     0.074 C 
BRANCH  94  95
HETATM   95  C   UNK N   1      25.024   6.325   6.361  0.00  0.00    -0.028 A 
HETATM   96  C   UNK N   1      23.977   5.661   5.735  0.00  0.00     0.096 A 
HETATM   97  N   UNK N   1      24.254   4.332   5.680  0.00  0.00    -0.365 N 
HETATM   98  C   UNK N   1      25.459   4.175   6.258  0.00  0.00     0.042 A 
HETATM   99  H   UNK N   1      23.687   3.625   5.294  0.00  0.00     0.165 HD
HETATM  100  C   UNK N   1      26.164   2.986   6.425  0.00  0.00     0.030 A 
HETATM  101  C   UNK N   1      25.956   5.371   6.685  0.00  0.00    -0.002 A 
HETATM  102  C   UNK N   1      27.423   3.051   7.052  0.00  0.00     0.002 A 
HETATM  103  C   UNK N   1      27.938   4.291   7.492  0.00  0.00     0.001 A 
HETATM  104  C   UNK N   1      27.199   5.471   7.308  0.00  0.00     0.014 A 
ENDBRANCH  94  95
ENDBRANCH   5  94
TORSDOF 32
ENDMDL
MODEL 5
REMARK VINA RESULT:      -7.0      3.160      4.892
REMARK  32 active torsions:
REMARK  status: ('A' for Active; 'I' for Inactive)
REMARK    1  A    between atoms: C_11  and  C_10 
REMARK    2  A    between atoms: C_18  and  C_10 
REMARK    3  A    between atoms: C_23  and  C_11 
REMARK    4  A    between atoms: C_43  and  C_18 
REMARK    5  A    between atoms: N_58  and  C_23 
REMARK    6  A    between atoms: C_33  and  C_24 
REMARK    7  A    between atoms: C_40  and  C_24 
REMARK    8  A    between atoms: C_34  and  C_25 
REMARK    9  A    between atoms: C_45  and  C_25 
REMARK   10  A    between atoms: C_35  and  C_26 
REMARK   11  A    between atoms: C_44  and  C_26 
REMARK   12  A    between atoms: C_36  and  C_27 
REMARK   13  A    between atoms: C_46  and  C_27 
REMARK   14  A    between atoms: C_49  and  C_32 
REMARK   15  A    between atoms: O_78  and  C_37 
REMARK   16  A    between atoms: C_51  and  C_40 
REMARK   17  A    between atoms: C_40  and  N_59 
REMARK   18  A    between atoms: C_50  and  C_44 
REMARK   19  A    between atoms: C_44  and  N_66 
REMARK   20  A    between atoms: C_47  and  N_72 
REMARK   21  A    between atoms: C_48  and  C_55 
REMARK   22  A    between atoms: N_60  and  C_50 
REMARK   23  A    between atoms: O_79  and  C_50 
REMARK   24  A    between atoms: N_72  and  C_51 
REMARK   25  A    between atoms: C_51  and  O_80 
REMARK   26  A    between atoms: C_52  and  O_81 
REMARK   27  A    between atoms: C_53  and  O_82 
REMARK   28  A    between atoms: C_54  and  O_83 
REMARK   29  A    between atoms: N_66  and  C_55 
REMARK   30  A    between atoms: C_55  and  O_84 
REMARK   31  A    between atoms: C_56  and  O_85 
REMARK   32  A    between atoms: C_57  and  O_86 
ROOT
HETATM    1  C   UNK N   1      24.686  15.702   3.031  0.00  0.00     0.119 C 
HETATM    2  C   UNK N   1      27.024  14.817   5.618  0.00  0.00     0.119 C 
HETATM    3  C   UNK N   1      28.447   8.804   4.234  0.00  0.00     0.158 C 
HETATM    4  C   UNK N   1      23.761  12.896   6.439  0.00  0.00     0.162 C 
HETATM    5  C   UNK N   1      24.802   9.472   5.152  0.00  0.00     0.162 C 
HETATM    6  C   UNK N   1      23.375  15.595   3.819  0.00  0.00     0.168 C 
HETATM    7  C   UNK N   1      27.895  14.299   4.478  0.00  0.00     0.168 C 
HETATM    8  C   UNK N   1      28.557  11.650   3.270  0.00  0.00     0.161 C 
HETATM    9  C   UNK N   1      28.585   9.235   2.778  0.00  0.00     0.135 C 
HETATM   10  C   UNK N   1      23.798  11.417   6.137  0.00  0.00     0.135 C 
HETATM   11  C   UNK N   1      26.015   9.086   4.348  0.00  0.00     0.135 C 
HETATM   12  C   UNK N   1      23.542  14.930   5.154  0.00  0.00     0.136 C 
HETATM   13  C   UNK N   1      27.308  12.471   2.954  0.00  0.00     0.135 C 
HETATM   14  N   UNK N   1      27.200   9.248   4.847  0.00  0.00    -0.361 N 
ATOM     15  HN  UNK N   1      27.266   9.729   5.744  1.00  0.00     0.162 HD
HETATM   16  N   UNK N   1      23.697  13.646   5.200  0.00  0.00    -0.360 N 
ATOM     17  HN  UNK N   1      23.780  13.136   4.321  1.00  0.00     0.162 HD
HETATM   18  N   UNK N   1      24.777  10.896   5.461  0.00  0.00    -0.360 N 
ATOM     19  HN  UNK N   1      25.539  11.491   5.141  1.00  0.00     0.162 HD
HETATM   20  N   UNK N   1      27.058  13.622   3.501  0.00  0.00    -0.360 N 
ATOM     21  HN  UNK N   1      26.198  14.094   3.221  1.00  0.00     0.162 HD
HETATM   22  N   UNK N   1      28.603  10.475   2.413  0.00  0.00    -0.360 N 
ATOM     23  HN  UNK N   1      28.655  10.648   1.410  1.00  0.00     0.162 HD
HETATM   24  S   UNK N   1      25.972  16.918   3.484  0.00  0.00    -0.095 SA
HETATM   25  S   UNK N   1      26.272  16.492   5.572  0.00  0.00    -0.095 SA
ENDROOT
BRANCH   7  26
HETATM   26  C   UNK N   1      28.752  15.333   3.793  0.00  0.00     0.136 C 
BRANCH  26  27
HETATM   27  N   UNK N   1      29.526  16.100   4.488  0.00  0.00    -0.360 N 
ATOM     28  HN  UNK N   1      29.094  16.860   5.015  1.00  0.00     0.162 HD
BRANCH  27  29
HETATM   29  C   UNK N   1      30.976  15.956   4.574  0.00  0.00     0.161 C 
BRANCH  29  30
HETATM   30  C   UNK N   1      31.609  17.014   5.488  0.00  0.00     0.074 C 
BRANCH  30  31
HETATM   31  C   UNK N   1      31.323  16.842   6.950  0.00  0.00    -0.028 A 
HETATM   32  C   UNK N   1      32.050  16.113   7.890  0.00  0.00     0.096 A 
HETATM   33  N   UNK N   1      31.439  16.196   9.100  0.00  0.00    -0.365 N 
HETATM   34  C   UNK N   1      30.348  16.963   8.915  0.00  0.00     0.042 A 
HETATM   35  H   UNK N   1      31.733  15.778   9.942  0.00  0.00     0.165 HD
HETATM   36  C   UNK N   1      29.403  17.320   9.872  0.00  0.00     0.030 A 
HETATM   37  C   UNK N   1      30.252  17.375   7.618  0.00  0.00    -0.002 A 
HETATM   38  C   UNK N   1      28.328  18.131   9.459  0.00  0.00     0.002 A 
HETATM   39  C   UNK N   1      28.229  18.557   8.115  0.00  0.00     0.001 A 
HETATM   40  C   UNK N   1      29.202  18.176   7.174  0.00  0.00     0.014 A 
ENDBRANCH  30  31
ENDBRANCH  29  30
BRANCH  29  41
HETATM   41  C   UNK N   1      31.613  16.037   3.205  0.00  0.00     0.132 C 
BRANCH  41  42
HETATM   42  N   UNK N   1      32.410  15.112   2.814  0.00  0.00    -0.382 N 
HETATM   43  H   UNK N   1      33.183  15.152   2.206  0.00  0.00     0.158 HD
ATOM     44  HN  UNK N   1      32.212  14.186   3.194  1.00  0.00     0.158 HD
ENDBRANCH  41  42
BRANCH  41  45
HETATM   45  O   UNK N   1      31.372  17.084   2.393  0.00  0.00    -0.348 OA
HETATM   46  H   UNK N   1      30.872  17.615   1.804  0.00  0.00     0.219 HD
ENDBRANCH  41  45
ENDBRANCH  29  41
ENDBRANCH  27  29
ENDBRANCH  26  27
BRANCH  26  47
HETATM   47  O   UNK N   1      28.725  15.421   2.445  0.00  0.00    -0.348 OA
HETATM   48  H   UNK N   1      28.951  15.348   1.539  0.00  0.00     0.219 HD
ENDBRANCH  26  47
ENDBRANCH   7  26
BRANCH  13  49
HETATM   49  O   UNK N   1      26.426  11.988   2.057  0.00  0.00    -0.348 OA
HETATM   50  H   UNK N   1      25.546  11.880   1.754  0.00  0.00     0.219 HD
ENDBRANCH  13  49
BRANCH   8  51
HETATM   51  C   UNK N   1      29.849  12.455   3.026  0.00  0.00     0.008 C 
HETATM   52  C   UNK N   1      30.346  12.340   1.593  0.00  0.00     0.012 C 
HETATM   53  C   UNK N   1      30.955  12.040   3.982  0.00  0.00     0.012 C 
ENDBRANCH   8  51
BRANCH   6  54
HETATM   54  N   UNK N   1      22.495  16.760   3.866  0.00  0.00    -0.360 N 
ATOM     55  HN  UNK N   1      22.951  17.663   3.992  1.00  0.00     0.162 HD
BRANCH  54  56
HETATM   56  C   UNK N   1      21.207  16.779   3.767  0.00  0.00     0.135 C 
BRANCH  56  57
HETATM   57  C   UNK N   1      20.564  16.575   2.426  0.00  0.00     0.153 C 
BRANCH  57  58
HETATM   58  C   UNK N   1      19.923  15.184   2.358  0.00  0.00     0.071 C 
BRANCH  58  59
HETATM   59  C   UNK N   1      20.890  14.089   2.017  0.00  0.00    -0.056 A 
HETATM   60  C   UNK N   1      21.022  12.955   2.829  0.00  0.00     0.007 A 
HETATM   61  C   UNK N   1      21.916  11.938   2.468  0.00  0.00     0.001 A 
HETATM   62  C   UNK N   1      22.675  12.054   1.298  0.00  0.00     0.000 A 
HETATM   63  C   UNK N   1      22.538  13.183   0.486  0.00  0.00     0.001 A 
HETATM   64  C   UNK N   1      21.644  14.195   0.843  0.00  0.00     0.007 A 
ENDBRANCH  58  59
ENDBRANCH  57  58
BRANCH  57  65
HETATM   65  N   UNK N   1      19.524  17.571   2.242  0.00  0.00    -0.419 N 
HETATM   66  H   UNK N   1      18.851  17.765   2.982  0.00  0.00     0.150 HD
HETATM   67  H   UNK N   1      19.467  18.082   1.362  0.00  0.00     0.150 HD
ENDBRANCH  57  65
ENDBRANCH  56  57
BRANCH  56  68
HETATM   68  O   UNK N   1      20.422  16.929   4.849  0.00  0.00    -0.348 OA
HETATM   69  H   UNK N   1      19.665  16.588   5.283  0.00  0.00     0.219 HD
ENDBRANCH  56  68
ENDBRANCH  54  56
ENDBRANCH   6  54
BRANCH   9  70
HETATM   70  O   UNK N   1      28.707   8.293   1.821  0.00  0.00    -0.348 OA
HETATM   71  H   UNK N   1      28.454   8.182   0.927  0.00  0.00     0.219 HD
ENDBRANCH   9  70
BRANCH  12  72
HETATM   72  O   UNK N   1      23.407  15.645   6.292  0.00  0.00    -0.348 OA
HETATM   73  H   UNK N   1      23.646  15.700   7.196  0.00  0.00     0.219 HD
ENDBRANCH  12  72
BRANCH   3  74
HETATM   74  C   UNK N   1      28.647   7.292   4.452  0.00  0.00     0.033 C 
BRANCH  74  75
HETATM   75  C   UNK N   1      28.434   6.800   5.880  0.00  0.00     0.004 C 
BRANCH  75  76
HETATM   76  C   UNK N   1      29.737   6.310   6.503  0.00  0.00     0.019 C 
BRANCH  76  77
HETATM   77  C   UNK N   1      29.637   6.178   8.014  0.00  0.00     0.111 C 
BRANCH  77  78
HETATM   78  N   UNK N   1      30.212   7.353   8.647  0.00  0.00    -0.430 N 
HETATM   79  H   UNK N   1      30.414   8.327   8.874  0.00  0.00     0.149 HD
HETATM   80  H   UNK N   1      30.833   6.895   9.313  0.00  0.00     0.149 HD
ENDBRANCH  77  78
ENDBRANCH  76  77
ENDBRANCH  75  76
ENDBRANCH  74  75
ENDBRANCH   3  74
BRANCH   4  81
HETATM   81  C   UNK N   1      22.557  13.240   7.361  0.00  0.00     0.072 C 
BRANCH  81  82
HETATM   82  C   UNK N   1      22.686  12.836   8.807  0.00  0.00    -0.056 A 
HETATM   83  C   UNK N   1      23.945  12.615   9.387  0.00  0.00     0.010 A 
HETATM   84  C   UNK N   1      24.051  12.207  10.717  0.00  0.00     0.037 A 
HETATM   85  C   UNK N   1      22.898  12.002  11.475  0.00  0.00     0.065 A 
HETATM   86  C   UNK N   1      21.639  12.209  10.902  0.00  0.00     0.037 A 
HETATM   87  C   UNK N   1      21.534  12.621   9.570  0.00  0.00     0.010 A 
BRANCH  85  88
HETATM   88  O   UNK N   1      22.999  11.603  12.754  0.00  0.00    -0.361 OA
HETATM   89  H   UNK N   1      23.439  11.913  13.520  0.00  0.00     0.217 HD
ENDBRANCH  85  88
ENDBRANCH  81  82
ENDBRANCH   4  81
BRANCH  11  90
HETATM   90  O   UNK N   1      25.843   8.530   3.131  0.00  0.00    -0.348 OA
HETATM   91  H   UNK N   1      25.486   8.422   2.270  0.00  0.00     0.219 HD
ENDBRANCH  11  90
BRANCH  10  92
HETATM   92  O   UNK N   1      22.796  10.632   6.587  0.00  0.00    -0.348 OA
HETATM   93  H   UNK N   1      22.886  10.178   7.402  0.00  0.00     0.219 HD
ENDBRANCH  10  92
BRANCH   5  94
HETATM   94  C   UNK N   1      24.805   8.646   6.448  0.00  0.00     0.074 C 
BRANCH  94  95
HETATM   95  C   UNK N   1      24.412   7.223   6.210  0.00  0.00    -0.028 A 
HETATM   96  C   UNK N   1      23.533   6.756   5.242  0.00  0.00     0.096 A 
HETATM   97  N   UNK N   1      23.445   5.403   5.327  0.00  0.00    -0.365 N 
HETATM   98  C   UNK N   1      24.264   5.036   6.330  0.00  0.00     0.042 A 
HETATM   99  H   UNK N   1      22.893   4.810   4.768  0.00  0.00     0.165 HD
HETATM  100  C   UNK N   1      24.513   3.742   6.782  0.00  0.00     0.030 A 
HETATM  101  C   UNK N   1      24.869   6.122   6.890  0.00  0.00    -0.002 A 
HETATM  102  C   UNK N   1      25.421   3.582   7.846  0.00  0.00     0.002 A 
HETATM  103  C   UNK N   1      26.049   4.708   8.425  0.00  0.00     0.001 A 
HETATM  104  C   UNK N   1      25.774   5.999   7.943  0.00  0.00     0.014 A 
ENDBRANCH  94  95
ENDBRANCH   5  94
TORSDOF 32
ENDMDL
MODEL 6
REMARK VINA RESULT:      -6.9      1.661      2.331
REMARK  32 active torsions:
REMARK  status: ('A' for Active; 'I' for Inactive)
REMARK    1  A    between atoms: C_11  and  C_10 
REMARK    2  A    between atoms: C_18  and  C_10 
REMARK    3  A    between atoms: C_23  and  C_11 
REMARK    4  A    between atoms: C_43  and  C_18 
REMARK    5  A    between atoms: N_58  and  C_23 
REMARK    6  A    between atoms: C_33  and  C_24 
REMARK    7  A    between atoms: C_40  and  C_24 
REMARK    8  A    between atoms: C_34  and  C_25 
REMARK    9  A    between atoms: C_45  and  C_25 
REMARK   10  A    between atoms: C_35  and  C_26 
REMARK   11  A    between atoms: C_44  and  C_26 
REMARK   12  A    between atoms: C_36  and  C_27 
REMARK   13  A    between atoms: C_46  and  C_27 
REMARK   14  A    between atoms: C_49  and  C_32 
REMARK   15  A    between atoms: O_78  and  C_37 
REMARK   16  A    between atoms: C_51  and  C_40 
REMARK   17  A    between atoms: C_40  and  N_59 
REMARK   18  A    between atoms: C_50  and  C_44 
REMARK   19  A    between atoms: C_44  and  N_66 
REMARK   20  A    between atoms: C_47  and  N_72 
REMARK   21  A    between atoms: C_48  and  C_55 
REMARK   22  A    between atoms: N_60  and  C_50 
REMARK   23  A    between atoms: O_79  and  C_50 
REMARK   24  A    between atoms: N_72  and  C_51 
REMARK   25  A    between atoms: C_51  and  O_80 
REMARK   26  A    between atoms: C_52  and  O_81 
REMARK   27  A    between atoms: C_53  and  O_82 
REMARK   28  A    between atoms: C_54  and  O_83 
REMARK   29  A    between atoms: N_66  and  C_55 
REMARK   30  A    between atoms: C_55  and  O_84 
REMARK   31  A    between atoms: C_56  and  O_85 
REMARK   32  A    between atoms: C_57  and  O_86 
ROOT
HETATM    1  C   UNK N   1      26.922  17.985   4.092  0.00  0.00     0.119 C 
HETATM    2  C   UNK N   1      28.562  15.844   6.472  0.00  0.00     0.119 C 
HETATM    3  C   UNK N   1      30.900  11.220   2.832  0.00  0.00     0.158 C 
HETATM    4  C   UNK N   1      25.409  13.915   5.310  0.00  0.00     0.162 C 
HETATM    5  C   UNK N   1      27.094  11.516   2.889  0.00  0.00     0.162 C 
HETATM    6  C   UNK N   1      25.467  17.565   4.324  0.00  0.00     0.168 C 
HETATM    7  C   UNK N   1      29.753  15.911   5.522  0.00  0.00     0.168 C 
HETATM    8  C   UNK N   1      30.977  14.165   3.432  0.00  0.00     0.161 C 
HETATM    9  C   UNK N   1      31.378  12.302   1.870  0.00  0.00     0.135 C 
HETATM   10  C   UNK N   1      25.673  12.774   4.358  0.00  0.00     0.135 C 
HETATM   11  C   UNK N   1      28.510  11.519   2.377  0.00  0.00     0.135 C 
HETATM   12  C   UNK N   1      25.337  16.325   5.160  0.00  0.00     0.136 C 
HETATM   13  C   UNK N   1      29.781  15.091   3.212  0.00  0.00     0.135 C 
HETATM   14  N   UNK N   1      29.496  11.363   3.203  0.00  0.00    -0.361 N 
ATOM     15  HN  UNK N   1      29.272  11.340   4.198  1.00  0.00     0.162 HD
HETATM   16  N   UNK N   1      25.602  15.178   4.624  0.00  0.00    -0.360 N 
ATOM     17  HN  UNK N   1      25.968  15.160   3.672  1.00  0.00     0.162 HD
HETATM   18  N   UNK N   1      26.844  12.606   3.823  0.00  0.00    -0.360 N 
ATOM     19  HN  UNK N   1      27.600  13.247   4.058  1.00  0.00     0.162 HD
HETATM   20  N   UNK N   1      29.280  15.837   4.150  0.00  0.00    -0.360 N 
ATOM     21  HN  UNK N   1      28.483  16.424   3.902  1.00  0.00     0.162 HD
HETATM   22  N   UNK N   1      31.368  13.559   2.168  0.00  0.00    -0.360 N 
ATOM     23  HN  UNK N   1      31.668  14.199   1.433  1.00  0.00     0.162 HD
HETATM   24  S   UNK N   1      27.911  18.765   5.414  0.00  0.00    -0.095 SA
HETATM   25  S   UNK N   1      27.685  17.359   7.028  0.00  0.00    -0.095 SA
ENDROOT
BRANCH   7  26
HETATM   26  C   UNK N   1      30.653  17.108   5.692  0.00  0.00     0.136 C 
BRANCH  26  27
HETATM   27  N   UNK N   1      31.202  17.352   6.837  0.00  0.00    -0.360 N 
ATOM     28  HN  UNK N   1      30.723  17.995   7.467  1.00  0.00     0.162 HD
BRANCH  27  29
HETATM   29  C   UNK N   1      32.460  16.770   7.292  0.00  0.00     0.161 C 
BRANCH  29  30
HETATM   30  C   UNK N   1      32.461  16.505   8.805  0.00  0.00     0.074 C 
BRANCH  30  31
HETATM   31  C   UNK N   1      33.099  15.213   9.222  0.00  0.00    -0.028 A 
HETATM   32  C   UNK N   1      32.733  13.917   8.862  0.00  0.00     0.096 A 
HETATM   33  N   UNK N   1      33.556  13.027   9.476  0.00  0.00    -0.365 N 
HETATM   34  C   UNK N   1      34.417  13.758  10.207  0.00  0.00     0.042 A 
HETATM   35  H   UNK N   1      33.527  12.046   9.402  0.00  0.00     0.165 HD
HETATM   36  C   UNK N   1      35.443  13.282  11.019  0.00  0.00     0.030 A 
HETATM   37  C   UNK N   1      34.167  15.093  10.070  0.00  0.00    -0.002 A 
HETATM   38  C   UNK N   1      36.227  14.228  11.706  0.00  0.00     0.002 A 
HETATM   39  C   UNK N   1      35.967  15.610  11.564  0.00  0.00     0.001 A 
HETATM   40  C   UNK N   1      34.922  16.057  10.736  0.00  0.00     0.014 A 
ENDBRANCH  30  31
ENDBRANCH  29  30
BRANCH  29  41
HETATM   41  C   UNK N   1      33.631  17.660   6.943  0.00  0.00     0.132 C 
BRANCH  41  42
HETATM   42  N   UNK N   1      34.259  18.287   7.868  0.00  0.00    -0.382 N 
HETATM   43  H   UNK N   1      35.170  18.659   7.881  0.00  0.00     0.158 HD
ATOM     44  HN  UNK N   1      33.728  18.424   8.729  1.00  0.00     0.158 HD
ENDBRANCH  41  42
BRANCH  41  45
HETATM   45  O   UNK N   1      34.014  17.822   5.662  0.00  0.00    -0.348 OA
HETATM   46  H   UNK N   1      34.123  18.280   4.851  0.00  0.00     0.219 HD
ENDBRANCH  41  45
ENDBRANCH  29  41
ENDBRANCH  27  29
ENDBRANCH  26  27
BRANCH  26  47
HETATM   47  O   UNK N   1      30.904  17.900   4.626  0.00  0.00    -0.348 OA
HETATM   48  H   UNK N   1      31.166  18.204   3.780  0.00  0.00     0.219 HD
ENDBRANCH  26  47
ENDBRANCH   7  26
BRANCH  13  49
HETATM   49  O   UNK N   1      29.224  15.149   1.987  0.00  0.00    -0.348 OA
HETATM   50  H   UNK N   1      28.819  15.636   1.296  0.00  0.00     0.219 HD
ENDBRANCH  13  49
BRANCH   8  51
HETATM   51  C   UNK N   1      32.199  14.928   3.980  0.00  0.00     0.008 C 
HETATM   52  C   UNK N   1      33.025  15.574   2.879  0.00  0.00     0.012 C 
HETATM   53  C   UNK N   1      33.089  14.027   4.821  0.00  0.00     0.012 C 
ENDBRANCH   8  51
BRANCH   6  54
HETATM   54  N   UNK N   1      24.494  18.597   4.675  0.00  0.00    -0.360 N 
ATOM     55  HN  UNK N   1      24.864  19.538   4.806  1.00  0.00     0.162 HD
BRANCH  54  56
HETATM   56  C   UNK N   1      23.220  18.455   4.839  0.00  0.00     0.135 C 
BRANCH  56  57
HETATM   57  C   UNK N   1      22.330  18.308   3.639  0.00  0.00     0.153 C 
BRANCH  57  58
HETATM   58  C   UNK N   1      21.403  17.100   3.819  0.00  0.00     0.071 C 
BRANCH  58  59
HETATM   59  C   UNK N   1      21.580  16.042   2.771  0.00  0.00    -0.056 A 
HETATM   60  C   UNK N   1      22.730  15.242   2.731  0.00  0.00     0.007 A 
HETATM   61  C   UNK N   1      22.852  14.244   1.754  0.00  0.00     0.001 A 
HETATM   62  C   UNK N   1      21.828  14.046   0.822  0.00  0.00     0.000 A 
HETATM   63  C   UNK N   1      20.679  14.841   0.867  0.00  0.00     0.001 A 
HETATM   64  C   UNK N   1      20.555  15.833   1.843  0.00  0.00     0.007 A 
ENDBRANCH  58  59
ENDBRANCH  57  58
BRANCH  57  65
HETATM   65  N   UNK N   1      21.513  19.500   3.507  0.00  0.00    -0.419 N 
HETATM   66  H   UNK N   1      20.670  19.495   2.933  0.00  0.00     0.150 HD
HETATM   67  H   UNK N   1      21.785  20.354   3.993  0.00  0.00     0.150 HD
ENDBRANCH  57  65
ENDBRANCH  56  57
BRANCH  56  68
HETATM   68  O   UNK N   1      22.674  18.387   6.067  0.00  0.00    -0.348 OA
HETATM   69  H   UNK N   1      22.372  18.907   6.786  0.00  0.00     0.219 HD
ENDBRANCH  56  68
ENDBRANCH  54  56
ENDBRANCH   6  54
BRANCH   9  70
HETATM   70  O   UNK N   1      31.845  11.944   0.657  0.00  0.00    -0.348 OA
HETATM   71  H   UNK N   1      31.508  11.553  -0.124  0.00  0.00     0.219 HD
ENDBRANCH   9  70
BRANCH  12  72
HETATM   72  O   UNK N   1      24.831  16.397   6.410  0.00  0.00    -0.348 OA
HETATM   73  H   UNK N   1      24.695  16.954   7.152  0.00  0.00     0.219 HD
ENDBRANCH  12  72
BRANCH   3  74
HETATM   74  C   UNK N   1      31.186   9.787   2.343  0.00  0.00     0.033 C 
BRANCH  74  75
HETATM   75  C   UNK N   1      30.504   8.675   3.132  0.00  0.00     0.004 C 
BRANCH  75  76
HETATM   76  C   UNK N   1      31.211   8.416   4.458  0.00  0.00     0.019 C 
BRANCH  76  77
HETATM   77  C   UNK N   1      30.408   8.922   5.645  0.00  0.00     0.111 C 
BRANCH  77  78
HETATM   78  N   UNK N   1      30.011   7.801   6.481  0.00  0.00    -0.430 N 
HETATM   79  H   UNK N   1      29.986   6.874   6.906  0.00  0.00     0.149 HD
HETATM   80  H   UNK N   1      29.232   8.231   6.977  0.00  0.00     0.149 HD
ENDBRANCH  77  78
ENDBRANCH  76  77
ENDBRANCH  75  76
ENDBRANCH  74  75
ENDBRANCH   3  74
BRANCH   4  81
HETATM   81  C   UNK N   1      23.974  13.818   5.901  0.00  0.00     0.072 C 
BRANCH  81  82
HETATM   82  C   UNK N   1      23.875  13.441   7.358  0.00  0.00    -0.056 A 
HETATM   83  C   UNK N   1      22.641  13.116   7.939  0.00  0.00     0.010 A 
HETATM   84  C   UNK N   1      22.556  12.803   9.296  0.00  0.00     0.037 A 
HETATM   85  C   UNK N   1      23.705  12.827  10.088  0.00  0.00     0.065 A 
HETATM   86  C   UNK N   1      24.938  13.160   9.519  0.00  0.00     0.037 A 
HETATM   87  C   UNK N   1      25.022  13.470   8.157  0.00  0.00     0.010 A 
BRANCH  85  88
HETATM   88  O   UNK N   1      23.624  12.531  11.395  0.00  0.00    -0.361 OA
HETATM   89  H   UNK N   1      24.232  12.315  12.073  0.00  0.00     0.217 HD
ENDBRANCH  85  88
ENDBRANCH  81  82
ENDBRANCH   4  81
BRANCH  11  90
HETATM   90  O   UNK N   1      28.727  11.638   1.051  0.00  0.00    -0.348 OA
HETATM   91  H   UNK N   1      28.987  12.049   0.249  0.00  0.00     0.219 HD
ENDBRANCH  11  90
BRANCH  10  92
HETATM   92  O   UNK N   1      24.672  11.914   4.073  0.00  0.00    -0.348 OA
HETATM   93  H   UNK N   1      24.865  11.025   3.852  0.00  0.00     0.219 HD
ENDBRANCH  10  92
BRANCH   5  94
HETATM   94  C   UNK N   1      26.834  10.163   3.568  0.00  0.00     0.074 C 
BRANCH  94  95
HETATM   95  C   UNK N   1      26.482   9.095   2.581  0.00  0.00    -0.028 A 
HETATM   96  C   UNK N   1      26.925   7.779   2.590  0.00  0.00     0.096 A 
HETATM   97  N   UNK N   1      26.375   7.111   1.543  0.00  0.00    -0.365 N 
HETATM   98  C   UNK N   1      25.597   7.999   0.898  0.00  0.00     0.042 A 
HETATM   99  H   UNK N   1      26.518   6.166   1.303  0.00  0.00     0.165 HD
HETATM  100  C   UNK N   1      24.821   7.770  -0.236  0.00  0.00     0.030 A 
HETATM  101  C   UNK N   1      25.640   9.219   1.504  0.00  0.00    -0.002 A 
HETATM  102  C   UNK N   1      24.069   8.846  -0.746  0.00  0.00     0.002 A 
HETATM  103  C   UNK N   1      24.113  10.110  -0.115  0.00  0.00     0.001 A 
HETATM  104  C   UNK N   1      24.907  10.304   1.028  0.00  0.00     0.014 A 
ENDBRANCH  94  95
ENDBRANCH   5  94
TORSDOF 32
ENDMDL
MODEL 7
REMARK VINA RESULT:      -6.8      3.262      4.902
REMARK  32 active torsions:
REMARK  status: ('A' for Active; 'I' for Inactive)
REMARK    1  A    between atoms: C_11  and  C_10 
REMARK    2  A    between atoms: C_18  and  C_10 
REMARK    3  A    between atoms: C_23  and  C_11 
REMARK    4  A    between atoms: C_43  and  C_18 
REMARK    5  A    between atoms: N_58  and  C_23 
REMARK    6  A    between atoms: C_33  and  C_24 
REMARK    7  A    between atoms: C_40  and  C_24 
REMARK    8  A    between atoms: C_34  and  C_25 
REMARK    9  A    between atoms: C_45  and  C_25 
REMARK   10  A    between atoms: C_35  and  C_26 
REMARK   11  A    between atoms: C_44  and  C_26 
REMARK   12  A    between atoms: C_36  and  C_27 
REMARK   13  A    between atoms: C_46  and  C_27 
REMARK   14  A    between atoms: C_49  and  C_32 
REMARK   15  A    between atoms: O_78  and  C_37 
REMARK   16  A    between atoms: C_51  and  C_40 
REMARK   17  A    between atoms: C_40  and  N_59 
REMARK   18  A    between atoms: C_50  and  C_44 
REMARK   19  A    between atoms: C_44  and  N_66 
REMARK   20  A    between atoms: C_47  and  N_72 
REMARK   21  A    between atoms: C_48  and  C_55 
REMARK   22  A    between atoms: N_60  and  C_50 
REMARK   23  A    between atoms: O_79  and  C_50 
REMARK   24  A    between atoms: N_72  and  C_51 
REMARK   25  A    between atoms: C_51  and  O_80 
REMARK   26  A    between atoms: C_52  and  O_81 
REMARK   27  A    between atoms: C_53  and  O_82 
REMARK   28  A    between atoms: C_54  and  O_83 
REMARK   29  A    between atoms: N_66  and  C_55 
REMARK   30  A    between atoms: C_55  and  O_84 
REMARK   31  A    between atoms: C_56  and  O_85 
REMARK   32  A    between atoms: C_57  and  O_86 
ROOT
HETATM    1  C   UNK N   1      24.885  15.644   3.039  0.00  0.00     0.119 C 
HETATM    2  C   UNK N   1      27.305  14.673   5.517  0.00  0.00     0.119 C 
HETATM    3  C   UNK N   1      28.762   8.749   3.816  0.00  0.00     0.158 C 
HETATM    4  C   UNK N   1      24.090  12.671   6.336  0.00  0.00     0.162 C 
HETATM    5  C   UNK N   1      25.137   9.325   4.863  0.00  0.00     0.162 C 
HETATM    6  C   UNK N   1      23.598  15.483   3.856  0.00  0.00     0.168 C 
HETATM    7  C   UNK N   1      28.150  14.219   4.331  0.00  0.00     0.168 C 
HETATM    8  C   UNK N   1      28.811  11.638   2.983  0.00  0.00     0.161 C 
HETATM    9  C   UNK N   1      28.855   9.250   2.379  0.00  0.00     0.135 C 
HETATM   10  C   UNK N   1      24.136  11.208   5.964  0.00  0.00     0.135 C 
HETATM   11  C   UNK N   1      26.331   8.993   4.009  0.00  0.00     0.135 C 
HETATM   12  C   UNK N   1      23.810  14.759   5.153  0.00  0.00     0.136 C 
HETATM   13  C   UNK N   1      27.543  12.456   2.740  0.00  0.00     0.135 C 
HETATM   14  N   UNK N   1      27.527   9.148   4.482  0.00  0.00    -0.361 N 
ATOM     15  HN  UNK N   1      27.612   9.587   5.399  1.00  0.00     0.162 HD
HETATM   16  N   UNK N   1      23.982  13.476   5.135  0.00  0.00    -0.360 N 
ATOM     17  HN  UNK N   1      24.046  13.009   4.231  1.00  0.00     0.162 HD
HETATM   18  N   UNK N   1      25.102  10.732   5.238  0.00  0.00    -0.360 N 
ATOM     19  HN  UNK N   1      25.848  11.352   4.926  1.00  0.00     0.162 HD
HETATM   20  N   UNK N   1      27.295  13.577   3.347  0.00  0.00    -0.360 N 
ATOM     21  HN  UNK N   1      26.422  14.050   3.112  1.00  0.00     0.162 HD
HETATM   22  N   UNK N   1      28.848  10.505   2.072  0.00  0.00    -0.360 N 
ATOM     23  HN  UNK N   1      28.869  10.725   1.076  1.00  0.00     0.162 HD
HETATM   24  S   UNK N   1      26.168  16.855   3.513  0.00  0.00    -0.095 SA
HETATM   25  S   UNK N   1      26.531  16.337   5.570  0.00  0.00    -0.095 SA
ENDROOT
BRANCH   7  26
HETATM   26  C   UNK N   1      28.975  15.295   3.672  0.00  0.00     0.136 C 
BRANCH  26  27
HETATM   27  N   UNK N   1      29.668  16.116   4.392  0.00  0.00    -0.360 N 
ATOM     28  HN  UNK N   1      29.166  16.849   4.893  1.00  0.00     0.162 HD
BRANCH  27  29
HETATM   29  C   UNK N   1      31.119  16.067   4.537  0.00  0.00     0.161 C 
BRANCH  29  30
HETATM   30  C   UNK N   1      31.648  17.188   5.442  0.00  0.00     0.074 C 
BRANCH  30  31
HETATM   31  C   UNK N   1      31.354  17.016   6.903  0.00  0.00    -0.028 A 
HETATM   32  C   UNK N   1      32.088  16.303   7.850  0.00  0.00     0.096 A 
HETATM   33  N   UNK N   1      31.467  16.379   9.056  0.00  0.00    -0.365 N 
HETATM   34  C   UNK N   1      30.365  17.126   8.861  0.00  0.00     0.042 A 
HETATM   35  H   UNK N   1      31.763  15.969   9.901  0.00  0.00     0.165 HD
HETATM   36  C   UNK N   1      29.406  17.469   9.810  0.00  0.00     0.030 A 
HETATM   37  C   UNK N   1      30.270  17.531   7.562  0.00  0.00    -0.002 A 
HETATM   38  C   UNK N   1      28.320  18.259   9.387  0.00  0.00     0.002 A 
HETATM   39  C   UNK N   1      28.222  18.679   8.041  0.00  0.00     0.001 A 
HETATM   40  C   UNK N   1      29.209  18.313   7.108  0.00  0.00     0.014 A 
ENDBRANCH  30  31
ENDBRANCH  29  30
BRANCH  29  41
HETATM   41  C   UNK N   1      31.805  16.148   3.192  0.00  0.00     0.132 C 
BRANCH  41  42
HETATM   42  N   UNK N   1      32.630  15.234   2.837  0.00  0.00    -0.382 N 
HETATM   43  H   UNK N   1      32.466  14.329   2.485  0.00  0.00     0.158 HD
ATOM     44  HN  UNK N   1      33.615  15.484   2.932  1.00  0.00     0.158 HD
ENDBRANCH  41  42
BRANCH  41  45
HETATM   45  O   UNK N   1      31.579  17.187   2.366  0.00  0.00    -0.348 OA
HETATM   46  H   UNK N   1      31.704  17.721   1.605  0.00  0.00     0.219 HD
ENDBRANCH  41  45
ENDBRANCH  29  41
ENDBRANCH  27  29
ENDBRANCH  26  27
BRANCH  26  47
HETATM   47  O   UNK N   1      29.006  15.367   2.323  0.00  0.00    -0.348 OA
HETATM   48  H   UNK N   1      29.159  15.657   1.446  0.00  0.00     0.219 HD
ENDBRANCH  26  47
ENDBRANCH   7  26
BRANCH  13  49
HETATM   49  O   UNK N   1      26.643  12.003   1.846  0.00  0.00    -0.348 OA
HETATM   50  H   UNK N   1      26.299  11.317   1.308  0.00  0.00     0.219 HD
ENDBRANCH  13  49
BRANCH   8  51
HETATM   51  C   UNK N   1      30.086  12.471   2.742  0.00  0.00     0.008 C 
HETATM   52  C   UNK N   1      30.606  12.342   1.319  0.00  0.00     0.012 C 
HETATM   53  C   UNK N   1      31.188  12.103   3.721  0.00  0.00     0.012 C 
ENDBRANCH   8  51
BRANCH   6  54
HETATM   54  N   UNK N   1      22.705  16.632   3.980  0.00  0.00    -0.360 N 
ATOM     55  HN  UNK N   1      23.126  17.547   3.821  1.00  0.00     0.162 HD
BRANCH  54  56
HETATM   56  C   UNK N   1      21.446  16.624   4.270  0.00  0.00     0.135 C 
BRANCH  56  57
HETATM   57  C   UNK N   1      20.850  17.782   5.016  0.00  0.00     0.153 C 
BRANCH  57  58
HETATM   58  C   UNK N   1      21.425  17.841   6.436  0.00  0.00     0.071 C 
BRANCH  58  59
HETATM   59  C   UNK N   1      20.560  17.181   7.467  0.00  0.00    -0.056 A 
HETATM   60  C   UNK N   1      20.748  15.839   7.824  0.00  0.00     0.007 A 
HETATM   61  C   UNK N   1      19.938  15.260   8.810  0.00  0.00     0.001 A 
HETATM   62  C   UNK N   1      18.944  16.018   9.438  0.00  0.00     0.000 A 
HETATM   63  C   UNK N   1      18.762  17.358   9.084  0.00  0.00     0.001 A 
HETATM   64  C   UNK N   1      19.571  17.938   8.104  0.00  0.00     0.007 A 
ENDBRANCH  58  59
ENDBRANCH  57  58
BRANCH  57  65
HETATM   65  N   UNK N   1      21.190  19.015   4.329  0.00  0.00    -0.419 N 
HETATM   66  H   UNK N   1      20.566  19.411   3.628  0.00  0.00     0.150 HD
HETATM   67  H   UNK N   1      22.065  19.490   4.552  0.00  0.00     0.150 HD
ENDBRANCH  57  65
ENDBRANCH  56  57
BRANCH  56  68
HETATM   68  O   UNK N   1      20.641  15.620   3.875  0.00  0.00    -0.348 OA
HETATM   69  H   UNK N   1      19.754  15.406   3.665  0.00  0.00     0.219 HD
ENDBRANCH  56  68
ENDBRANCH  54  56
ENDBRANCH   6  54
BRANCH   9  70
HETATM   70  O   UNK N   1      28.962   8.355   1.376  0.00  0.00    -0.348 OA
HETATM   71  H   UNK N   1      29.201   7.455   1.277  0.00  0.00     0.219 HD
ENDBRANCH   9  70
BRANCH  12  72
HETATM   72  O   UNK N   1      23.697  15.418   6.326  0.00  0.00    -0.348 OA
HETATM   73  H   UNK N   1      23.841  15.369   7.251  0.00  0.00     0.219 HD
ENDBRANCH  12  72
BRANCH   3  74
HETATM   74  C   UNK N   1      28.987   7.232   3.958  0.00  0.00     0.033 C 
BRANCH  74  75
HETATM   75  C   UNK N   1      28.695   6.650   5.337  0.00  0.00     0.004 C 
BRANCH  75  76
HETATM   76  C   UNK N   1      28.255   5.194   5.248  0.00  0.00     0.019 C 
BRANCH  76  77
HETATM   77  C   UNK N   1      29.196   4.263   5.996  0.00  0.00     0.111 C 
BRANCH  77  78
HETATM   78  N   UNK N   1      28.559   2.969   6.181  0.00  0.00    -0.430 N 
HETATM   79  H   UNK N   1      28.259   2.008   6.017  0.00  0.00     0.149 HD
HETATM   80  H   UNK N   1      28.109   3.133   7.080  0.00  0.00     0.149 HD
ENDBRANCH  77  78
ENDBRANCH  76  77
ENDBRANCH  75  76
ENDBRANCH  74  75
ENDBRANCH   3  74
BRANCH   4  81
HETATM   81  C   UNK N   1      22.907  12.955   7.305  0.00  0.00     0.072 C 
BRANCH  81  82
HETATM   82  C   UNK N   1      23.186  12.761   8.773  0.00  0.00    -0.056 A 
HETATM   83  C   UNK N   1      24.499  12.756   9.266  0.00  0.00     0.010 A 
HETATM   84  C   UNK N   1      24.747  12.540  10.622  0.00  0.00     0.037 A 
HETATM   85  C   UNK N   1      23.683  12.312  11.496  0.00  0.00     0.065 A 
HETATM   86  C   UNK N   1      22.371  12.304  11.011  0.00  0.00     0.037 A 
HETATM   87  C   UNK N   1      22.124  12.525   9.652  0.00  0.00     0.010 A 
BRANCH  85  88
HETATM   88  O   UNK N   1      23.921  12.098  12.800  0.00  0.00    -0.361 OA
HETATM   89  H   UNK N   1      23.555  12.400  13.607  0.00  0.00     0.217 HD
ENDBRANCH  85  88
ENDBRANCH  81  82
ENDBRANCH   4  81
BRANCH  11  90
HETATM   90  O   UNK N   1      26.133   8.491   2.772  0.00  0.00    -0.348 OA
HETATM   91  H   UNK N   1      25.955   8.502   1.851  0.00  0.00     0.219 HD
ENDBRANCH  11  90
BRANCH  10  92
HETATM   92  O   UNK N   1      23.157  10.390   6.404  0.00  0.00    -0.348 OA
HETATM   93  H   UNK N   1      22.946  10.360   7.317  0.00  0.00     0.219 HD
ENDBRANCH  10  92
BRANCH   5  94
HETATM   94  C   UNK N   1      25.185   8.440   6.118  0.00  0.00     0.074 C 
BRANCH  94  95
HETATM   95  C   UNK N   1      24.672   7.060   5.855  0.00  0.00    -0.028 A 
HETATM   96  C   UNK N   1      23.831   6.671   4.822  0.00  0.00     0.096 A 
HETATM   97  N   UNK N   1      23.602   5.334   4.905  0.00  0.00    -0.365 N 
HETATM   98  C   UNK N   1      24.298   4.900   5.972  0.00  0.00     0.042 A 
HETATM   99  H   UNK N   1      23.039   4.792   4.306  0.00  0.00     0.165 HD
HETATM  100  C   UNK N   1      24.380   3.593   6.448  0.00  0.00     0.030 A 
HETATM  101  C   UNK N   1      24.962   5.927   6.574  0.00  0.00    -0.002 A 
HETATM  102  C   UNK N   1      25.180   3.357   7.582  0.00  0.00     0.002 A 
HETATM  103  C   UNK N   1      25.869   4.421   8.205  0.00  0.00     0.001 A 
HETATM  104  C   UNK N   1      25.763   5.728   7.697  0.00  0.00     0.014 A 
ENDBRANCH  94  95
ENDBRANCH   5  94
TORSDOF 32
ENDMDL
MODEL 8
REMARK VINA RESULT:      -6.6      1.747      2.529
REMARK  32 active torsions:
REMARK  status: ('A' for Active; 'I' for Inactive)
REMARK    1  A    between atoms: C_11  and  C_10 
REMARK    2  A    between atoms: C_18  and  C_10 
REMARK    3  A    between atoms: C_23  and  C_11 
REMARK    4  A    between atoms: C_43  and  C_18 
REMARK    5  A    between atoms: N_58  and  C_23 
REMARK    6  A    between atoms: C_33  and  C_24 
REMARK    7  A    between atoms: C_40  and  C_24 
REMARK    8  A    between atoms: C_34  and  C_25 
REMARK    9  A    between atoms: C_45  and  C_25 
REMARK   10  A    between atoms: C_35  and  C_26 
REMARK   11  A    between atoms: C_44  and  C_26 
REMARK   12  A    between atoms: C_36  and  C_27 
REMARK   13  A    between atoms: C_46  and  C_27 
REMARK   14  A    between atoms: C_49  and  C_32 
REMARK   15  A    between atoms: O_78  and  C_37 
REMARK   16  A    between atoms: C_51  and  C_40 
REMARK   17  A    between atoms: C_40  and  N_59 
REMARK   18  A    between atoms: C_50  and  C_44 
REMARK   19  A    between atoms: C_44  and  N_66 
REMARK   20  A    between atoms: C_47  and  N_72 
REMARK   21  A    between atoms: C_48  and  C_55 
REMARK   22  A    between atoms: N_60  and  C_50 
REMARK   23  A    between atoms: O_79  and  C_50 
REMARK   24  A    between atoms: N_72  and  C_51 
REMARK   25  A    between atoms: C_51  and  O_80 
REMARK   26  A    between atoms: C_52  and  O_81 
REMARK   27  A    between atoms: C_53  and  O_82 
REMARK   28  A    between atoms: C_54  and  O_83 
REMARK   29  A    between atoms: N_66  and  C_55 
REMARK   30  A    between atoms: C_55  and  O_84 
REMARK   31  A    between atoms: C_56  and  O_85 
REMARK   32  A    between atoms: C_57  and  O_86 
ROOT
HETATM    1  C   UNK N   1      27.122  18.061   3.787  0.00  0.00     0.119 C 
HETATM    2  C   UNK N   1      28.492  15.802   6.228  0.00  0.00     0.119 C 
HETATM    3  C   UNK N   1      30.223  10.820   2.723  0.00  0.00     0.158 C 
HETATM    4  C   UNK N   1      25.119  14.247   5.124  0.00  0.00     0.162 C 
HETATM    5  C   UNK N   1      26.484  11.589   2.773  0.00  0.00     0.162 C 
HETATM    6  C   UNK N   1      25.627  17.832   4.033  0.00  0.00     0.168 C 
HETATM    7  C   UNK N   1      29.679  15.693   5.276  0.00  0.00     0.168 C 
HETATM    8  C   UNK N   1      30.668  13.749   3.237  0.00  0.00     0.161 C 
HETATM    9  C   UNK N   1      30.828  11.806   1.730  0.00  0.00     0.135 C 
HETATM   10  C   UNK N   1      25.236  13.055   4.206  0.00  0.00     0.135 C 
HETATM   11  C   UNK N   1      27.887  11.400   2.261  0.00  0.00     0.135 C 
HETATM   12  C   UNK N   1      25.347  16.642   4.904  0.00  0.00     0.136 C 
HETATM   13  C   UNK N   1      29.595  14.809   2.991  0.00  0.00     0.135 C 
HETATM   14  N   UNK N   1      28.849  11.147   3.090  0.00  0.00    -0.361 N 
ATOM     15  HN  UNK N   1      28.628  11.180   4.085  1.00  0.00     0.162 HD
HETATM   16  N   UNK N   1      25.466  15.456   4.402  0.00  0.00    -0.360 N 
ATOM     17  HN  UNK N   1      25.822  15.365   3.451  1.00  0.00     0.162 HD
HETATM   18  N   UNK N   1      26.375  12.727   3.675  0.00  0.00    -0.360 N 
ATOM     19  HN  UNK N   1      27.206  13.276   3.891  1.00  0.00     0.162 HD
HETATM   20  N   UNK N   1      29.195  15.639   3.907  0.00  0.00    -0.360 N 
ATOM     21  HN  UNK N   1      28.476  16.313   3.642  1.00  0.00     0.162 HD
HETATM   22  N   UNK N   1      30.975  13.062   1.991  0.00  0.00    -0.360 N 
ATOM     23  HN  UNK N   1      31.350  13.638   1.238  1.00  0.00     0.162 HD
HETATM   24  S   UNK N   1      28.206  18.749   5.086  0.00  0.00    -0.095 SA
HETATM   25  S   UNK N   1      27.813  17.429   6.740  0.00  0.00    -0.095 SA
ENDROOT
BRANCH   7  26
HETATM   26  C   UNK N   1      30.722  16.773   5.411  0.00  0.00     0.136 C 
BRANCH  26  27
HETATM   27  N   UNK N   1      31.415  16.876   6.497  0.00  0.00    -0.360 N 
ATOM     28  HN  UNK N   1      30.909  16.966   7.377  1.00  0.00     0.162 HD
BRANCH  27  29
HETATM   29  C   UNK N   1      32.874  16.871   6.552  0.00  0.00     0.161 C 
BRANCH  29  30
HETATM   30  C   UNK N   1      33.432  15.505   6.976  0.00  0.00     0.074 C 
BRANCH  30  31
HETATM   31  C   UNK N   1      33.396  15.235   8.450  0.00  0.00    -0.028 A 
HETATM   32  C   UNK N   1      32.284  15.191   9.291  0.00  0.00     0.096 A 
HETATM   33  N   UNK N   1      32.687  14.937  10.563  0.00  0.00    -0.365 N 
HETATM   34  C   UNK N   1      34.027  14.827  10.514  0.00  0.00     0.042 A 
HETATM   35  H   UNK N   1      32.115  14.853  11.359  0.00  0.00     0.165 HD
HETATM   36  C   UNK N   1      34.887  14.579  11.580  0.00  0.00     0.030 A 
HETATM   37  C   UNK N   1      34.488  14.999   9.242  0.00  0.00    -0.002 A 
HETATM   38  C   UNK N   1      36.266  14.509  11.306  0.00  0.00     0.002 A 
HETATM   39  C   UNK N   1      36.744  14.687   9.987  0.00  0.00     0.001 A 
HETATM   40  C   UNK N   1      35.846  14.937   8.934  0.00  0.00     0.014 A 
ENDBRANCH  30  31
ENDBRANCH  29  30
BRANCH  29  41
HETATM   41  C   UNK N   1      33.387  17.933   7.497  0.00  0.00     0.132 C 
BRANCH  41  42
HETATM   42  N   UNK N   1      32.586  18.499   8.322  0.00  0.00    -0.382 N 
HETATM   43  H   UNK N   1      32.739  18.825   9.238  0.00  0.00     0.158 HD
ATOM     44  HN  UNK N   1      31.637  18.634   7.973  1.00  0.00     0.158 HD
ENDBRANCH  41  42
BRANCH  41  45
HETATM   45  O   UNK N   1      34.679  18.312   7.470  0.00  0.00    -0.348 OA
HETATM   46  H   UNK N   1      35.486  18.635   7.823  0.00  0.00     0.219 HD
ENDBRANCH  41  45
ENDBRANCH  29  41
ENDBRANCH  27  29
ENDBRANCH  26  27
BRANCH  26  47
HETATM   47  O   UNK N   1      30.943  17.607   4.371  0.00  0.00    -0.348 OA
HETATM   48  H   UNK N   1      31.178  17.945   3.529  0.00  0.00     0.219 HD
ENDBRANCH  26  47
ENDBRANCH   7  26
BRANCH  13  49
HETATM   49  O   UNK N   1      29.045  14.901   1.765  0.00  0.00    -0.348 OA
HETATM   50  H   UNK N   1      28.292  14.942   1.208  0.00  0.00     0.219 HD
ENDBRANCH  13  49
BRANCH   8  51
HETATM   51  C   UNK N   1      31.978  14.369   3.762  0.00  0.00     0.008 C 
HETATM   52  C   UNK N   1      32.732  15.135   2.687  0.00  0.00     0.012 C 
HETATM   53  C   UNK N   1      32.890  13.317   4.371  0.00  0.00     0.012 C 
ENDBRANCH   8  51
BRANCH   6  54
HETATM   54  N   UNK N   1      24.791  18.986   4.354  0.00  0.00    -0.360 N 
ATOM     55  HN  UNK N   1      24.859  19.339   5.308  1.00  0.00     0.162 HD
BRANCH  54  56
HETATM   56  C   UNK N   1      23.974  19.610   3.570  0.00  0.00     0.135 C 
BRANCH  56  57
HETATM   57  C   UNK N   1      22.567  19.112   3.419  0.00  0.00     0.153 C 
BRANCH  57  58
HETATM   58  C   UNK N   1      22.075  18.521   4.745  0.00  0.00     0.071 C 
BRANCH  58  59
HETATM   59  C   UNK N   1      21.427  17.177   4.604  0.00  0.00    -0.056 A 
HETATM   60  C   UNK N   1      20.578  16.669   5.598  0.00  0.00     0.007 A 
HETATM   61  C   UNK N   1      19.968  15.420   5.422  0.00  0.00     0.001 A 
HETATM   62  C   UNK N   1      20.204  14.680   4.258  0.00  0.00     0.000 A 
HETATM   63  C   UNK N   1      21.045  15.190   3.266  0.00  0.00     0.001 A 
HETATM   64  C   UNK N   1      21.651  16.437   3.438  0.00  0.00     0.007 A 
ENDBRANCH  58  59
ENDBRANCH  57  58
BRANCH  57  65
HETATM   65  N   UNK N   1      21.705  20.225   3.063  0.00  0.00    -0.419 N 
HETATM   66  H   UNK N   1      21.465  20.939   3.749  0.00  0.00     0.150 HD
HETATM   67  H   UNK N   1      21.338  20.293   2.114  0.00  0.00     0.150 HD
ENDBRANCH  57  65
ENDBRANCH  56  57
BRANCH  56  68
HETATM   68  O   UNK N   1      24.343  20.729   2.919  0.00  0.00    -0.348 OA
HETATM   69  H   UNK N   1      24.818  21.531   3.013  0.00  0.00     0.219 HD
ENDBRANCH  56  68
ENDBRANCH  54  56
ENDBRANCH   6  54
BRANCH   9  70
HETATM   70  O   UNK N   1      31.242  11.358   0.527  0.00  0.00    -0.348 OA
HETATM   71  H   UNK N   1      31.514  10.545   0.150  0.00  0.00     0.219 HD
ENDBRANCH   9  70
BRANCH  12  72
HETATM   72  O   UNK N   1      24.860  16.813   6.152  0.00  0.00    -0.348 OA
HETATM   73  H   UNK N   1      24.686  16.393   6.972  0.00  0.00     0.219 HD
ENDBRANCH  12  72
BRANCH   3  74
HETATM   74  C   UNK N   1      30.327   9.349   2.276  0.00  0.00     0.033 C 
BRANCH  74  75
HETATM   75  C   UNK N   1      29.292   8.404   2.878  0.00  0.00     0.004 C 
BRANCH  75  76
HETATM   76  C   UNK N   1      28.561   7.615   1.798  0.00  0.00     0.019 C 
BRANCH  76  77
HETATM   77  C   UNK N   1      28.540   6.123   2.093  0.00  0.00     0.111 C 
BRANCH  77  78
HETATM   78  N   UNK N   1      27.623   5.458   1.183  0.00  0.00    -0.430 N 
HETATM   79  H   UNK N   1      26.933   5.305   0.447  0.00  0.00     0.149 HD
HETATM   80  H   UNK N   1      27.762   4.494   1.482  0.00  0.00     0.149 HD
ENDBRANCH  77  78
ENDBRANCH  76  77
ENDBRANCH  75  76
ENDBRANCH  74  75
ENDBRANCH   3  74
BRANCH   4  81
HETATM   81  C   UNK N   1      23.686  14.346   5.718  0.00  0.00     0.072 C 
BRANCH  81  82
HETATM   82  C   UNK N   1      23.518  13.875   7.140  0.00  0.00    -0.056 A 
HETATM   83  C   UNK N   1      22.267  13.915   7.774  0.00  0.00     0.010 A 
HETATM   84  C   UNK N   1      22.130  13.510   9.102  0.00  0.00     0.037 A 
HETATM   85  C   UNK N   1      23.248  13.073   9.813  0.00  0.00     0.065 A 
HETATM   86  C   UNK N   1      24.502  13.040   9.194  0.00  0.00     0.037 A 
HETATM   87  C   UNK N   1      24.636  13.444   7.861  0.00  0.00     0.010 A 
BRANCH  85  88
HETATM   88  O   UNK N   1      23.119  12.688  11.093  0.00  0.00    -0.361 OA
HETATM   89  H   UNK N   1      23.369  11.940  11.597  0.00  0.00     0.217 HD
ENDBRANCH  85  88
ENDBRANCH  81  82
ENDBRANCH   4  81
BRANCH  11  90
HETATM   90  O   UNK N   1      28.112  11.453   0.931  0.00  0.00    -0.348 OA
HETATM   91  H   UNK N   1      28.180  11.136   0.051  0.00  0.00     0.219 HD
ENDBRANCH  11  90
BRANCH  10  92
HETATM   92  O   UNK N   1      24.135  12.319   3.946  0.00  0.00    -0.348 OA
HETATM   93  H   UNK N   1      23.374  12.406   4.485  0.00  0.00     0.219 HD
ENDBRANCH  10  92
BRANCH   5  94
HETATM   94  C   UNK N   1      26.060  10.298   3.491  0.00  0.00     0.074 C 
BRANCH  94  95
HETATM   95  C   UNK N   1      25.345   9.354   2.579  0.00  0.00    -0.028 A 
HETATM   96  C   UNK N   1      24.823   9.646   1.325  0.00  0.00     0.096 A 
HETATM   97  N   UNK N   1      24.263   8.527   0.797  0.00  0.00    -0.365 N 
HETATM   98  C   UNK N   1      24.442   7.552   1.707  0.00  0.00     0.042 A 
HETATM   99  H   UNK N   1      23.817   8.445  -0.077  0.00  0.00     0.165 HD
HETATM  100  C   UNK N   1      24.044   6.222   1.604  0.00  0.00     0.030 A 
HETATM  101  C   UNK N   1      25.098   8.023   2.806  0.00  0.00    -0.002 A 
HETATM  102  C   UNK N   1      24.343   5.361   2.678  0.00  0.00     0.002 A 
HETATM  103  C   UNK N   1      25.025   5.849   3.815  0.00  0.00     0.001 A 
HETATM  104  C   UNK N   1      25.411   7.199   3.885  0.00  0.00     0.014 A 
ENDBRANCH  94  95
ENDBRANCH   5  94
TORSDOF 32
ENDMDL
MODEL 9
REMARK VINA RESULT:      -6.5      1.398      2.100
REMARK  32 active torsions:
REMARK  status: ('A' for Active; 'I' for Inactive)
REMARK    1  A    between atoms: C_11  and  C_10 
REMARK    2  A    between atoms: C_18  and  C_10 
REMARK    3  A    between atoms: C_23  and  C_11 
REMARK    4  A    between atoms: C_43  and  C_18 
REMARK    5  A    between atoms: N_58  and  C_23 
REMARK    6  A    between atoms: C_33  and  C_24 
REMARK    7  A    between atoms: C_40  and  C_24 
REMARK    8  A    between atoms: C_34  and  C_25 
REMARK    9  A    between atoms: C_45  and  C_25 
REMARK   10  A    between atoms: C_35  and  C_26 
REMARK   11  A    between atoms: C_44  and  C_26 
REMARK   12  A    between atoms: C_36  and  C_27 
REMARK   13  A    between atoms: C_46  and  C_27 
REMARK   14  A    between atoms: C_49  and  C_32 
REMARK   15  A    between atoms: O_78  and  C_37 
REMARK   16  A    between atoms: C_51  and  C_40 
REMARK   17  A    between atoms: C_40  and  N_59 
REMARK   18  A    between atoms: C_50  and  C_44 
REMARK   19  A    between atoms: C_44  and  N_66 
REMARK   20  A    between atoms: C_47  and  N_72 
REMARK   21  A    between atoms: C_48  and  C_55 
REMARK   22  A    between atoms: N_60  and  C_50 
REMARK   23  A    between atoms: O_79  and  C_50 
REMARK   24  A    between atoms: N_72  and  C_51 
REMARK   25  A    between atoms: C_51  and  O_80 
REMARK   26  A    between atoms: C_52  and  O_81 
REMARK   27  A    between atoms: C_53  and  O_82 
REMARK   28  A    between atoms: C_54  and  O_83 
REMARK   29  A    between atoms: N_66  and  C_55 
REMARK   30  A    between atoms: C_55  and  O_84 
REMARK   31  A    between atoms: C_56  and  O_85 
REMARK   32  A    between atoms: C_57  and  O_86 
ROOT
HETATM    1  C   UNK N   1      26.813  17.846   4.203  0.00  0.00     0.119 C 
HETATM    2  C   UNK N   1      28.243  15.452   6.476  0.00  0.00     0.119 C 
HETATM    3  C   UNK N   1      30.303  10.886   2.601  0.00  0.00     0.158 C 
HETATM    4  C   UNK N   1      24.979  13.837   5.153  0.00  0.00     0.162 C 
HETATM    5  C   UNK N   1      26.529  11.464   2.618  0.00  0.00     0.162 C 
HETATM    6  C   UNK N   1      25.326  17.524   4.389  0.00  0.00     0.168 C 
HETATM    7  C   UNK N   1      29.454  15.485   5.550  0.00  0.00     0.168 C 
HETATM    8  C   UNK N   1      30.586  13.778   3.377  0.00  0.00     0.161 C 
HETATM    9  C   UNK N   1      30.878  11.984   1.713  0.00  0.00     0.135 C 
HETATM   10  C   UNK N   1      25.177  12.736   4.139  0.00  0.00     0.135 C 
HETATM   11  C   UNK N   1      27.951  11.390   2.129  0.00  0.00     0.135 C 
HETATM   12  C   UNK N   1      25.089  16.250   5.146  0.00  0.00     0.136 C 
HETATM   13  C   UNK N   1      29.466  14.802   3.195  0.00  0.00     0.135 C 
HETATM   14  N   UNK N   1      28.906  11.113   2.959  0.00  0.00    -0.361 N 
ATOM     15  HN  UNK N   1      28.662  11.048   3.947  1.00  0.00     0.162 HD
HETATM   16  N   UNK N   1      25.279  15.119   4.547  0.00  0.00    -0.360 N 
ATOM     17  HN  UNK N   1      25.660  15.130   3.601  1.00  0.00     0.162 HD
HETATM   18  N   UNK N   1      26.342  12.513   3.611  0.00  0.00    -0.360 N 
ATOM     19  HN  UNK N   1      27.139  13.080   3.897  1.00  0.00     0.162 HD
HETATM   20  N   UNK N   1      29.004  15.527   4.169  0.00  0.00    -0.360 N 
ATOM     21  HN  UNK N   1      28.258  16.186   3.944  1.00  0.00     0.162 HD
HETATM   22  N   UNK N   1      30.955  13.219   2.086  0.00  0.00    -0.360 N 
ATOM     23  HN  UNK N   1      31.316  13.876   1.395  1.00  0.00     0.162 HD
HETATM   24  S   UNK N   1      27.831  18.470   5.585  0.00  0.00    -0.095 SA
HETATM   25  S   UNK N   1      27.470  16.993   7.108  0.00  0.00    -0.095 SA
ENDROOT
BRANCH   7  26
HETATM   26  C   UNK N   1      30.437  16.599   5.804  0.00  0.00     0.136 C 
BRANCH  26  27
HETATM   27  N   UNK N   1      31.149  16.604   6.884  0.00  0.00    -0.360 N 
ATOM     28  HN  UNK N   1      31.559  15.721   7.186  1.00  0.00     0.162 HD
BRANCH  27  29
HETATM   29  C   UNK N   1      31.407  17.785   7.701  0.00  0.00     0.161 C 
BRANCH  29  30
HETATM   30  C   UNK N   1      32.909  18.038   7.894  0.00  0.00     0.074 C 
BRANCH  30  31
HETATM   31  C   UNK N   1      33.807  16.959   7.366  0.00  0.00    -0.028 A 
HETATM   32  C   UNK N   1      34.237  16.762   6.055  0.00  0.00     0.096 A 
HETATM   33  N   UNK N   1      35.023  15.656   5.997  0.00  0.00    -0.365 N 
HETATM   34  C   UNK N   1      35.079  15.172   7.251  0.00  0.00     0.042 A 
HETATM   35  H   UNK N   1      35.462  15.282   5.198  0.00  0.00     0.165 HD
HETATM   36  C   UNK N   1      35.761  14.038   7.683  0.00  0.00     0.030 A 
HETATM   37  C   UNK N   1      34.352  15.946   8.108  0.00  0.00    -0.002 A 
HETATM   38  C   UNK N   1      35.680  13.706   9.049  0.00  0.00     0.002 A 
HETATM   39  C   UNK N   1      34.926  14.507   9.936  0.00  0.00     0.001 A 
HETATM   40  C   UNK N   1      34.248  15.646   9.466  0.00  0.00     0.014 A 
ENDBRANCH  30  31
ENDBRANCH  29  30
BRANCH  29  41
HETATM   41  C   UNK N   1      30.744  17.668   9.054  0.00  0.00     0.132 C 
BRANCH  41  42
HETATM   42  N   UNK N   1      30.172  18.688   9.579  0.00  0.00    -0.382 N 
HETATM   43  H   UNK N   1      30.501  19.329  10.248  0.00  0.00     0.158 HD
ATOM     44  HN  UNK N   1      29.222  18.863   9.249  1.00  0.00     0.158 HD
ENDBRANCH  41  42
BRANCH  41  45
HETATM   45  O   UNK N   1      30.766  16.504   9.733  0.00  0.00    -0.348 OA
HETATM   46  H   UNK N   1      30.430  15.686  10.042  0.00  0.00     0.219 HD
ENDBRANCH  41  45
ENDBRANCH  29  41
ENDBRANCH  27  29
ENDBRANCH  26  27
BRANCH  26  47
HETATM   47  O   UNK N   1      30.587  17.569   4.876  0.00  0.00    -0.348 OA
HETATM   48  H   UNK N   1      30.801  18.028   4.088  0.00  0.00     0.219 HD
ENDBRANCH  26  47
ENDBRANCH   7  26
BRANCH  13  49
HETATM   49  O   UNK N   1      28.939  14.973   1.968  0.00  0.00    -0.348 OA
HETATM   50  H   UNK N   1      28.956  14.822   1.043  0.00  0.00     0.219 HD
ENDBRANCH  13  49
BRANCH   8  51
HETATM   51  C   UNK N   1      31.850  14.413   3.989  0.00  0.00     0.008 C 
HETATM   52  C   UNK N   1      32.712  15.113   2.950  0.00  0.00     0.012 C 
HETATM   53  C   UNK N   1      32.687  13.386   4.734  0.00  0.00     0.012 C 
ENDBRANCH   8  51
BRANCH   6  54
HETATM   54  N   UNK N   1      24.426  18.603   4.786  0.00  0.00    -0.360 N 
ATOM     55  HN  UNK N   1      24.859  19.510   4.957  1.00  0.00     0.162 HD
BRANCH  54  56
HETATM   56  C   UNK N   1      23.145  18.541   4.946  0.00  0.00     0.135 C 
BRANCH  56  57
HETATM   57  C   UNK N   1      22.254  18.398   3.746  0.00  0.00     0.153 C 
BRANCH  57  58
HETATM   58  C   UNK N   1      20.984  17.628   4.126  0.00  0.00     0.071 C 
BRANCH  58  59
HETATM   59  C   UNK N   1      21.019  16.179   3.746  0.00  0.00    -0.056 A 
HETATM   60  C   UNK N   1      20.132  15.255   4.315  0.00  0.00     0.007 A 
HETATM   61  C   UNK N   1      20.174  13.911   3.917  0.00  0.00     0.001 A 
HETATM   62  C   UNK N   1      21.099  13.493   2.954  0.00  0.00     0.000 A 
HETATM   63  C   UNK N   1      21.978  14.416   2.384  0.00  0.00     0.001 A 
HETATM   64  C   UNK N   1      21.934  15.757   2.776  0.00  0.00     0.007 A 
ENDBRANCH  58  59
ENDBRANCH  57  58
BRANCH  57  65
HETATM   65  N   UNK N   1      21.871  19.718   3.279  0.00  0.00    -0.419 N 
HETATM   66  H   UNK N   1      22.246  20.557   3.721  0.00  0.00     0.150 HD
HETATM   67  H   UNK N   1      21.220  19.806   2.500  0.00  0.00     0.150 HD
ENDBRANCH  57  65
ENDBRANCH  56  57
BRANCH  56  68
HETATM   68  O   UNK N   1      22.590  18.555   6.172  0.00  0.00    -0.348 OA
HETATM   69  H   UNK N   1      21.806  18.355   6.645  0.00  0.00     0.219 HD
ENDBRANCH  56  68
ENDBRANCH  54  56
ENDBRANCH   6  54
BRANCH   9  70
HETATM   70  O   UNK N   1      31.341  11.664   0.488  0.00  0.00    -0.348 OA
HETATM   71  H   UNK N   1      31.224  11.960  -0.393  0.00  0.00     0.219 HD
ENDBRANCH   9  70
BRANCH  12  72
HETATM   72  O   UNK N   1      24.566  16.286   6.391  0.00  0.00    -0.348 OA
HETATM   73  H   UNK N   1      23.960  16.725   6.956  0.00  0.00     0.219 HD
ENDBRANCH  12  72
BRANCH   3  74
HETATM   74  C   UNK N   1      30.491   9.467   2.031  0.00  0.00     0.033 C 
BRANCH  74  75
HETATM   75  C   UNK N   1      31.384   8.543   2.853  0.00  0.00     0.004 C 
BRANCH  75  76
HETATM   76  C   UNK N   1      31.737   9.159   4.201  0.00  0.00     0.019 C 
BRANCH  76  77
HETATM   77  C   UNK N   1      31.057   8.442   5.356  0.00  0.00     0.111 C 
BRANCH  77  78
HETATM   78  N   UNK N   1      30.159   9.357   6.040  0.00  0.00    -0.430 N 
HETATM   79  H   UNK N   1      29.322   9.888   6.285  0.00  0.00     0.149 HD
HETATM   80  H   UNK N   1      30.791   9.704   6.760  0.00  0.00     0.149 HD
ENDBRANCH  77  78
ENDBRANCH  76  77
ENDBRANCH  75  76
ENDBRANCH  74  75
ENDBRANCH   3  74
BRANCH   4  81
HETATM   81  C   UNK N   1      23.529  13.813   5.715  0.00  0.00     0.072 C 
BRANCH  81  82
HETATM   82  C   UNK N   1      23.387  13.491   7.181  0.00  0.00    -0.056 A 
HETATM   83  C   UNK N   1      22.149  13.609   7.831  0.00  0.00     0.010 A 
HETATM   84  C   UNK N   1      22.036  13.343   9.196  0.00  0.00     0.037 A 
HETATM   85  C   UNK N   1      23.164  12.970   9.927  0.00  0.00     0.065 A 
HETATM   86  C   UNK N   1      24.405  12.861   9.290  0.00  0.00     0.037 A 
HETATM   87  C   UNK N   1      24.515  13.125   7.921  0.00  0.00     0.010 A 
BRANCH  85  88
HETATM   88  O   UNK N   1      23.058  12.719  11.242  0.00  0.00    -0.361 OA
HETATM   89  H   UNK N   1      22.430  12.905  11.912  0.00  0.00     0.217 HD
ENDBRANCH  85  88
ENDBRANCH  81  82
ENDBRANCH   4  81
BRANCH  11  90
HETATM   90  O   UNK N   1      28.202  11.570   0.815  0.00  0.00    -0.348 OA
HETATM   91  H   UNK N   1      28.568  11.390  -0.029  0.00  0.00     0.219 HD
ENDBRANCH  11  90
BRANCH  10  92
HETATM   92  O   UNK N   1      24.120  11.973   3.787  0.00  0.00    -0.348 OA
HETATM   93  H   UNK N   1      24.245  11.221   3.242  0.00  0.00     0.219 HD
ENDBRANCH  10  92
BRANCH   5  94
HETATM   94  C   UNK N   1      26.156  10.096   3.211  0.00  0.00     0.074 C 
BRANCH  94  95
HETATM   95  C   UNK N   1      26.342   8.986   2.227  0.00  0.00    -0.028 A 
HETATM   96  C   UNK N   1      25.800   8.909   0.951  0.00  0.00     0.096 A 
HETATM   97  N   UNK N   1      26.209   7.758   0.355  0.00  0.00    -0.365 N 
HETATM   98  C   UNK N   1      26.999   7.134   1.248  0.00  0.00     0.042 A 
HETATM   99  H   UNK N   1      25.975   7.444  -0.548  0.00  0.00     0.165 HD
HETATM  100  C   UNK N   1      27.660   5.919   1.082  0.00  0.00     0.030 A 
HETATM  101  C   UNK N   1      27.101   7.855   2.401  0.00  0.00    -0.002 A 
HETATM  102  C   UNK N   1      28.449   5.449   2.149  0.00  0.00     0.002 A 
HETATM  103  C   UNK N   1      28.556   6.199   3.342  0.00  0.00     0.001 A 
HETATM  104  C   UNK N   1      27.874   7.421   3.475  0.00  0.00     0.014 A 
ENDBRANCH  94  95
ENDBRANCH   5  94
TORSDOF 32
ENDMDL
