REMARK  8 active torsions:
REMARK  status: ('A' for Active; 'I' for Inactive)
REMARK    1  A    between atoms: O_1  and  C_6 
REMARK    2  A    between atoms: O_1  and  C_11 
REMARK    3  A    between atoms: N_2  and  C_3 
REMARK    4  A    between atoms: N_2  and  C_4 
REMARK    5  A    between atoms: N_2  and  C_5 
REMARK    6  A    between atoms: C_3  and  C_6 
REMARK    7  A    between atoms: C_9  and  C_10 
REMARK    8  A    between atoms: C_10  and  C_12 
ROOT
HETATM    1  C   UNK N   1       4.618   1.855   0.345  0.00  0.00    -0.054 A 
HETATM    2  C   UNK N   1       5.002  -0.926   0.354  0.00  0.00     0.068 A 
HETATM    3  C   UNK N   1       5.717   1.292   1.004  0.00  0.00     0.010 A 
HETATM    4  C   UNK N   1       3.705   1.023  -0.314  0.00  0.00     0.010 A 
HETATM    5  C   UNK N   1       5.920  -0.086   0.987  0.00  0.00     0.037 A 
HETATM    6  C   UNK N   1       3.888  -0.366  -0.301  0.00  0.00     0.037 A 
ENDROOT
BRANCH   2   7
HETATM    7  O   UNK N   1       5.197  -2.262   0.424  0.00  0.00    -0.349 OA
BRANCH   7   8
HETATM    8  C   UNK N   1       4.162  -3.164   0.535  0.00  0.00     0.206 C 
BRANCH   8   9
HETATM    9  C   UNK N   1       3.500  -3.490  -0.805  0.00  0.00     0.299 C 
BRANCH   9  10
HETATM   10  N   UNK N   1       2.155  -4.056  -0.632  0.00  0.00     0.089 N 
BRANCH  10  11
HETATM   11  C   UNK N   1       1.298  -3.039  -0.025  0.00  0.00     0.268 C 
HETATM   12  C   UNK N   1      -0.146  -3.234  -0.445  0.00  0.00     0.037 C 
ENDBRANCH  10  11
BRANCH  10  13
HETATM   13  C   UNK N   1       2.220  -5.229   0.244  0.00  0.00     0.268 C 
HETATM   14  C   UNK N   1       1.062  -6.172  -0.025  0.00  0.00     0.037 C 
ENDBRANCH  10  13
ENDBRANCH   9  10
ENDBRANCH   8   9
ENDBRANCH   7   8
ENDBRANCH   2   7
BRANCH   1  15
HETATM   15  C   UNK N   1       4.381   3.335   0.411  0.00  0.00     0.077 C 
BRANCH  15  16
HETATM   16  C   UNK N   1       5.549   4.201   0.014  0.00  0.00    -0.054 A 
HETATM   17  C   UNK N   1       6.722   3.666  -0.546  0.00  0.00     0.007 A 
HETATM   18  C   UNK N   1       7.802   4.497  -0.851  0.00  0.00     0.001 A 
HETATM   19  C   UNK N   1       7.721   5.868  -0.595  0.00  0.00     0.000 A 
HETATM   20  C   UNK N   1       6.556   6.408  -0.042  0.00  0.00     0.001 A 
HETATM   21  C   UNK N   1       5.474   5.576   0.262  0.00  0.00     0.007 A 
ENDBRANCH  15  16
ENDBRANCH   1  15
TORSDOF 8
