MODEL 1
REMARK VINA RESULT:      -9.0      0.000      0.000
REMARK  8 active torsions:
REMARK  status: ('A' for Active; 'I' for Inactive)
REMARK    1  A    between atoms: N_5  and  C_18 
REMARK       I    between atoms: N_6  and  C_25 
REMARK    2  A    between atoms: N_7  and  C_9 
REMARK       I    between atoms: N_7  and  C_29 
REMARK    3  A    between atoms: C_8  and  C_10 
REMARK    4  A    between atoms: C_8  and  C_20 
REMARK    5  A    between atoms: C_9  and  C_22 
REMARK    6  A    between atoms: C_10  and  C_15 
REMARK    7  A    between atoms: C_15  and  C_18 
REMARK    8  A    between atoms: C_25  and  C_32 
ROOT
HETATM    1  O   UNK N   1      33.883  13.042  15.537  0.00  0.00    -0.267 OA
HETATM    2  N   UNK N   1      35.737  12.032  14.785  0.00  0.00    -0.347 N 
HETATM    3  C   UNK N   1      36.262  12.304  12.384  0.00  0.00     0.003 C 
HETATM    4  C   UNK N   1      37.574  11.520  12.607  0.00  0.00     0.017 C 
HETATM    5  C   UNK N   1      35.224  11.879  13.428  0.00  0.00     0.140 C 
HETATM    6  C   UNK N   1      37.865  11.001  14.003  0.00  0.00     0.021 C 
HETATM    7  C   UNK N   1      37.136  11.741  15.093  0.00  0.00     0.126 C 
HETATM    8  C   UNK N   1      34.933  12.461  15.799  0.00  0.00     0.253 C 
ENDROOT
BRANCH   3   9
HETATM    9  C   UNK N   1      36.496  13.822  12.552  0.00  0.00     0.017 C 
BRANCH   9  10
HETATM   10  C   UNK N   1      35.302  14.698  12.090  0.00  0.00     0.021 C 
BRANCH  10  11
HETATM   11  C   UNK N   1      35.666  15.655  10.959  0.00  0.00     0.117 C 
BRANCH  11  12
HETATM   12  N   UNK N   1      34.512  16.149  10.202  0.00  0.00    -0.412 N 
HETATM   13  C   UNK N   1      33.552  15.116   9.815  0.00  0.00     0.119 C 
HETATM   14  C   UNK N   1      33.683  14.726   8.348  0.00  0.00     0.056 C 
HETATM   15  C   UNK N   1      33.484  15.931   7.416  0.00  0.00     0.065 C 
HETATM   16  C   UNK N   1      34.660  16.873   7.776  0.00  0.00     0.056 C 
HETATM   17  C   UNK N   1      34.758  17.260   9.265  0.00  0.00     0.119 C 
BRANCH  15  18
HETATM   18  N   UNK N   1      33.512  15.419   6.015  0.00  0.00    -0.343 N 
HETATM   19  C   UNK N   1      33.674  13.986   5.840  0.00  0.00     0.154 C 
HETATM   20  C   UNK N   1      33.437  16.171   4.857  0.00  0.00     0.216 C 
HETATM   21  O   UNK N   1      33.535  15.615   3.771  0.00  0.00    -0.274 OA
HETATM   22  C   UNK N   1      33.222  17.648   4.830  0.00  0.00     0.117 C 
ENDBRANCH  15  18
BRANCH  15  23
HETATM   23  C   UNK N   1      32.114  16.580   7.723  0.00  0.00    -0.030 A 
HETATM   24  C   UNK N   1      32.053  17.804   8.417  0.00  0.00     0.010 A 
HETATM   25  C   UNK N   1      30.834  18.449   8.635  0.00  0.00     0.001 A 
HETATM   26  C   UNK N   1      29.652  17.888   8.150  0.00  0.00     0.000 A 
HETATM   27  C   UNK N   1      29.688  16.675   7.462  0.00  0.00     0.001 A 
HETATM   28  C   UNK N   1      30.909  16.024   7.252  0.00  0.00     0.010 A 
ENDBRANCH  15  23
ENDBRANCH  11  12
ENDBRANCH  10  11
ENDBRANCH   9  10
ENDBRANCH   3   9
BRANCH   3  29
HETATM   29  C   UNK N   1      35.878  12.059  10.931  0.00  0.00    -0.046 A 
HETATM   30  C   UNK N   1      34.627  11.474  10.672  0.00  0.00     0.033 A 
HETATM   31  C   UNK N   1      34.267  11.060   9.400  0.00  0.00     0.056 A 
HETATM   32 Cl   UNK N   1      32.670  10.369   9.170  0.00  0.00    -0.083 Cl
HETATM   33  C   UNK N   1      35.190  11.170   8.352  0.00  0.00     0.055 A 
HETATM   34 Cl   UNK N   1      34.822  10.518   6.764  0.00  0.00    -0.083 Cl
HETATM   35  C   UNK N   1      36.432  11.780   8.581  0.00  0.00     0.026 A 
HETATM   36  C   UNK N   1      36.771  12.244   9.861  0.00  0.00     0.010 A 
ENDBRANCH   3  29
BRANCH   8  37
HETATM   37  C   UNK N   1      35.231  12.115  17.214  0.00  0.00     0.032 A 
HETATM   38  C   UNK N   1      35.332  10.751  17.552  0.00  0.00     0.017 A 
HETATM   39  C   UNK N   1      35.441  10.338  18.874  0.00  0.00     0.001 A 
HETATM   40  C   UNK N   1      35.456  11.288  19.891  0.00  0.00     0.000 A 
HETATM   41  C   UNK N   1      35.351  12.649  19.578  0.00  0.00     0.001 A 
HETATM   42  C   UNK N   1      35.211  13.062  18.245  0.00  0.00     0.017 A 
ENDBRANCH   8  37
TORSDOF 8
ENDMDL
MODEL 2
REMARK VINA RESULT:      -8.8      1.447      2.853
REMARK  8 active torsions:
REMARK  status: ('A' for Active; 'I' for Inactive)
REMARK    1  A    between atoms: N_5  and  C_18 
REMARK       I    between atoms: N_6  and  C_25 
REMARK    2  A    between atoms: N_7  and  C_9 
REMARK       I    between atoms: N_7  and  C_29 
REMARK    3  A    between atoms: C_8  and  C_10 
REMARK    4  A    between atoms: C_8  and  C_20 
REMARK    5  A    between atoms: C_9  and  C_22 
REMARK    6  A    between atoms: C_10  and  C_15 
REMARK    7  A    between atoms: C_15  and  C_18 
REMARK    8  A    between atoms: C_25  and  C_32 
ROOT
HETATM    1  O   UNK N   1      33.726  12.918  15.291  0.00  0.00    -0.267 OA
HETATM    2  N   UNK N   1      35.702  12.142  14.570  0.00  0.00    -0.347 N 
HETATM    3  C   UNK N   1      36.171  12.358  12.152  0.00  0.00     0.003 C 
HETATM    4  C   UNK N   1      37.582  11.781  12.399  0.00  0.00     0.017 C 
HETATM    5  C   UNK N   1      35.210  11.847  13.229  0.00  0.00     0.140 C 
HETATM    6  C   UNK N   1      37.951  11.383  13.817  0.00  0.00     0.021 C 
HETATM    7  C   UNK N   1      37.129  12.070  14.876  0.00  0.00     0.126 C 
HETATM    8  C   UNK N   1      34.849  12.507  15.571  0.00  0.00     0.253 C 
ENDROOT
BRANCH   3   9
HETATM    9  C   UNK N   1      36.188  13.900  12.238  0.00  0.00     0.017 C 
BRANCH   9  10
HETATM   10  C   UNK N   1      34.893  14.574  11.716  0.00  0.00     0.021 C 
BRANCH  10  11
HETATM   11  C   UNK N   1      35.161  15.843  10.911  0.00  0.00     0.117 C 
BRANCH  11  12
HETATM   12  N   UNK N   1      34.636  15.805   9.544  0.00  0.00    -0.412 N 
HETATM   13  C   UNK N   1      34.540  17.111   8.894  0.00  0.00     0.119 C 
HETATM   14  C   UNK N   1      33.110  17.639   8.867  0.00  0.00     0.056 C 
HETATM   15  C   UNK N   1      32.159  16.675   8.140  0.00  0.00     0.065 C 
HETATM   16  C   UNK N   1      32.189  15.397   9.015  0.00  0.00     0.056 C 
HETATM   17  C   UNK N   1      33.591  14.805   9.260  0.00  0.00     0.119 C 
BRANCH  15  18
HETATM   18  N   UNK N   1      30.825  17.339   8.067  0.00  0.00    -0.343 N 
HETATM   19  C   UNK N   1      30.613  18.491   8.926  0.00  0.00     0.154 C 
HETATM   20  C   UNK N   1      29.748  16.951   7.291  0.00  0.00     0.216 C 
HETATM   21  O   UNK N   1      28.690  17.561   7.380  0.00  0.00    -0.274 OA
HETATM   22  C   UNK N   1      29.785  15.825   6.311  0.00  0.00     0.117 C 
ENDBRANCH  15  18
BRANCH  15  23
HETATM   23  C   UNK N   1      32.705  16.411   6.718  0.00  0.00    -0.030 A 
HETATM   24  C   UNK N   1      32.918  15.090   6.279  0.00  0.00     0.010 A 
HETATM   25  C   UNK N   1      33.333  14.823   4.972  0.00  0.00     0.001 A 
HETATM   26  C   UNK N   1      33.532  15.872   4.075  0.00  0.00     0.000 A 
HETATM   27  C   UNK N   1      33.331  17.190   4.490  0.00  0.00     0.001 A 
HETATM   28  C   UNK N   1      32.924  17.458   5.801  0.00  0.00     0.010 A 
ENDBRANCH  15  23
ENDBRANCH  11  12
ENDBRANCH  10  11
ENDBRANCH   9  10
ENDBRANCH   3   9
BRANCH   3  29
HETATM   29  C   UNK N   1      35.819  11.983  10.718  0.00  0.00    -0.046 A 
HETATM   30  C   UNK N   1      36.619  12.506   9.689  0.00  0.00     0.033 A 
HETATM   31  C   UNK N   1      36.275  12.359   8.355  0.00  0.00     0.056 A 
HETATM   32 Cl   UNK N   1      37.354  13.020   7.139  0.00  0.00    -0.083 Cl
HETATM   33  C   UNK N   1      35.071  11.726   8.019  0.00  0.00     0.055 A 
HETATM   34 Cl   UNK N   1      34.532  11.656   6.350  0.00  0.00    -0.083 Cl
HETATM   35  C   UNK N   1      34.274  11.168   9.029  0.00  0.00     0.026 A 
HETATM   36  C   UNK N   1      34.654  11.276  10.376  0.00  0.00     0.010 A 
ENDBRANCH   3  29
BRANCH   8  37
HETATM   37  C   UNK N   1      35.200  12.282  16.998  0.00  0.00     0.032 A 
HETATM   38  C   UNK N   1      35.412  10.956  17.424  0.00  0.00     0.017 A 
HETATM   39  C   UNK N   1      35.578  10.644  18.767  0.00  0.00     0.001 A 
HETATM   40  C   UNK N   1      35.540  11.660  19.718  0.00  0.00     0.000 A 
HETATM   41  C   UNK N   1      35.325  12.985  19.317  0.00  0.00     0.001 A 
HETATM   42  C   UNK N   1      35.128  13.294  17.963  0.00  0.00     0.017 A 
ENDBRANCH   8  37
TORSDOF 8
ENDMDL
MODEL 3
REMARK VINA RESULT:      -8.6      8.530     12.852
REMARK  8 active torsions:
REMARK  status: ('A' for Active; 'I' for Inactive)
REMARK    1  A    between atoms: N_5  and  C_18 
REMARK       I    between atoms: N_6  and  C_25 
REMARK    2  A    between atoms: N_7  and  C_9 
REMARK       I    between atoms: N_7  and  C_29 
REMARK    3  A    between atoms: C_8  and  C_10 
REMARK    4  A    between atoms: C_8  and  C_20 
REMARK    5  A    between atoms: C_9  and  C_22 
REMARK    6  A    between atoms: C_10  and  C_15 
REMARK    7  A    between atoms: C_15  and  C_18 
REMARK    8  A    between atoms: C_25  and  C_32 
ROOT
HETATM    1  O   UNK N   1      22.114  15.274   7.904  0.00  0.00    -0.267 OA
HETATM    2  N   UNK N   1      22.358  13.534   6.512  0.00  0.00    -0.347 N 
HETATM    3  C   UNK N   1      22.397  14.038   4.091  0.00  0.00     0.003 C 
HETATM    4  C   UNK N   1      22.673  12.544   3.810  0.00  0.00     0.017 C 
HETATM    5  C   UNK N   1      21.644  14.182   5.417  0.00  0.00     0.140 C 
HETATM    6  C   UNK N   1      22.751  11.599   4.995  0.00  0.00     0.021 C 
HETATM    7  C   UNK N   1      23.077  12.280   6.298  0.00  0.00     0.126 C 
HETATM    8  C   UNK N   1      22.387  14.085   7.759  0.00  0.00     0.253 C 
ENDROOT
BRANCH   3   9
HETATM    9  C   UNK N   1      23.721  14.824   4.221  0.00  0.00     0.017 C 
BRANCH   9  10
HETATM   10  C   UNK N   1      24.836  14.341   3.258  0.00  0.00     0.021 C 
BRANCH  10  11
HETATM   11  C   UNK N   1      26.221  14.341   3.899  0.00  0.00     0.117 C 
BRANCH  11  12
HETATM   12  N   UNK N   1      26.595  15.618   4.513  0.00  0.00    -0.412 N 
HETATM   13  C   UNK N   1      27.220  16.572   3.598  0.00  0.00     0.119 C 
HETATM   14  C   UNK N   1      28.732  16.642   3.782  0.00  0.00     0.056 C 
HETATM   15  C   UNK N   1      29.115  17.038   5.216  0.00  0.00     0.065 C 
HETATM   16  C   UNK N   1      28.574  15.871   6.078  0.00  0.00     0.056 C 
HETATM   17  C   UNK N   1      27.071  15.572   5.907  0.00  0.00     0.119 C 
BRANCH  15  18
HETATM   18  N   UNK N   1      30.598  17.194   5.252  0.00  0.00    -0.343 N 
HETATM   19  C   UNK N   1      31.275  17.367   3.978  0.00  0.00     0.154 C 
HETATM   20  C   UNK N   1      31.408  17.155   6.373  0.00  0.00     0.216 C 
HETATM   21  O   UNK N   1      32.623  17.238   6.241  0.00  0.00    -0.274 OA
HETATM   22  C   UNK N   1      30.898  17.034   7.771  0.00  0.00     0.117 C 
ENDBRANCH  15  18
BRANCH  15  23
HETATM   23  C   UNK N   1      28.426  18.378   5.566  0.00  0.00    -0.030 A 
HETATM   24  C   UNK N   1      28.087  18.669   6.901  0.00  0.00     0.010 A 
HETATM   25  C   UNK N   1      27.538  19.904   7.252  0.00  0.00     0.001 A 
HETATM   26  C   UNK N   1      27.330  20.878   6.275  0.00  0.00     0.000 A 
HETATM   27  C   UNK N   1      27.657  20.611   4.945  0.00  0.00     0.001 A 
HETATM   28  C   UNK N   1      28.197  19.370   4.591  0.00  0.00     0.010 A 
ENDBRANCH  15  23
ENDBRANCH  11  12
ENDBRANCH  10  11
ENDBRANCH   9  10
ENDBRANCH   3   9
BRANCH   3  29
HETATM   29  C   UNK N   1      21.674  14.562   2.858  0.00  0.00    -0.046 A 
HETATM   30  C   UNK N   1      21.328  15.922   2.829  0.00  0.00     0.033 A 
HETATM   31  C   UNK N   1      20.523  16.447   1.830  0.00  0.00     0.056 A 
HETATM   32 Cl   UNK N   1      20.171  18.167   1.862  0.00  0.00    -0.083 Cl
HETATM   33  C   UNK N   1      19.989  15.594   0.856  0.00  0.00     0.055 A 
HETATM   34 Cl   UNK N   1      18.847  16.198  -0.333  0.00  0.00    -0.083 Cl
HETATM   35  C   UNK N   1      20.348  14.239   0.846  0.00  0.00     0.026 A 
HETATM   36  C   UNK N   1      21.205  13.724   1.831  0.00  0.00     0.010 A 
ENDBRANCH   3  29
BRANCH   8  37
HETATM   37  C   UNK N   1      22.604  13.244   8.965  0.00  0.00     0.032 A 
HETATM   38  C   UNK N   1      21.475  12.882   9.729  0.00  0.00     0.017 A 
HETATM   39  C   UNK N   1      21.605  12.242  10.954  0.00  0.00     0.001 A 
HETATM   40  C   UNK N   1      22.873  11.944  11.443  0.00  0.00     0.000 A 
HETATM   41  C   UNK N   1      24.009  12.300  10.704  0.00  0.00     0.001 A 
HETATM   42  C   UNK N   1      23.877  12.972   9.480  0.00  0.00     0.017 A 
ENDBRANCH   8  37
TORSDOF 8
ENDMDL
MODEL 4
REMARK VINA RESULT:      -8.4     11.565     15.820
REMARK  8 active torsions:
REMARK  status: ('A' for Active; 'I' for Inactive)
REMARK    1  A    between atoms: N_5  and  C_18 
REMARK       I    between atoms: N_6  and  C_25 
REMARK    2  A    between atoms: N_7  and  C_9 
REMARK       I    between atoms: N_7  and  C_29 
REMARK    3  A    between atoms: C_8  and  C_10 
REMARK    4  A    between atoms: C_8  and  C_20 
REMARK    5  A    between atoms: C_9  and  C_22 
REMARK    6  A    between atoms: C_10  and  C_15 
REMARK    7  A    between atoms: C_15  and  C_18 
REMARK    8  A    between atoms: C_25  and  C_32 
ROOT
HETATM    1  O   UNK N   1      19.650  15.392   5.863  0.00  0.00    -0.267 OA
HETATM    2  N   UNK N   1      21.878  15.404   6.099  0.00  0.00    -0.347 N 
HETATM    3  C   UNK N   1      22.864  13.610   7.486  0.00  0.00     0.003 C 
HETATM    4  C   UNK N   1      24.270  14.144   7.135  0.00  0.00     0.017 C 
HETATM    5  C   UNK N   1      21.844  14.750   7.402  0.00  0.00     0.140 C 
HETATM    6  C   UNK N   1      24.364  15.370   6.244  0.00  0.00     0.021 C 
HETATM    7  C   UNK N   1      23.143  15.601   5.394  0.00  0.00     0.126 C 
HETATM    8  C   UNK N   1      20.734  15.837   5.496  0.00  0.00     0.253 C 
ENDROOT
BRANCH   3   9
HETATM    9  C   UNK N   1      22.426  12.520   6.483  0.00  0.00     0.017 C 
BRANCH   9  10
HETATM   10  C   UNK N   1      20.908  12.207   6.517  0.00  0.00     0.021 C 
BRANCH  10  11
HETATM   11  C   UNK N   1      20.553  10.894   5.824  0.00  0.00     0.117 C 
BRANCH  11  12
HETATM   12  N   UNK N   1      20.206  11.042   4.408  0.00  0.00    -0.412 N 
HETATM   13  C   UNK N   1      20.929  10.144   3.509  0.00  0.00     0.119 C 
HETATM   14  C   UNK N   1      22.055  10.854   2.766  0.00  0.00     0.056 C 
HETATM   15  C   UNK N   1      21.534  12.038   1.937  0.00  0.00     0.065 C 
HETATM   16  C   UNK N   1      20.964  13.010   3.000  0.00  0.00     0.056 C 
HETATM   17  C   UNK N   1      19.900  12.404   3.937  0.00  0.00     0.119 C 
BRANCH  15  18
HETATM   18  N   UNK N   1      22.688  12.580   1.163  0.00  0.00    -0.343 N 
HETATM   19  C   UNK N   1      23.782  11.666   0.881  0.00  0.00     0.154 C 
HETATM   20  C   UNK N   1      22.848  13.879   0.715  0.00  0.00     0.216 C 
HETATM   21  O   UNK N   1      23.883  14.195   0.142  0.00  0.00    -0.274 OA
HETATM   22  C   UNK N   1      21.818  14.949   0.864  0.00  0.00     0.117 C 
ENDBRANCH  15  18
BRANCH  15  23
HETATM   23  C   UNK N   1      20.435  11.530   0.975  0.00  0.00    -0.030 A 
HETATM   24  C   UNK N   1      20.520  10.236   0.427  0.00  0.00     0.010 A 
HETATM   25  C   UNK N   1      19.500   9.726  -0.379  0.00  0.00     0.001 A 
HETATM   26  C   UNK N   1      18.368  10.497  -0.643  0.00  0.00     0.000 A 
HETATM   27  C   UNK N   1      18.264  11.785  -0.114  0.00  0.00     0.001 A 
HETATM   28  C   UNK N   1      19.290  12.299   0.686  0.00  0.00     0.010 A 
ENDBRANCH  15  23
ENDBRANCH  11  12
ENDBRANCH  10  11
ENDBRANCH   9  10
ENDBRANCH   3   9
BRANCH   3  29
HETATM   29  C   UNK N   1      23.005  12.947   8.850  0.00  0.00    -0.046 A 
HETATM   30  C   UNK N   1      21.842  12.768   9.616  0.00  0.00     0.033 A 
HETATM   31  C   UNK N   1      21.896  12.332  10.930  0.00  0.00     0.056 A 
HETATM   32 Cl   UNK N   1      20.386  12.108  11.796  0.00  0.00    -0.083 Cl
HETATM   33  C   UNK N   1      23.142  12.121  11.535  0.00  0.00     0.055 A 
HETATM   34 Cl   UNK N   1      23.251  11.715  13.240  0.00  0.00    -0.083 Cl
HETATM   35  C   UNK N   1      24.315  12.262  10.779  0.00  0.00     0.026 A 
HETATM   36  C   UNK N   1      24.250  12.654   9.433  0.00  0.00     0.010 A 
ENDBRANCH   3  29
BRANCH   8  37
HETATM   37  C   UNK N   1      20.761  16.941   4.501  0.00  0.00     0.032 A 
HETATM   38  C   UNK N   1      21.222  18.202   4.927  0.00  0.00     0.017 A 
HETATM   39  C   UNK N   1      21.124  19.323   4.113  0.00  0.00     0.001 A 
HETATM   40  C   UNK N   1      20.562  19.204   2.845  0.00  0.00     0.000 A 
HETATM   41  C   UNK N   1      20.092  17.961   2.403  0.00  0.00     0.001 A 
HETATM   42  C   UNK N   1      20.165  16.836   3.238  0.00  0.00     0.017 A 
ENDBRANCH   8  37
TORSDOF 8
ENDMDL
MODEL 5
REMARK VINA RESULT:      -8.4      9.022     13.235
REMARK  8 active torsions:
REMARK  status: ('A' for Active; 'I' for Inactive)
REMARK    1  A    between atoms: N_5  and  C_18 
REMARK       I    between atoms: N_6  and  C_25 
REMARK    2  A    between atoms: N_7  and  C_9 
REMARK       I    between atoms: N_7  and  C_29 
REMARK    3  A    between atoms: C_8  and  C_10 
REMARK    4  A    between atoms: C_8  and  C_20 
REMARK    5  A    between atoms: C_9  and  C_22 
REMARK    6  A    between atoms: C_10  and  C_15 
REMARK    7  A    between atoms: C_15  and  C_18 
REMARK    8  A    between atoms: C_25  and  C_32 
ROOT
HETATM    1  O   UNK N   1      20.135  16.445   6.506  0.00  0.00    -0.267 OA
HETATM    2  N   UNK N   1      20.410  14.966   8.167  0.00  0.00    -0.347 N 
HETATM    3  C   UNK N   1      21.881  13.032   7.706  0.00  0.00     0.003 C 
HETATM    4  C   UNK N   1      21.695  12.573   9.170  0.00  0.00     0.017 C 
HETATM    5  C   UNK N   1      20.663  13.848   7.264  0.00  0.00     0.140 C 
HETATM    6  C   UNK N   1      20.795  13.403  10.068  0.00  0.00     0.021 C 
HETATM    7  C   UNK N   1      20.619  14.826   9.606  0.00  0.00     0.126 C 
HETATM    8  C   UNK N   1      19.987  16.173   7.695  0.00  0.00     0.253 C 
ENDROOT
BRANCH   3   9
HETATM    9  C   UNK N   1      23.124  13.940   7.572  0.00  0.00     0.017 C 
BRANCH   9  10
HETATM   10  C   UNK N   1      23.290  14.575   6.167  0.00  0.00     0.021 C 
BRANCH  10  11
HETATM   11  C   UNK N   1      24.718  14.485   5.635  0.00  0.00     0.117 C 
BRANCH  11  12
HETATM   12  N   UNK N   1      25.457  15.748   5.695  0.00  0.00    -0.412 N 
HETATM   13  C   UNK N   1      25.649  16.401   4.400  0.00  0.00     0.119 C 
HETATM   14  C   UNK N   1      27.060  16.207   3.858  0.00  0.00     0.056 C 
HETATM   15  C   UNK N   1      28.123  16.750   4.826  0.00  0.00     0.065 C 
HETATM   16  C   UNK N   1      27.960  15.866   6.087  0.00  0.00     0.056 C 
HETATM   17  C   UNK N   1      26.541  15.838   6.689  0.00  0.00     0.119 C 
BRANCH  15  18
HETATM   18  N   UNK N   1      29.446  16.621   4.150  0.00  0.00    -0.343 N 
HETATM   19  C   UNK N   1      29.436  16.273   2.739  0.00  0.00     0.154 C 
HETATM   20  C   UNK N   1      30.692  16.760   4.735  0.00  0.00     0.216 C 
HETATM   21  O   UNK N   1      31.698  16.564   4.064  0.00  0.00    -0.274 OA
HETATM   22  C   UNK N   1      30.910  17.161   6.156  0.00  0.00     0.117 C 
ENDBRANCH  15  18
BRANCH  15  23
HETATM   23  C   UNK N   1      27.816  18.237   5.124  0.00  0.00    -0.030 A 
HETATM   24  C   UNK N   1      27.464  19.108   4.075  0.00  0.00     0.010 A 
HETATM   25  C   UNK N   1      27.105  20.433   4.329  0.00  0.00     0.001 A 
HETATM   26  C   UNK N   1      27.077  20.909   5.640  0.00  0.00     0.000 A 
HETATM   27  C   UNK N   1      27.425  20.064   6.695  0.00  0.00     0.001 A 
HETATM   28  C   UNK N   1      27.794  18.740   6.440  0.00  0.00     0.010 A 
ENDBRANCH  15  23
ENDBRANCH  11  12
ENDBRANCH  10  11
ENDBRANCH   9  10
ENDBRANCH   3   9
BRANCH   3  29
HETATM   29  C   UNK N   1      22.153  11.763   6.910  0.00  0.00    -0.046 A 
HETATM   30  C   UNK N   1      21.147  11.303   6.045  0.00  0.00     0.033 A 
HETATM   31  C   UNK N   1      21.237  10.073   5.413  0.00  0.00     0.056 A 
HETATM   32 Cl   UNK N   1      19.943   9.598   4.327  0.00  0.00    -0.083 Cl
HETATM   33  C   UNK N   1      22.329   9.237   5.684  0.00  0.00     0.055 A 
HETATM   34 Cl   UNK N   1      22.400   7.615   5.018  0.00  0.00    -0.083 Cl
HETATM   35  C   UNK N   1      23.361   9.691   6.517  0.00  0.00     0.026 A 
HETATM   36  C   UNK N   1      23.288  10.959   7.114  0.00  0.00     0.010 A 
ENDBRANCH   3  29
BRANCH   8  37
HETATM   37  C   UNK N   1      19.220  17.110   8.558  0.00  0.00     0.032 A 
HETATM   38  C   UNK N   1      19.898  18.230   9.080  0.00  0.00     0.017 A 
HETATM   39  C   UNK N   1      19.306  19.059  10.025  0.00  0.00     0.001 A 
HETATM   40  C   UNK N   1      18.015  18.785  10.466  0.00  0.00     0.000 A 
HETATM   41  C   UNK N   1      17.325  17.674   9.964  0.00  0.00     0.001 A 
HETATM   42  C   UNK N   1      17.935  16.821   9.033  0.00  0.00     0.017 A 
ENDBRANCH   8  37
TORSDOF 8
ENDMDL
MODEL 6
REMARK VINA RESULT:      -8.3      9.031     12.999
REMARK  8 active torsions:
REMARK  status: ('A' for Active; 'I' for Inactive)
REMARK    1  A    between atoms: N_5  and  C_18 
REMARK       I    between atoms: N_6  and  C_25 
REMARK    2  A    between atoms: N_7  and  C_9 
REMARK       I    between atoms: N_7  and  C_29 
REMARK    3  A    between atoms: C_8  and  C_10 
REMARK    4  A    between atoms: C_8  and  C_20 
REMARK    5  A    between atoms: C_9  and  C_22 
REMARK    6  A    between atoms: C_10  and  C_15 
REMARK    7  A    between atoms: C_15  and  C_18 
REMARK    8  A    between atoms: C_25  and  C_32 
ROOT
HETATM    1  O   UNK N   1      21.697  15.354   8.224  0.00  0.00    -0.267 OA
HETATM    2  N   UNK N   1      22.168  13.694   6.794  0.00  0.00    -0.347 N 
HETATM    3  C   UNK N   1      22.383  14.304   4.407  0.00  0.00     0.003 C 
HETATM    4  C   UNK N   1      22.775  12.843   4.095  0.00  0.00     0.017 C 
HETATM    5  C   UNK N   1      21.511  14.345   5.666  0.00  0.00     0.140 C 
HETATM    6  C   UNK N   1      22.811  11.853   5.245  0.00  0.00     0.021 C 
HETATM    7  C   UNK N   1      22.980  12.495   6.597  0.00  0.00     0.126 C 
HETATM    8  C   UNK N   1      22.056  14.191   8.059  0.00  0.00     0.253 C 
ENDROOT
BRANCH   3   9
HETATM    9  C   UNK N   1      23.638  15.160   4.683  0.00  0.00     0.017 C 
BRANCH   9  10
HETATM   10  C   UNK N   1      24.878  14.748   3.847  0.00  0.00     0.021 C 
BRANCH  10  11
HETATM   11  C   UNK N   1      25.957  14.059   4.678  0.00  0.00     0.117 C 
BRANCH  11  12
HETATM   12  N   UNK N   1      27.201  14.824   4.793  0.00  0.00    -0.412 N 
HETATM   13  C   UNK N   1      27.407  15.457   6.095  0.00  0.00     0.119 C 
HETATM   14  C   UNK N   1      27.107  16.951   6.064  0.00  0.00     0.056 C 
HETATM   15  C   UNK N   1      27.979  17.687   5.035  0.00  0.00     0.065 C 
HETATM   16  C   UNK N   1      27.544  17.077   3.679  0.00  0.00     0.056 C 
HETATM   17  C   UNK N   1      27.654  15.542   3.588  0.00  0.00     0.119 C 
BRANCH  15  18
HETATM   18  N   UNK N   1      27.693  19.145   5.173  0.00  0.00    -0.343 N 
HETATM   19  C   UNK N   1      27.397  19.878   3.954  0.00  0.00     0.154 C 
HETATM   20  C   UNK N   1      27.715  19.887   6.340  0.00  0.00     0.216 C 
HETATM   21  O   UNK N   1      27.518  21.094   6.290  0.00  0.00    -0.274 OA
HETATM   22  C   UNK N   1      27.950  19.308   7.696  0.00  0.00     0.117 C 
ENDBRANCH  15  18
BRANCH  15  23
HETATM   23  C   UNK N   1      29.467  17.401   5.343  0.00  0.00    -0.030 A 
HETATM   24  C   UNK N   1      30.447  17.628   4.358  0.00  0.00     0.010 A 
HETATM   25  C   UNK N   1      31.804  17.454   4.638  0.00  0.00     0.001 A 
HETATM   26  C   UNK N   1      32.208  17.062   5.914  0.00  0.00     0.000 A 
HETATM   27  C   UNK N   1      31.254  16.829   6.906  0.00  0.00     0.001 A 
HETATM   28  C   UNK N   1      29.894  16.994   6.622  0.00  0.00     0.010 A 
ENDBRANCH  15  23
ENDBRANCH  11  12
ENDBRANCH  10  11
ENDBRANCH   9  10
ENDBRANCH   3   9
BRANCH   3  29
HETATM   29  C   UNK N   1      21.736  14.837   3.136  0.00  0.00    -0.046 A 
HETATM   30  C   UNK N   1      21.263  16.159   3.146  0.00  0.00     0.033 A 
HETATM   31  C   UNK N   1      20.512  16.671   2.099  0.00  0.00     0.056 A 
HETATM   32 Cl   UNK N   1      19.992  18.345   2.188  0.00  0.00    -0.083 Cl
HETATM   33  C   UNK N   1      20.163  15.837   1.029  0.00  0.00     0.055 A 
HETATM   34 Cl   UNK N   1      19.090  16.408  -0.238  0.00  0.00    -0.083 Cl
HETATM   35  C   UNK N   1      20.653  14.524   0.983  0.00  0.00     0.026 A 
HETATM   36  C   UNK N   1      21.455  14.027   2.022  0.00  0.00     0.010 A 
ENDBRANCH   3  29
BRANCH   8  37
HETATM   37  C   UNK N   1      22.220  13.312   9.247  0.00  0.00     0.032 A 
HETATM   38  C   UNK N   1      21.060  12.923   9.946  0.00  0.00     0.017 A 
HETATM   39  C   UNK N   1      21.136  12.244  11.155  0.00  0.00     0.001 A 
HETATM   40  C   UNK N   1      22.382  11.935  11.692  0.00  0.00     0.000 A 
HETATM   41  C   UNK N   1      23.549  12.318  11.017  0.00  0.00     0.001 A 
HETATM   42  C   UNK N   1      23.470  13.029   9.811  0.00  0.00     0.017 A 
ENDBRANCH   8  37
TORSDOF 8
ENDMDL
MODEL 7
REMARK VINA RESULT:      -8.3      2.937      4.645
REMARK  8 active torsions:
REMARK  status: ('A' for Active; 'I' for Inactive)
REMARK    1  A    between atoms: N_5  and  C_18 
REMARK       I    between atoms: N_6  and  C_25 
REMARK    2  A    between atoms: N_7  and  C_9 
REMARK       I    between atoms: N_7  and  C_29 
REMARK    3  A    between atoms: C_8  and  C_10 
REMARK    4  A    between atoms: C_8  and  C_20 
REMARK    5  A    between atoms: C_9  and  C_22 
REMARK    6  A    between atoms: C_10  and  C_15 
REMARK    7  A    between atoms: C_15  and  C_18 
REMARK    8  A    between atoms: C_25  and  C_32 
ROOT
HETATM    1  O   UNK N   1      37.458  11.160  13.203  0.00  0.00    -0.267 OA
HETATM    2  N   UNK N   1      37.031  13.044  12.067  0.00  0.00    -0.347 N 
HETATM    3  C   UNK N   1      37.627  13.060   9.667  0.00  0.00     0.003 C 
HETATM    4  C   UNK N   1      37.012  14.473   9.549  0.00  0.00     0.017 C 
HETATM    5  C   UNK N   1      38.104  12.824  11.103  0.00  0.00     0.140 C 
HETATM    6  C   UNK N   1      36.436  15.106  10.803  0.00  0.00     0.021 C 
HETATM    7  C   UNK N   1      36.053  14.111  11.867  0.00  0.00     0.126 C 
HETATM    8  C   UNK N   1      36.902  12.255  13.172  0.00  0.00     0.253 C 
ENDROOT
BRANCH   3   9
HETATM    9  C   UNK N   1      36.574  11.977   9.343  0.00  0.00     0.017 C 
BRANCH   9  10
HETATM   10  C   UNK N   1      35.296  12.526   8.657  0.00  0.00     0.021 C 
BRANCH  10  11
HETATM   11  C   UNK N   1      35.298  12.325   7.144  0.00  0.00     0.117 C 
BRANCH  11  12
HETATM   12  N   UNK N   1      34.466  13.286   6.414  0.00  0.00    -0.412 N 
HETATM   13  C   UNK N   1      35.089  14.592   6.204  0.00  0.00     0.119 C 
HETATM   14  C   UNK N   1      34.549  15.650   7.161  0.00  0.00     0.056 C 
HETATM   15  C   UNK N   1      33.028  15.821   7.023  0.00  0.00     0.065 C 
HETATM   16  C   UNK N   1      32.462  14.443   7.451  0.00  0.00     0.056 C 
HETATM   17  C   UNK N   1      33.015  13.236   6.667  0.00  0.00     0.119 C 
BRANCH  15  18
HETATM   18  N   UNK N   1      32.627  16.952   7.908  0.00  0.00    -0.343 N 
HETATM   19  C   UNK N   1      33.683  17.607   8.662  0.00  0.00     0.154 C 
HETATM   20  C   UNK N   1      31.344  17.425   8.119  0.00  0.00     0.216 C 
HETATM   21  O   UNK N   1      31.159  18.327   8.925  0.00  0.00    -0.274 OA
HETATM   22  C   UNK N   1      30.137  16.916   7.403  0.00  0.00     0.117 C 
ENDBRANCH  15  18
BRANCH  15  23
HETATM   23  C   UNK N   1      32.692  16.147   5.549  0.00  0.00    -0.030 A 
HETATM   24  C   UNK N   1      31.833  15.304   4.818  0.00  0.00     0.010 A 
HETATM   25  C   UNK N   1      31.452  15.621   3.513  0.00  0.00     0.001 A 
HETATM   26  C   UNK N   1      31.912  16.796   2.918  0.00  0.00     0.000 A 
HETATM   27  C   UNK N   1      32.767  17.645   3.622  0.00  0.00     0.001 A 
HETATM   28  C   UNK N   1      33.157  17.322   4.926  0.00  0.00     0.010 A 
ENDBRANCH  15  23
ENDBRANCH  11  12
ENDBRANCH  10  11
ENDBRANCH   9  10
ENDBRANCH   3   9
BRANCH   3  29
HETATM   29  C   UNK N   1      38.702  12.989   8.591  0.00  0.00    -0.046 A 
HETATM   30  C   UNK N   1      39.849  12.225   8.861  0.00  0.00     0.033 A 
HETATM   31  C   UNK N   1      40.948  12.241   8.016  0.00  0.00     0.056 A 
HETATM   32 Cl   UNK N   1      42.324  11.229   8.422  0.00  0.00    -0.083 Cl
HETATM   33  C   UNK N   1      40.945  13.082   6.896  0.00  0.00     0.055 A 
HETATM   34 Cl   UNK N   1      42.375  13.239   5.891  0.00  0.00    -0.083 Cl
HETATM   35  C   UNK N   1      39.797  13.827   6.590  0.00  0.00     0.026 A 
HETATM   36  C   UNK N   1      38.668  13.767   7.422  0.00  0.00     0.010 A 
ENDBRANCH   3  29
BRANCH   8  37
HETATM   37  C   UNK N   1      36.221  12.752  14.396  0.00  0.00     0.032 A 
HETATM   38  C   UNK N   1      36.892  13.711  15.181  0.00  0.00     0.017 A 
HETATM   39  C   UNK N   1      36.404  14.103  16.421  0.00  0.00     0.001 A 
HETATM   40  C   UNK N   1      35.223  13.544  16.902  0.00  0.00     0.000 A 
HETATM   41  C   UNK N   1      34.543  12.585  16.140  0.00  0.00     0.001 A 
HETATM   42  C   UNK N   1      35.053  12.169  14.902  0.00  0.00     0.017 A 
ENDBRANCH   8  37
TORSDOF 8
ENDMDL
MODEL 8
REMARK VINA RESULT:      -8.1      6.845     11.457
REMARK  8 active torsions:
REMARK  status: ('A' for Active; 'I' for Inactive)
REMARK    1  A    between atoms: N_5  and  C_18 
REMARK       I    between atoms: N_6  and  C_25 
REMARK    2  A    between atoms: N_7  and  C_9 
REMARK       I    between atoms: N_7  and  C_29 
REMARK    3  A    between atoms: C_8  and  C_10 
REMARK    4  A    between atoms: C_8  and  C_20 
REMARK    5  A    between atoms: C_9  and  C_22 
REMARK    6  A    between atoms: C_10  and  C_15 
REMARK    7  A    between atoms: C_15  and  C_18 
REMARK    8  A    between atoms: C_25  and  C_32 
ROOT
HETATM    1  O   UNK N   1      31.618  15.801   6.227  0.00  0.00    -0.267 OA
HETATM    2  N   UNK N   1      30.432  17.128   7.590  0.00  0.00    -0.347 N 
HETATM    3  C   UNK N   1      28.249  17.929   6.747  0.00  0.00     0.003 C 
HETATM    4  C   UNK N   1      28.000  18.609   8.111  0.00  0.00     0.017 C 
HETATM    5  C   UNK N   1      29.756  17.816   6.495  0.00  0.00     0.140 C 
HETATM    6  C   UNK N   1      29.081  18.500   9.170  0.00  0.00     0.021 C 
HETATM    7  C   UNK N   1      30.010  17.330   8.974  0.00  0.00     0.126 C 
HETATM    8  C   UNK N   1      31.463  16.267   7.353  0.00  0.00     0.253 C 
ENDROOT
BRANCH   3   9
HETATM    9  C   UNK N   1      27.667  16.497   6.735  0.00  0.00     0.017 C 
BRANCH   9  10
HETATM   10  C   UNK N   1      27.827  15.764   5.378  0.00  0.00     0.021 C 
BRANCH  10  11
HETATM   11  C   UNK N   1      27.348  14.316   5.421  0.00  0.00     0.117 C 
BRANCH  11  12
HETATM   12  N   UNK N   1      26.087  14.083   4.711  0.00  0.00    -0.412 N 
HETATM   13  C   UNK N   1      25.293  15.288   4.473  0.00  0.00     0.119 C 
HETATM   14  C   UNK N   1      24.119  15.407   5.439  0.00  0.00     0.056 C 
HETATM   15  C   UNK N   1      23.181  14.194   5.349  0.00  0.00     0.065 C 
HETATM   16  C   UNK N   1      24.067  13.007   5.804  0.00  0.00     0.056 C 
HETATM   17  C   UNK N   1      25.377  12.827   5.012  0.00  0.00     0.119 C 
BRANCH  15  18
HETATM   18  N   UNK N   1      22.015  14.468   6.239  0.00  0.00    -0.343 N 
HETATM   19  C   UNK N   1      21.896  15.813   6.775  0.00  0.00     0.154 C 
HETATM   20  C   UNK N   1      21.049  13.563   6.641  0.00  0.00     0.216 C 
HETATM   21  O   UNK N   1      20.181  13.919   7.427  0.00  0.00    -0.274 OA
HETATM   22  C   UNK N   1      20.973  12.151   6.161  0.00  0.00     0.117 C 
ENDBRANCH  15  18
BRANCH  15  23
HETATM   23  C   UNK N   1      22.711  14.031   3.885  0.00  0.00    -0.030 A 
HETATM   24  C   UNK N   1      22.199  15.139   3.181  0.00  0.00     0.010 A 
HETATM   25  C   UNK N   1      21.845  15.036   1.835  0.00  0.00     0.001 A 
HETATM   26  C   UNK N   1      22.008  13.825   1.161  0.00  0.00     0.000 A 
HETATM   27  C   UNK N   1      22.510  12.713   1.839  0.00  0.00     0.001 A 
HETATM   28  C   UNK N   1      22.857  12.814   3.191  0.00  0.00     0.010 A 
ENDBRANCH  15  23
ENDBRANCH  11  12
ENDBRANCH  10  11
ENDBRANCH   9  10
ENDBRANCH   3   9
BRANCH   3  29
HETATM   29  C   UNK N   1      27.467  18.748   5.729  0.00  0.00    -0.046 A 
HETATM   30  C   UNK N   1      26.083  18.531   5.636  0.00  0.00     0.033 A 
HETATM   31  C   UNK N   1      25.323  19.104   4.629  0.00  0.00     0.056 A 
HETATM   32 Cl   UNK N   1      23.595  18.799   4.614  0.00  0.00    -0.083 Cl
HETATM   33  C   UNK N   1      25.953  19.871   3.641  0.00  0.00     0.055 A 
HETATM   34 Cl   UNK N   1      25.045  20.485   2.270  0.00  0.00    -0.083 Cl
HETATM   35  C   UNK N   1      27.329  20.128   3.733  0.00  0.00     0.026 A 
HETATM   36  C   UNK N   1      28.084  19.587   4.785  0.00  0.00     0.010 A 
ENDBRANCH   3  29
BRANCH   8  37
HETATM   37  C   UNK N   1      32.489  15.994   8.393  0.00  0.00     0.032 A 
HETATM   38  C   UNK N   1      33.459  16.986   8.640  0.00  0.00     0.017 A 
HETATM   39  C   UNK N   1      34.546  16.747   9.471  0.00  0.00     0.001 A 
HETATM   40  C   UNK N   1      34.683  15.503  10.081  0.00  0.00     0.000 A 
HETATM   41  C   UNK N   1      33.733  14.500   9.846  0.00  0.00     0.001 A 
HETATM   42  C   UNK N   1      32.653  14.735   8.982  0.00  0.00     0.017 A 
ENDBRANCH   8  37
TORSDOF 8
ENDMDL
MODEL 9
REMARK VINA RESULT:      -8.0      1.821      2.400
REMARK  8 active torsions:
REMARK  status: ('A' for Active; 'I' for Inactive)
REMARK    1  A    between atoms: N_5  and  C_18 
REMARK       I    between atoms: N_6  and  C_25 
REMARK    2  A    between atoms: N_7  and  C_9 
REMARK       I    between atoms: N_7  and  C_29 
REMARK    3  A    between atoms: C_8  and  C_10 
REMARK    4  A    between atoms: C_8  and  C_20 
REMARK    5  A    between atoms: C_9  and  C_22 
REMARK    6  A    between atoms: C_10  and  C_15 
REMARK    7  A    between atoms: C_15  and  C_18 
REMARK    8  A    between atoms: C_25  and  C_32 
ROOT
HETATM    1  O   UNK N   1      33.783  12.222  14.952  0.00  0.00    -0.267 OA
HETATM    2  N   UNK N   1      35.894  11.599  14.530  0.00  0.00    -0.347 N 
HETATM    3  C   UNK N   1      36.510  11.277  12.156  0.00  0.00     0.003 C 
HETATM    4  C   UNK N   1      37.964  10.999  12.597  0.00  0.00     0.017 C 
HETATM    5  C   UNK N   1      35.549  10.910  13.291  0.00  0.00     0.140 C 
HETATM    6  C   UNK N   1      38.276  11.026  14.082  0.00  0.00     0.021 C 
HETATM    7  C   UNK N   1      37.291  11.821  14.897  0.00  0.00     0.126 C 
HETATM    8  C   UNK N   1      34.927  12.068  15.370  0.00  0.00     0.253 C 
ENDROOT
BRANCH   3   9
HETATM    9  C   UNK N   1      36.309  12.777  11.844  0.00  0.00     0.017 C 
BRANCH   9  10
HETATM   10  C   UNK N   1      34.839  13.166  11.544  0.00  0.00     0.021 C 
BRANCH  10  11
HETATM   11  C   UNK N   1      34.631  14.674  11.427  0.00  0.00     0.117 C 
BRANCH  11  12
HETATM   12  N   UNK N   1      34.298  15.127  10.073  0.00  0.00    -0.412 N 
HETATM   13  C   UNK N   1      33.043  14.592   9.546  0.00  0.00     0.119 C 
HETATM   14  C   UNK N   1      33.271  13.464   8.546  0.00  0.00     0.056 C 
HETATM   15  C   UNK N   1      34.130  13.921   7.357  0.00  0.00     0.065 C 
HETATM   16  C   UNK N   1      35.491  14.282   8.002  0.00  0.00     0.056 C 
HETATM   17  C   UNK N   1      35.422  15.319   9.140  0.00  0.00     0.119 C 
BRANCH  15  18
HETATM   18  N   UNK N   1      34.188  12.787   6.390  0.00  0.00    -0.343 N 
HETATM   19  C   UNK N   1      33.249  11.697   6.593  0.00  0.00     0.154 C 
HETATM   20  C   UNK N   1      35.072  12.642   5.335  0.00  0.00     0.216 C 
HETATM   21  O   UNK N   1      35.040  11.622   4.659  0.00  0.00    -0.274 OA
HETATM   22  C   UNK N   1      36.076  13.671   4.937  0.00  0.00     0.117 C 
ENDBRANCH  15  18
BRANCH  15  23
HETATM   23  C   UNK N   1      33.461  15.151   6.700  0.00  0.00    -0.030 A 
HETATM   24  C   UNK N   1      34.240  16.265   6.333  0.00  0.00     0.010 A 
HETATM   25  C   UNK N   1      33.673  17.353   5.666  0.00  0.00     0.001 A 
HETATM   26  C   UNK N   1      32.316  17.342   5.342  0.00  0.00     0.000 A 
HETATM   27  C   UNK N   1      31.524  16.250   5.700  0.00  0.00     0.001 A 
HETATM   28  C   UNK N   1      32.090  15.165   6.376  0.00  0.00     0.010 A 
ENDBRANCH  15  23
ENDBRANCH  11  12
ENDBRANCH  10  11
ENDBRANCH   9  10
ENDBRANCH   3   9
BRANCH   3  29
HETATM   29  C   UNK N   1      36.321  10.510  10.854  0.00  0.00    -0.046 A 
HETATM   30  C   UNK N   1      37.057  10.929   9.734  0.00  0.00     0.033 A 
HETATM   31  C   UNK N   1      36.824  10.403   8.473  0.00  0.00     0.056 A 
HETATM   32 Cl   UNK N   1      37.816  10.967   7.140  0.00  0.00    -0.083 Cl
HETATM   33  C   UNK N   1      35.791   9.474   8.293  0.00  0.00     0.055 A 
HETATM   34 Cl   UNK N   1      35.372   8.901   6.688  0.00  0.00    -0.083 Cl
HETATM   35  C   UNK N   1      35.066   9.017   9.404  0.00  0.00     0.026 A 
HETATM   36  C   UNK N   1      35.341   9.516  10.686  0.00  0.00     0.010 A 
ENDBRANCH   3  29
BRANCH   8  37
HETATM   37  C   UNK N   1      35.197  12.260  16.819  0.00  0.00     0.032 A 
HETATM   38  C   UNK N   1      35.378  11.110  17.614  0.00  0.00     0.017 A 
HETATM   39  C   UNK N   1      35.468  11.193  18.998  0.00  0.00     0.001 A 
HETATM   40  C   UNK N   1      35.383  12.436  19.618  0.00  0.00     0.000 A 
HETATM   41  C   UNK N   1      35.197  13.591  18.848  0.00  0.00     0.001 A 
HETATM   42  C   UNK N   1      35.077  13.502  17.453  0.00  0.00     0.017 A 
ENDBRANCH   8  37
TORSDOF 8
ENDMDL
