MODEL 1
REMARK VINA RESULT:      -8.2      0.000      0.000
REMARK  9 active torsions:
REMARK  status: ('A' for Active; 'I' for Inactive)
REMARK    1  A    between atoms: C_3  and  N_13 
REMARK    2  A    between atoms: C_5  and  C_11 
REMARK    3  A    between atoms: C_22  and  C_8 
REMARK    4  A    between atoms: C_20  and  C_9 
REMARK    5  A    between atoms: C_11  and  C_16 
REMARK    6  A    between atoms: C_30  and  N_12 
REMARK       I    between atoms: C_16  and  N_13 
REMARK    7  A    between atoms: N_34  and  C_19 
REMARK    8  A    between atoms: O_35  and  C_22 
REMARK    9  A    between atoms: O_36  and  N_25 
ROOT
HETATM    1  N   UNK N   1      30.242  17.745   7.667  0.00  0.00    -0.293 N 
HETATM    2  C   UNK N   1      30.751  17.841   8.850  0.00  0.00     0.251 A 
HETATM    3  C   UNK N   1      32.148  17.488   8.467  0.00  0.00     0.211 A 
HETATM    4  C   UNK N   1      31.451  17.331   7.033  0.00  0.00     0.187 A 
HETATM    5  C   UNK N   1      29.030  18.023   7.002  0.00  0.00     0.119 C 
HETATM    6  C   UNK N   1      28.927  17.507   5.761  0.00  0.00    -0.014 C 
HETATM    7  S   UNK N   1      31.101  15.687   6.391  0.00  0.00    -0.136 SA
HETATM    8  C   UNK N   1      29.906  16.444   5.227  0.00  0.00     0.117 C 
HETATM    9  O   UNK N   1      30.212  18.204   9.883  0.00  0.00    -0.271 OA
ENDROOT
BRANCH   3  10
HETATM   10  N   UNK N   1      32.701  16.260   8.969  0.00  0.00    -0.339 N 
HETATM   11  C   UNK N   1      33.956  16.194   9.447  0.00  0.00     0.274 C 
HETATM   12  O   UNK N   1      34.560  17.227   9.699  0.00  0.00    -0.266 OA
HETATM   13  H   UNK N   1      32.147  15.446   8.962  0.00  0.00     0.163 HD
BRANCH  11  14
HETATM   14  C   UNK N   1      34.684  14.894   9.472  0.00  0.00     0.166 C 
HETATM   15  N   UNK N   1      35.135  14.321   8.400  0.00  0.00    -0.260 N 
ATOM     16  HN  UNK N   1      35.700  13.479   8.497  1.00  0.00     0.194 HD
BRANCH  14  17
HETATM   17  C   UNK N   1      35.092  14.367  10.786  0.00  0.00     0.148 A 
HETATM   18  N   UNK N   1      35.955  15.081  11.606  0.00  0.00    -0.320 N 
HETATM   19  C   UNK N   1      36.058  14.503  12.825  0.00  0.00     0.160 A 
ATOM     20  HN  UNK N   1      36.448  15.930  11.327  1.00  0.00     0.169 HD
HETATM   21  S   UNK N   1      35.119  13.180  12.843  0.00  0.00     0.024 SA
HETATM   22  N   UNK N   1      34.512  13.244  11.327  0.00  0.00    -0.307 N 
ATOM     23  HN  UNK N   1      33.855  12.600  10.885  1.00  0.00     0.176 HD
BRANCH  19  24
HETATM   24  N   UNK N   1      36.753  15.052  13.917  0.00  0.00    -0.379 N 
HETATM   25  H   UNK N   1      36.485  14.918  14.855  0.00  0.00     0.158 HD
HETATM   26  H   UNK N   1      37.552  15.600  13.734  0.00  0.00     0.158 HD
ENDBRANCH  19  24
ENDBRANCH  14  17
BRANCH  15  27
HETATM   27  O   UNK N   1      34.891  14.783   7.190  0.00  0.00    -0.289 OA
HETATM   28  H   UNK N   1      34.422  15.586   7.079  0.00  0.00     0.244 HD
ENDBRANCH  15  27
ENDBRANCH  11  14
ENDBRANCH   3  10
BRANCH   5  29
HETATM   29  C   UNK N   1      28.041  18.988   7.578  0.00  0.00     0.194 C 
HETATM   30  O   UNK N   1      27.794  20.032   6.998  0.00  0.00    -0.645 OA
BRANCH  29  31
HETATM   31  O   UNK N   1      27.428  18.737   8.752  0.00  0.00    -0.772 OA
HETATM   32  H   UNK N   1      27.907  18.472   9.512  0.00  0.00     0.167 HD
ENDBRANCH  29  31
ENDBRANCH   5  29
BRANCH   6  33
HETATM   33  C   UNK N   1      28.009  18.064   4.775  0.00  0.00     0.023 C 
HETATM   34  C   UNK N   1      26.872  17.377   4.567  0.00  0.00     0.012 C 
HETATM   35  C   UNK N   1      25.707  18.000   4.071  0.00  0.00     0.250 C 
HETATM   36  C   UNK N   1      26.477  16.114   5.288  0.00  0.00     0.064 C 
HETATM   37  N   UNK N   1      24.617  17.412   4.588  0.00  0.00    -0.342 N 
HETATM   38  O   UNK N   1      25.692  19.078   3.503  0.00  0.00    -0.268 OA
HETATM   39  C   UNK N   1      24.945  16.229   5.358  0.00  0.00     0.131 C 
BRANCH  37  40
HETATM   40  C   UNK N   1      23.438  18.196   4.873  0.00  0.00     0.106 C 
HETATM   41  C   UNK N   1      22.505  17.589   5.877  0.00  0.00     0.046 C 
HETATM   42  C   UNK N   1      21.256  18.418   5.652  0.00  0.00     0.116 C 
HETATM   43  N   UNK N   1      21.291  18.917   4.272  0.00  0.00    -0.419 N 
HETATM   44  C   UNK N   1      22.531  18.410   3.699  0.00  0.00     0.139 C 
HETATM   45  H   UNK N   1      20.591  19.498   3.810  0.00  0.00     0.153 HD
ENDBRANCH  37  40
ENDBRANCH   6  33
TORSDOF 9
ENDMDL
MODEL 2
REMARK VINA RESULT:      -8.1      1.603      2.220
REMARK  9 active torsions:
REMARK  status: ('A' for Active; 'I' for Inactive)
REMARK    1  A    between atoms: C_3  and  N_13 
REMARK    2  A    between atoms: C_5  and  C_11 
REMARK    3  A    between atoms: C_22  and  C_8 
REMARK    4  A    between atoms: C_20  and  C_9 
REMARK    5  A    between atoms: C_11  and  C_16 
REMARK    6  A    between atoms: C_30  and  N_12 
REMARK       I    between atoms: C_16  and  N_13 
REMARK    7  A    between atoms: N_34  and  C_19 
REMARK    8  A    between atoms: O_35  and  C_22 
REMARK    9  A    between atoms: O_36  and  N_25 
ROOT
HETATM    1  N   UNK N   1      30.369  17.782   7.608  0.00  0.00    -0.293 N 
HETATM    2  C   UNK N   1      30.914  18.094   8.736  0.00  0.00     0.251 A 
HETATM    3  C   UNK N   1      32.317  17.781   8.343  0.00  0.00     0.211 A 
HETATM    4  C   UNK N   1      31.580  17.359   6.985  0.00  0.00     0.187 A 
HETATM    5  C   UNK N   1      29.115  17.872   6.968  0.00  0.00     0.119 C 
HETATM    6  C   UNK N   1      29.004  17.167   5.826  0.00  0.00    -0.014 C 
HETATM    7  S   UNK N   1      31.329  15.616   6.616  0.00  0.00    -0.136 SA
HETATM    8  C   UNK N   1      30.038  16.102   5.411  0.00  0.00     0.117 C 
HETATM    9  O   UNK N   1      30.389  18.574   9.728  0.00  0.00    -0.271 OA
ENDROOT
BRANCH   3  10
HETATM   10  N   UNK N   1      32.979  16.684   8.997  0.00  0.00    -0.339 N 
HETATM   11  C   UNK N   1      34.286  16.734   9.310  0.00  0.00     0.274 C 
HETATM   12  O   UNK N   1      34.874  17.805   9.275  0.00  0.00    -0.266 OA
HETATM   13  H   UNK N   1      32.462  15.877   9.221  0.00  0.00     0.163 HD
BRANCH  11  14
HETATM   14  C   UNK N   1      35.064  15.475   9.491  0.00  0.00     0.166 C 
HETATM   15  N   UNK N   1      36.096  15.395  10.270  0.00  0.00    -0.260 N 
ATOM     16  HN  UNK N   1      36.528  14.483  10.416  1.00  0.00     0.194 HD
BRANCH  14  17
HETATM   17  C   UNK N   1      34.495  14.237   8.932  0.00  0.00     0.148 A 
HETATM   18  N   UNK N   1      33.790  13.349   9.732  0.00  0.00    -0.320 N 
HETATM   19  C   UNK N   1      33.213  12.377   8.989  0.00  0.00     0.160 A 
ATOM     20  HN  UNK N   1      33.716  13.419  10.748  1.00  0.00     0.169 HD
HETATM   21  S   UNK N   1      33.584  12.637   7.432  0.00  0.00     0.024 SA
HETATM   22  N   UNK N   1      34.487  13.991   7.579  0.00  0.00    -0.307 N 
ATOM     23  HN  UNK N   1      34.939  14.529   6.839  1.00  0.00     0.176 HD
BRANCH  19  24
HETATM   24  N   UNK N   1      32.330  11.402   9.489  0.00  0.00    -0.379 N 
HETATM   25  H   UNK N   1      31.422  11.605   9.811  0.00  0.00     0.158 HD
HETATM   26  H   UNK N   1      32.637  10.466   9.518  0.00  0.00     0.158 HD
ENDBRANCH  19  24
ENDBRANCH  14  17
BRANCH  15  27
HETATM   27  O   UNK N   1      36.610  16.443  10.882  0.00  0.00    -0.289 OA
HETATM   28  H   UNK N   1      36.855  17.201  10.389  0.00  0.00     0.244 HD
ENDBRANCH  15  27
ENDBRANCH  11  14
ENDBRANCH   3  10
BRANCH   5  29
HETATM   29  C   UNK N   1      28.080  18.845   7.439  0.00  0.00     0.194 C 
HETATM   30  O   UNK N   1      27.796  19.817   6.759  0.00  0.00    -0.645 OA
BRANCH  29  31
HETATM   31  O   UNK N   1      27.465  18.684   8.628  0.00  0.00    -0.772 OA
HETATM   32  H   UNK N   1      26.724  18.119   8.727  0.00  0.00     0.167 HD
ENDBRANCH  29  31
ENDBRANCH   5  29
BRANCH   6  33
HETATM   33  C   UNK N   1      28.011  17.502   4.813  0.00  0.00     0.023 C 
HETATM   34  C   UNK N   1      26.913  16.725   4.777  0.00  0.00     0.012 C 
HETATM   35  C   UNK N   1      25.689  17.191   4.250  0.00  0.00     0.250 C 
HETATM   36  C   UNK N   1      26.632  15.575   5.709  0.00  0.00     0.064 C 
HETATM   37  N   UNK N   1      24.663  16.632   4.910  0.00  0.00    -0.342 N 
HETATM   38  O   UNK N   1      25.580  18.160   3.518  0.00  0.00    -0.268 OA
HETATM   39  C   UNK N   1      25.100  15.611   5.841  0.00  0.00     0.131 C 
BRANCH  37  40
HETATM   40  C   UNK N   1      23.448  17.383   5.128  0.00  0.00     0.106 C 
HETATM   41  C   UNK N   1      22.534  16.813   6.170  0.00  0.00     0.046 C 
HETATM   42  C   UNK N   1      21.252  17.566   5.874  0.00  0.00     0.116 C 
HETATM   43  N   UNK N   1      21.278  17.960   4.462  0.00  0.00    -0.419 N 
HETATM   44  C   UNK N   1      22.543  17.467   3.936  0.00  0.00     0.139 C 
HETATM   45  H   UNK N   1      20.557  18.473   3.952  0.00  0.00     0.153 HD
ENDBRANCH  37  40
ENDBRANCH   6  33
TORSDOF 9
ENDMDL
MODEL 3
REMARK VINA RESULT:      -7.9      3.734      5.875
REMARK  9 active torsions:
REMARK  status: ('A' for Active; 'I' for Inactive)
REMARK    1  A    between atoms: C_3  and  N_13 
REMARK    2  A    between atoms: C_5  and  C_11 
REMARK    3  A    between atoms: C_22  and  C_8 
REMARK    4  A    between atoms: C_20  and  C_9 
REMARK    5  A    between atoms: C_11  and  C_16 
REMARK    6  A    between atoms: C_30  and  N_12 
REMARK       I    between atoms: C_16  and  N_13 
REMARK    7  A    between atoms: N_34  and  C_19 
REMARK    8  A    between atoms: O_35  and  C_22 
REMARK    9  A    between atoms: O_36  and  N_25 
ROOT
HETATM    1  N   UNK N   1      35.176  15.754   9.436  0.00  0.00    -0.293 N 
HETATM    2  C   UNK N   1      35.441  16.106  10.650  0.00  0.00     0.251 A 
HETATM    3  C   UNK N   1      36.511  15.098  10.893  0.00  0.00     0.211 A 
HETATM    4  C   UNK N   1      36.102  14.670   9.405  0.00  0.00     0.187 A 
HETATM    5  C   UNK N   1      34.412  16.202   8.338  0.00  0.00     0.119 C 
HETATM    6  C   UNK N   1      34.289  15.318   7.328  0.00  0.00    -0.014 C 
HETATM    7  S   UNK N   1      35.093  13.202   9.149  0.00  0.00    -0.136 SA
HETATM    8  C   UNK N   1      34.676  13.834   7.480  0.00  0.00     0.117 C 
HETATM    9  O   UNK N   1      34.982  17.040  11.288  0.00  0.00    -0.271 OA
ENDROOT
BRANCH   3  10
HETATM   10  N   UNK N   1      36.268  14.070  11.868  0.00  0.00    -0.339 N 
HETATM   11  C   UNK N   1      36.460  14.282  13.182  0.00  0.00     0.274 C 
HETATM   12  O   UNK N   1      36.600  15.425  13.593  0.00  0.00    -0.266 OA
HETATM   13  H   UNK N   1      35.953  13.187  11.567  0.00  0.00     0.163 HD
BRANCH  11  14
HETATM   14  C   UNK N   1      36.713  13.136  14.101  0.00  0.00     0.166 C 
HETATM   15  N   UNK N   1      37.463  12.130  13.777  0.00  0.00    -0.260 N 
ATOM     16  HN  UNK N   1      37.665  11.424  14.485  1.00  0.00     0.194 HD
BRANCH  14  17
HETATM   17  C   UNK N   1      36.270  13.274  15.499  0.00  0.00     0.148 A 
HETATM   18  N   UNK N   1      36.576  14.408  16.238  0.00  0.00    -0.320 N 
HETATM   19  C   UNK N   1      35.930  14.403  17.426  0.00  0.00     0.160 A 
ATOM     20  HN  UNK N   1      37.205  15.149  15.926  1.00  0.00     0.169 HD
HETATM   21  S   UNK N   1      35.044  13.049  17.520  0.00  0.00     0.024 SA
HETATM   22  N   UNK N   1      35.400  12.377  16.074  0.00  0.00    -0.307 N 
ATOM     23  HN  UNK N   1      35.057  11.497  15.687  1.00  0.00     0.176 HD
BRANCH  19  24
HETATM   24  N   UNK N   1      35.933  15.469  18.345  0.00  0.00    -0.379 N 
HETATM   25  H   UNK N   1      36.558  16.228  18.295  0.00  0.00     0.158 HD
HETATM   26  H   UNK N   1      35.274  15.455  19.078  0.00  0.00     0.158 HD
ENDBRANCH  19  24
ENDBRANCH  14  17
BRANCH  15  27
HETATM   27  O   UNK N   1      37.974  11.982  12.572  0.00  0.00    -0.289 OA
HETATM   28  H   UNK N   1      37.481  11.550  11.902  0.00  0.00     0.244 HD
ENDBRANCH  15  27
ENDBRANCH  11  14
ENDBRANCH   3  10
BRANCH   5  29
HETATM   29  C   UNK N   1      33.960  17.626   8.246  0.00  0.00     0.194 C 
HETATM   30  O   UNK N   1      32.800  17.918   8.481  0.00  0.00    -0.645 OA
BRANCH  29  31
HETATM   31  O   UNK N   1      34.814  18.603   7.879  0.00  0.00    -0.772 OA
HETATM   32  H   UNK N   1      34.657  19.137   7.124  0.00  0.00     0.167 HD
ENDBRANCH  29  31
ENDBRANCH   5  29
BRANCH   6  33
HETATM   33  C   UNK N   1      33.973  15.746   5.971  0.00  0.00     0.023 C 
HETATM   34  C   UNK N   1      32.766  15.385   5.500  0.00  0.00     0.012 C 
HETATM   35  C   UNK N   1      32.121  16.109   4.475  0.00  0.00     0.250 C 
HETATM   36  C   UNK N   1      31.730  14.610   6.272  0.00  0.00     0.064 C 
HETATM   37  N   UNK N   1      30.791  16.069   4.652  0.00  0.00    -0.342 N 
HETATM   38  O   UNK N   1      32.683  16.888   3.724  0.00  0.00    -0.268 OA
HETATM   39  C   UNK N   1      30.407  15.176   5.726  0.00  0.00     0.131 C 
BRANCH  37  40
HETATM   40  C   UNK N   1      29.978  17.206   4.288  0.00  0.00     0.106 C 
HETATM   41  C   UNK N   1      29.383  17.951   5.445  0.00  0.00     0.046 C 
HETATM   42  C   UNK N   1      28.326  18.781   4.743  0.00  0.00     0.116 C 
HETATM   43  N   UNK N   1      27.946  18.078   3.513  0.00  0.00    -0.419 N 
HETATM   44  C   UNK N   1      28.762  16.872   3.478  0.00  0.00     0.139 C 
HETATM   45  H   UNK N   1      27.252  18.372   2.825  0.00  0.00     0.153 HD
ENDBRANCH  37  40
ENDBRANCH   6  33
TORSDOF 9
ENDMDL
MODEL 4
REMARK VINA RESULT:      -7.8      2.473      3.534
REMARK  9 active torsions:
REMARK  status: ('A' for Active; 'I' for Inactive)
REMARK    1  A    between atoms: C_3  and  N_13 
REMARK    2  A    between atoms: C_5  and  C_11 
REMARK    3  A    between atoms: C_22  and  C_8 
REMARK    4  A    between atoms: C_20  and  C_9 
REMARK    5  A    between atoms: C_11  and  C_16 
REMARK    6  A    between atoms: C_30  and  N_12 
REMARK       I    between atoms: C_16  and  N_13 
REMARK    7  A    between atoms: N_34  and  C_19 
REMARK    8  A    between atoms: O_35  and  C_22 
REMARK    9  A    between atoms: O_36  and  N_25 
ROOT
HETATM    1  N   UNK N   1      32.317  16.132   5.911  0.00  0.00    -0.293 N 
HETATM    2  C   UNK N   1      33.540  15.726   5.996  0.00  0.00     0.251 A 
HETATM    3  C   UNK N   1      33.448  15.182   7.380  0.00  0.00     0.211 A 
HETATM    4  C   UNK N   1      31.958  15.754   7.239  0.00  0.00     0.187 A 
HETATM    5  C   UNK N   1      31.429  16.647   4.945  0.00  0.00     0.119 C 
HETATM    6  C   UNK N   1      30.277  17.147   5.435  0.00  0.00    -0.014 C 
HETATM    7  S   UNK N   1      31.516  17.294   8.058  0.00  0.00    -0.136 SA
HETATM    8  C   UNK N   1      30.073  17.426   6.937  0.00  0.00     0.117 C 
HETATM    9  O   UNK N   1      34.406  15.736   5.136  0.00  0.00    -0.271 OA
ENDROOT
BRANCH   3  10
HETATM   10  N   UNK N   1      34.208  15.826   8.417  0.00  0.00    -0.339 N 
HETATM   11  C   UNK N   1      35.107  15.151   9.156  0.00  0.00     0.274 C 
HETATM   12  O   UNK N   1      35.475  14.044   8.793  0.00  0.00    -0.266 OA
HETATM   13  H   UNK N   1      34.069  16.785   8.589  0.00  0.00     0.163 HD
BRANCH  11  14
HETATM   14  C   UNK N   1      35.492  15.646  10.508  0.00  0.00     0.166 C 
HETATM   15  N   UNK N   1      35.557  16.907  10.801  0.00  0.00    -0.260 N 
ATOM     16  HN  UNK N   1      35.741  17.175  11.767  1.00  0.00     0.194 HD
BRANCH  14  17
HETATM   17  C   UNK N   1      35.580  14.657  11.595  0.00  0.00     0.148 A 
HETATM   18  N   UNK N   1      34.625  13.659  11.734  0.00  0.00    -0.320 N 
HETATM   19  C   UNK N   1      34.990  12.765  12.681  0.00  0.00     0.160 A 
ATOM     20  HN  UNK N   1      33.762  13.606  11.192  1.00  0.00     0.169 HD
HETATM   21  S   UNK N   1      36.420  13.224  13.293  0.00  0.00     0.024 SA
HETATM   22  N   UNK N   1      36.687  14.571  12.407  0.00  0.00    -0.307 N 
ATOM     23  HN  UNK N   1      37.488  15.202  12.448  1.00  0.00     0.176 HD
BRANCH  19  24
HETATM   24  N   UNK N   1      34.299  11.574  12.968  0.00  0.00    -0.379 N 
HETATM   25  H   UNK N   1      34.743  10.703  13.087  0.00  0.00     0.158 HD
HETATM   26  H   UNK N   1      33.318  11.612  13.055  0.00  0.00     0.158 HD
ENDBRANCH  19  24
ENDBRANCH  14  17
BRANCH  15  27
HETATM   27  O   UNK N   1      35.398  17.857   9.901  0.00  0.00    -0.289 OA
HETATM   28  H   UNK N   1      35.212  18.734  10.172  0.00  0.00     0.244 HD
ENDBRANCH  15  27
ENDBRANCH  11  14
ENDBRANCH   3  10
BRANCH   5  29
HETATM   29  C   UNK N   1      31.686  16.453   3.483  0.00  0.00     0.194 C 
HETATM   30  O   UNK N   1      31.655  15.334   2.998  0.00  0.00    -0.645 OA
BRANCH  29  31
HETATM   31  O   UNK N   1      31.981  17.498   2.685  0.00  0.00    -0.772 OA
HETATM   32  H   UNK N   1      32.859  17.811   2.586  0.00  0.00     0.167 HD
ENDBRANCH  29  31
ENDBRANCH   5  29
BRANCH   6  33
HETATM   33  C   UNK N   1      29.083  17.270   4.609  0.00  0.00     0.023 C 
HETATM   34  C   UNK N   1      28.296  16.181   4.535  0.00  0.00     0.012 C 
HETATM   35  C   UNK N   1      26.921  16.276   4.231  0.00  0.00     0.250 C 
HETATM   36  C   UNK N   1      28.544  14.881   5.255  0.00  0.00     0.064 C 
HETATM   37  N   UNK N   1      26.242  15.312   4.872  0.00  0.00    -0.342 N 
HETATM   38  O   UNK N   1      26.397  17.246   3.712  0.00  0.00    -0.268 OA
HETATM   39  C   UNK N   1      27.121  14.375   5.543  0.00  0.00     0.131 C 
BRANCH  37  40
HETATM   40  C   UNK N   1      24.902  15.566   5.349  0.00  0.00     0.106 C 
HETATM   41  C   UNK N   1      24.606  15.020   6.713  0.00  0.00     0.046 C 
HETATM   42  C   UNK N   1      23.092  15.100   6.735  0.00  0.00     0.116 C 
HETATM   43  N   UNK N   1      22.619  15.041   5.347  0.00  0.00    -0.419 N 
HETATM   44  C   UNK N   1      23.817  14.942   4.524  0.00  0.00     0.139 C 
HETATM   45  H   UNK N   1      21.651  15.063   5.025  0.00  0.00     0.153 HD
ENDBRANCH  37  40
ENDBRANCH   6  33
TORSDOF 9
ENDMDL
MODEL 5
REMARK VINA RESULT:      -7.7      5.311      9.113
REMARK  9 active torsions:
REMARK  status: ('A' for Active; 'I' for Inactive)
REMARK    1  A    between atoms: C_3  and  N_13 
REMARK    2  A    between atoms: C_5  and  C_11 
REMARK    3  A    between atoms: C_22  and  C_8 
REMARK    4  A    between atoms: C_20  and  C_9 
REMARK    5  A    between atoms: C_11  and  C_16 
REMARK    6  A    between atoms: C_30  and  N_12 
REMARK       I    between atoms: C_16  and  N_13 
REMARK    7  A    between atoms: N_34  and  C_19 
REMARK    8  A    between atoms: O_35  and  C_22 
REMARK    9  A    between atoms: O_36  and  N_25 
ROOT
HETATM    1  N   UNK N   1      22.483  18.327   3.485  0.00  0.00    -0.293 N 
HETATM    2  C   UNK N   1      23.131  19.444   3.465  0.00  0.00     0.251 A 
HETATM    3  C   UNK N   1      24.489  18.861   3.653  0.00  0.00     0.211 A 
HETATM    4  C   UNK N   1      23.629  17.511   3.724  0.00  0.00     0.187 A 
HETATM    5  C   UNK N   1      21.178  17.847   3.249  0.00  0.00     0.119 C 
HETATM    6  C   UNK N   1      20.957  16.577   3.643  0.00  0.00    -0.014 C 
HETATM    7  S   UNK N   1      23.324  16.736   5.319  0.00  0.00    -0.136 SA
HETATM    8  C   UNK N   1      21.936  15.815   4.557  0.00  0.00     0.117 C 
HETATM    9  O   UNK N   1      22.703  20.568   3.258  0.00  0.00    -0.271 OA
ENDROOT
BRANCH   3  10
HETATM   10  N   UNK N   1      25.193  19.152   4.872  0.00  0.00    -0.339 N 
HETATM   11  C   UNK N   1      26.425  19.690   4.865  0.00  0.00     0.274 C 
HETATM   12  O   UNK N   1      26.865  20.174   3.833  0.00  0.00    -0.266 OA
HETATM   13  H   UNK N   1      24.762  18.954   5.734  0.00  0.00     0.163 HD
BRANCH  11  14
HETATM   14  C   UNK N   1      27.330  19.513   6.036  0.00  0.00     0.166 C 
HETATM   15  N   UNK N   1      27.067  20.003   7.207  0.00  0.00    -0.260 N 
ATOM     16  HN  UNK N   1      27.684  19.769   7.984  1.00  0.00     0.194 HD
BRANCH  14  17
HETATM   17  C   UNK N   1      28.444  18.560   5.898  0.00  0.00     0.148 A 
HETATM   18  N   UNK N   1      29.102  18.400   4.686  0.00  0.00    -0.320 N 
HETATM   19  C   UNK N   1      30.193  17.612   4.825  0.00  0.00     0.160 A 
ATOM     20  HN  UNK N   1      28.802  18.821   3.806  1.00  0.00     0.169 HD
HETATM   21  S   UNK N   1      30.299  17.156   6.377  0.00  0.00     0.024 SA
HETATM   22  N   UNK N   1      28.989  17.920   6.987  0.00  0.00    -0.307 N 
ATOM     23  HN  UNK N   1      28.654  17.923   7.950  1.00  0.00     0.176 HD
BRANCH  19  24
HETATM   24  N   UNK N   1      31.136  17.363   3.812  0.00  0.00    -0.379 N 
HETATM   25  H   UNK N   1      30.897  17.241   2.864  0.00  0.00     0.158 HD
HETATM   26  H   UNK N   1      32.087  17.308   4.063  0.00  0.00     0.158 HD
ENDBRANCH  19  24
ENDBRANCH  14  17
BRANCH  15  27
HETATM   27  O   UNK N   1      26.035  20.790   7.434  0.00  0.00    -0.289 OA
HETATM   28  H   UNK N   1      25.809  21.027   8.312  0.00  0.00     0.244 HD
ENDBRANCH  15  27
ENDBRANCH  11  14
ENDBRANCH   3  10
BRANCH   5  29
HETATM   29  C   UNK N   1      20.202  18.640   2.438  0.00  0.00     0.194 C 
HETATM   30  O   UNK N   1      19.305  19.256   2.988  0.00  0.00    -0.645 OA
BRANCH  29  31
HETATM   31  O   UNK N   1      20.278  18.669   1.092  0.00  0.00    -0.772 OA
HETATM   32  H   UNK N   1      19.514  18.603   0.554  0.00  0.00     0.167 HD
ENDBRANCH  29  31
ENDBRANCH   5  29
BRANCH   6  33
HETATM   33  C   UNK N   1      19.881  15.776   3.072  0.00  0.00     0.023 C 
HETATM   34  C   UNK N   1      20.182  15.084   1.958  0.00  0.00     0.012 C 
HETATM   35  C   UNK N   1      19.473  13.920   1.591  0.00  0.00     0.250 C 
HETATM   36  C   UNK N   1      21.532  15.059   1.290  0.00  0.00     0.064 C 
HETATM   37  N   UNK N   1      20.292  13.061   0.967  0.00  0.00    -0.342 N 
HETATM   38  O   UNK N   1      18.375  13.618   2.027  0.00  0.00    -0.268 OA
HETATM   39  C   UNK N   1      21.598  13.635   0.712  0.00  0.00     0.131 C 
BRANCH  37  40
HETATM   40  C   UNK N   1      20.113  11.637   1.136  0.00  0.00     0.106 C 
HETATM   41  C   UNK N   1      21.378  10.834   1.095  0.00  0.00     0.046 C 
HETATM   42  C   UNK N   1      20.827   9.434   0.904  0.00  0.00     0.116 C 
HETATM   43  N   UNK N   1      19.520   9.552   0.249  0.00  0.00    -0.419 N 
HETATM   44  C   UNK N   1      19.295  10.979   0.066  0.00  0.00     0.139 C 
HETATM   45  H   UNK N   1      18.898   8.791  -0.024  0.00  0.00     0.153 HD
ENDBRANCH  37  40
ENDBRANCH   6  33
TORSDOF 9
ENDMDL
MODEL 6
REMARK VINA RESULT:      -7.7      3.339      5.170
REMARK  9 active torsions:
REMARK  status: ('A' for Active; 'I' for Inactive)
REMARK    1  A    between atoms: C_3  and  N_13 
REMARK    2  A    between atoms: C_5  and  C_11 
REMARK    3  A    between atoms: C_22  and  C_8 
REMARK    4  A    between atoms: C_20  and  C_9 
REMARK    5  A    between atoms: C_11  and  C_16 
REMARK    6  A    between atoms: C_30  and  N_12 
REMARK       I    between atoms: C_16  and  N_13 
REMARK    7  A    between atoms: N_34  and  C_19 
REMARK    8  A    between atoms: O_35  and  C_22 
REMARK    9  A    between atoms: O_36  and  N_25 
ROOT
HETATM    1  N   UNK N   1      34.997  16.020   9.078  0.00  0.00    -0.293 N 
HETATM    2  C   UNK N   1      35.509  16.229  10.245  0.00  0.00     0.251 A 
HETATM    3  C   UNK N   1      36.457  15.079  10.228  0.00  0.00     0.211 A 
HETATM    4  C   UNK N   1      35.747  14.836   8.812  0.00  0.00     0.187 A 
HETATM    5  C   UNK N   1      34.127  16.653   8.166  0.00  0.00     0.119 C 
HETATM    6  C   UNK N   1      33.715  15.882   7.140  0.00  0.00    -0.014 C 
HETATM    7  S   UNK N   1      34.518  13.532   8.647  0.00  0.00    -0.136 SA
HETATM    8  C   UNK N   1      33.915  14.354   7.125  0.00  0.00     0.117 C 
HETATM    9  O   UNK N   1      35.297  17.153  11.014  0.00  0.00    -0.271 OA
ENDROOT
BRANCH   3  10
HETATM   10  N   UNK N   1      36.244  14.007  11.163  0.00  0.00    -0.339 N 
HETATM   11  C   UNK N   1      37.174  13.060  11.374  0.00  0.00     0.274 C 
HETATM   12  O   UNK N   1      38.314  13.232  10.966  0.00  0.00    -0.266 OA
HETATM   13  H   UNK N   1      35.396  13.967  11.661  0.00  0.00     0.163 HD
BRANCH  11  14
HETATM   14  C   UNK N   1      36.780  11.725  11.908  0.00  0.00     0.166 C 
HETATM   15  N   UNK N   1      37.249  10.614  11.434  0.00  0.00    -0.260 N 
ATOM     16  HN  UNK N   1      37.006   9.742  11.903  1.00  0.00     0.194 HD
BRANCH  14  17
HETATM   17  C   UNK N   1      36.005  11.694  13.160  0.00  0.00     0.148 A 
HETATM   18  N   UNK N   1      36.478  12.312  14.309  0.00  0.00    -0.320 N 
HETATM   19  C   UNK N   1      35.538  12.312  15.283  0.00  0.00     0.160 A 
ATOM     20  HN  UNK N   1      37.411  12.713  14.408  1.00  0.00     0.169 HD
HETATM   21  S   UNK N   1      34.212  11.573  14.713  0.00  0.00     0.024 SA
HETATM   22  N   UNK N   1      34.718  11.210  13.202  0.00  0.00    -0.307 N 
ATOM     23  HN  UNK N   1      34.200  10.734  12.463  1.00  0.00     0.176 HD
BRANCH  19  24
HETATM   24  N   UNK N   1      35.665  12.970  16.520  0.00  0.00    -0.379 N 
HETATM   25  H   UNK N   1      35.027  13.647  16.843  0.00  0.00     0.158 HD
HETATM   26  H   UNK N   1      36.432  12.741  17.094  0.00  0.00     0.158 HD
ENDBRANCH  19  24
ENDBRANCH  14  17
BRANCH  15  27
HETATM   27  O   UNK N   1      38.026  10.564  10.370  0.00  0.00    -0.289 OA
HETATM   28  H   UNK N   1      38.594   9.832  10.238  0.00  0.00     0.244 HD
ENDBRANCH  15  27
ENDBRANCH  11  14
ENDBRANCH   3  10
BRANCH   5  29
HETATM   29  C   UNK N   1      33.865  18.124   8.248  0.00  0.00     0.194 C 
HETATM   30  O   UNK N   1      32.721  18.545   8.249  0.00  0.00    -0.645 OA
BRANCH  29  31
HETATM   31  O   UNK N   1      34.882  19.009   8.296  0.00  0.00    -0.772 OA
HETATM   32  H   UNK N   1      35.214  19.420   7.522  0.00  0.00     0.167 HD
ENDBRANCH  29  31
ENDBRANCH   5  29
BRANCH   6  33
HETATM   33  C   UNK N   1      33.236  16.462   5.892  0.00  0.00     0.023 C 
HETATM   34  C   UNK N   1      31.967  16.173   5.550  0.00  0.00     0.012 C 
HETATM   35  C   UNK N   1      31.213  17.015   4.706  0.00  0.00     0.250 C 
HETATM   36  C   UNK N   1      31.020  15.331   6.365  0.00  0.00     0.064 C 
HETATM   37  N   UNK N   1      29.918  16.974   5.053  0.00  0.00    -0.342 N 
HETATM   38  O   UNK N   1      31.694  17.865   3.975  0.00  0.00    -0.268 OA
HETATM   39  C   UNK N   1      29.654  15.972   6.066  0.00  0.00     0.131 C 
BRANCH  37  40
HETATM   40  C   UNK N   1      29.097  18.155   4.927  0.00  0.00     0.106 C 
HETATM   41  C   UNK N   1      28.381  18.561   6.179  0.00  0.00     0.046 C 
HETATM   42  C   UNK N   1      27.356  19.532   5.626  0.00  0.00     0.116 C 
HETATM   43  N   UNK N   1      27.106  19.172   4.227  0.00  0.00    -0.419 N 
HETATM   44  C   UNK N   1      27.965  18.029   3.952  0.00  0.00     0.139 C 
HETATM   45  H   UNK N   1      26.462  19.628   3.579  0.00  0.00     0.153 HD
ENDBRANCH  37  40
ENDBRANCH   6  33
TORSDOF 9
ENDMDL
MODEL 7
REMARK VINA RESULT:      -7.5      4.060     12.014
REMARK  9 active torsions:
REMARK  status: ('A' for Active; 'I' for Inactive)
REMARK    1  A    between atoms: C_3  and  N_13 
REMARK    2  A    between atoms: C_5  and  C_11 
REMARK    3  A    between atoms: C_22  and  C_8 
REMARK    4  A    between atoms: C_20  and  C_9 
REMARK    5  A    between atoms: C_11  and  C_16 
REMARK    6  A    between atoms: C_30  and  N_12 
REMARK       I    between atoms: C_16  and  N_13 
REMARK    7  A    between atoms: N_34  and  C_19 
REMARK    8  A    between atoms: O_35  and  C_22 
REMARK    9  A    between atoms: O_36  and  N_25 
ROOT
HETATM    1  N   UNK N   1      34.549  13.155   9.726  0.00  0.00    -0.293 N 
HETATM    2  C   UNK N   1      33.576  13.026   8.887  0.00  0.00     0.251 A 
HETATM    3  C   UNK N   1      34.067  14.026   7.897  0.00  0.00     0.211 A 
HETATM    4  C   UNK N   1      35.219  14.183   8.999  0.00  0.00     0.187 A 
HETATM    5  C   UNK N   1      35.037  12.536  10.896  0.00  0.00     0.119 C 
HETATM    6  C   UNK N   1      35.999  13.221  11.545  0.00  0.00    -0.014 C 
HETATM    7  S   UNK N   1      35.209  15.610  10.095  0.00  0.00    -0.136 SA
HETATM    8  C   UNK N   1      36.321  14.694  11.227  0.00  0.00     0.117 C 
HETATM    9  O   UNK N   1      32.640  12.243   8.921  0.00  0.00    -0.271 OA
ENDROOT
BRANCH   3  10
HETATM   10  N   UNK N   1      33.298  15.225   7.701  0.00  0.00    -0.339 N 
HETATM   11  C   UNK N   1      32.577  15.427   6.585  0.00  0.00     0.274 C 
HETATM   12  O   UNK N   1      32.359  14.490   5.830  0.00  0.00    -0.266 OA
HETATM   13  H   UNK N   1      33.299  15.915   8.403  0.00  0.00     0.163 HD
BRANCH  11  14
HETATM   14  C   UNK N   1      32.226  16.811   6.156  0.00  0.00     0.166 C 
HETATM   15  N   UNK N   1      33.118  17.720   5.921  0.00  0.00    -0.260 N 
ATOM     16  HN  UNK N   1      32.814  18.618   5.546  1.00  0.00     0.194 HD
BRANCH  14  17
HETATM   17  C   UNK N   1      30.827  17.072   5.778  0.00  0.00     0.148 A 
HETATM   18  N   UNK N   1      29.797  16.925   6.698  0.00  0.00    -0.320 N 
HETATM   19  C   UNK N   1      28.627  17.379   6.194  0.00  0.00     0.160 A 
ATOM     20  HN  UNK N   1      29.909  16.527   7.631  1.00  0.00     0.169 HD
HETATM   21  S   UNK N   1      28.894  17.919   4.689  0.00  0.00     0.024 SA
HETATM   22  N   UNK N   1      30.497  17.630   4.565  0.00  0.00    -0.307 N 
ATOM     23  HN  UNK N   1      31.111  17.820   3.772  1.00  0.00     0.176 HD
BRANCH  19  24
HETATM   24  N   UNK N   1      27.428  17.484   6.922  0.00  0.00    -0.379 N 
HETATM   25  H   UNK N   1      27.385  17.784   7.859  0.00  0.00     0.158 HD
HETATM   26  H   UNK N   1      26.585  17.245   6.471  0.00  0.00     0.158 HD
ENDBRANCH  19  24
ENDBRANCH  14  17
BRANCH  15  27
HETATM   27  O   UNK N   1      34.403  17.532   6.146  0.00  0.00    -0.289 OA
HETATM   28  H   UNK N   1      35.034  17.764   5.493  0.00  0.00     0.244 HD
ENDBRANCH  15  27
ENDBRANCH  11  14
ENDBRANCH   3  10
BRANCH   5  29
HETATM   29  C   UNK N   1      34.642  11.136  11.247  0.00  0.00     0.194 C 
HETATM   30  O   UNK N   1      35.028  10.201  10.566  0.00  0.00    -0.645 OA
BRANCH  29  31
HETATM   31  O   UNK N   1      33.838  10.884  12.299  0.00  0.00    -0.772 OA
HETATM   32  H   UNK N   1      32.983  11.262  12.368  0.00  0.00     0.167 HD
ENDBRANCH  29  31
ENDBRANCH   5  29
BRANCH   6  33
HETATM   33  C   UNK N   1      36.930  12.559  12.451  0.00  0.00     0.023 C 
HETATM   34  C   UNK N   1      36.781  12.831  13.760  0.00  0.00     0.012 C 
HETATM   35  C   UNK N   1      37.219  11.936  14.760  0.00  0.00     0.250 C 
HETATM   36  C   UNK N   1      35.723  13.730  14.345  0.00  0.00     0.064 C 
HETATM   37  N   UNK N   1      36.408  12.006  15.826  0.00  0.00    -0.342 N 
HETATM   38  O   UNK N   1      38.022  11.037  14.574  0.00  0.00    -0.268 OA
HETATM   39  C   UNK N   1      35.437  13.076  15.707  0.00  0.00     0.131 C 
BRANCH  37  40
HETATM   40  C   UNK N   1      36.135  10.822  16.608  0.00  0.00     0.106 C 
HETATM   41  C   UNK N   1      34.980  10.000  16.123  0.00  0.00     0.046 C 
HETATM   42  C   UNK N   1      34.729   9.113  17.327  0.00  0.00     0.116 C 
HETATM   43  N   UNK N   1      35.214   9.823  18.516  0.00  0.00    -0.419 N 
HETATM   44  C   UNK N   1      35.750  11.088  18.032  0.00  0.00     0.139 C 
HETATM   45  H   UNK N   1      35.182   9.498  19.483  0.00  0.00     0.153 HD
ENDBRANCH  37  40
ENDBRANCH   6  33
TORSDOF 9
ENDMDL
MODEL 8
REMARK VINA RESULT:      -7.5      3.594      5.770
REMARK  9 active torsions:
REMARK  status: ('A' for Active; 'I' for Inactive)
REMARK    1  A    between atoms: C_3  and  N_13 
REMARK    2  A    between atoms: C_5  and  C_11 
REMARK    3  A    between atoms: C_22  and  C_8 
REMARK    4  A    between atoms: C_20  and  C_9 
REMARK    5  A    between atoms: C_11  and  C_16 
REMARK    6  A    between atoms: C_30  and  N_12 
REMARK       I    between atoms: C_16  and  N_13 
REMARK    7  A    between atoms: N_34  and  C_19 
REMARK    8  A    between atoms: O_35  and  C_22 
REMARK    9  A    between atoms: O_36  and  N_25 
ROOT
HETATM    1  N   UNK N   1      35.069  15.795   9.323  0.00  0.00    -0.293 N 
HETATM    2  C   UNK N   1      35.437  16.178  10.500  0.00  0.00     0.251 A 
HETATM    3  C   UNK N   1      36.403  15.070  10.749  0.00  0.00     0.211 A 
HETATM    4  C   UNK N   1      35.869  14.614   9.309  0.00  0.00     0.187 A 
HETATM    5  C   UNK N   1      34.300  16.269   8.240  0.00  0.00     0.119 C 
HETATM    6  C   UNK N   1      34.026  15.353   7.289  0.00  0.00    -0.014 C 
HETATM    7  S   UNK N   1      34.693  13.258   9.187  0.00  0.00    -0.136 SA
HETATM    8  C   UNK N   1      34.256  13.845   7.507  0.00  0.00     0.117 C 
HETATM    9  O   UNK N   1      35.119  17.189  11.106  0.00  0.00    -0.271 OA
ENDROOT
BRANCH   3  10
HETATM   10  N   UNK N   1      36.103  14.127  11.792  0.00  0.00    -0.339 N 
HETATM   11  C   UNK N   1      36.272  14.433  13.090  0.00  0.00     0.274 C 
HETATM   12  O   UNK N   1      36.442  15.599  13.418  0.00  0.00    -0.266 OA
HETATM   13  H   UNK N   1      35.765  13.235  11.550  0.00  0.00     0.163 HD
BRANCH  11  14
HETATM   14  C   UNK N   1      36.465  13.353  14.099  0.00  0.00     0.166 C 
HETATM   15  N   UNK N   1      37.149  13.523  15.187  0.00  0.00    -0.260 N 
ATOM     16  HN  UNK N   1      37.167  12.770  15.874  1.00  0.00     0.194 HD
BRANCH  14  17
HETATM   17  C   UNK N   1      35.661  12.128  13.947  0.00  0.00     0.148 A 
HETATM   18  N   UNK N   1      36.227  10.957  13.461  0.00  0.00    -0.320 N 
HETATM   19  C   UNK N   1      35.364   9.921  13.566  0.00  0.00     0.160 A 
ATOM     20  HN  UNK N   1      37.169  10.887  13.075  1.00  0.00     0.169 HD
HETATM   21  S   UNK N   1      33.987  10.467  14.225  0.00  0.00     0.024 SA
HETATM   22  N   UNK N   1      34.378  12.041  14.433  0.00  0.00    -0.307 N 
ATOM     23  HN  UNK N   1      33.803  12.784  14.831  1.00  0.00     0.176 HD
BRANCH  19  24
HETATM   24  N   UNK N   1      35.681   8.581  13.278  0.00  0.00    -0.379 N 
HETATM   25  H   UNK N   1      36.268   8.309  12.536  0.00  0.00     0.158 HD
HETATM   26  H   UNK N   1      35.296   7.877  13.849  0.00  0.00     0.158 HD
ENDBRANCH  19  24
ENDBRANCH  14  17
BRANCH  15  27
HETATM   27  O   UNK N   1      37.822  14.627  15.440  0.00  0.00    -0.289 OA
HETATM   28  H   UNK N   1      37.758  15.033  16.282  0.00  0.00     0.244 HD
ENDBRANCH  15  27
ENDBRANCH  11  14
ENDBRANCH   3  10
BRANCH   5  29
HETATM   29  C   UNK N   1      34.001  17.727   8.088  0.00  0.00     0.194 C 
HETATM   30  O   UNK N   1      34.892  18.510   7.802  0.00  0.00    -0.645 OA
BRANCH  29  31
HETATM   31  O   UNK N   1      32.757  18.206   8.289  0.00  0.00    -0.772 OA
HETATM   32  H   UNK N   1      32.534  18.691   9.060  0.00  0.00     0.167 HD
ENDBRANCH  29  31
ENDBRANCH   5  29
BRANCH   6  33
HETATM   33  C   UNK N   1      33.684  15.743   5.927  0.00  0.00     0.023 C 
HETATM   34  C   UNK N   1      32.446  15.422   5.510  0.00  0.00     0.012 C 
HETATM   35  C   UNK N   1      31.801  16.136   4.478  0.00  0.00     0.250 C 
HETATM   36  C   UNK N   1      31.402  14.728   6.345  0.00  0.00     0.064 C 
HETATM   37  N   UNK N   1      30.478  16.167   4.699  0.00  0.00    -0.342 N 
HETATM   38  O   UNK N   1      32.373  16.857   3.678  0.00  0.00    -0.268 OA
HETATM   39  C   UNK N   1      30.089  15.335   5.820  0.00  0.00     0.131 C 
BRANCH  37  40
HETATM   40  C   UNK N   1      29.707  17.327   4.316  0.00  0.00     0.106 C 
HETATM   41  C   UNK N   1      29.082  18.072   5.456  0.00  0.00     0.046 C 
HETATM   42  C   UNK N   1      28.074  18.935   4.722  0.00  0.00     0.116 C 
HETATM   43  N   UNK N   1      27.729  18.254   3.469  0.00  0.00    -0.419 N 
HETATM   44  C   UNK N   1      28.518  17.030   3.452  0.00  0.00     0.139 C 
HETATM   45  H   UNK N   1      27.071  18.573   2.756  0.00  0.00     0.153 HD
ENDBRANCH  37  40
ENDBRANCH   6  33
TORSDOF 9
ENDMDL
MODEL 9
REMARK VINA RESULT:      -7.5      2.896     11.096
REMARK  9 active torsions:
REMARK  status: ('A' for Active; 'I' for Inactive)
REMARK    1  A    between atoms: C_3  and  N_13 
REMARK    2  A    between atoms: C_5  and  C_11 
REMARK    3  A    between atoms: C_22  and  C_8 
REMARK    4  A    between atoms: C_20  and  C_9 
REMARK    5  A    between atoms: C_11  and  C_16 
REMARK    6  A    between atoms: C_30  and  N_12 
REMARK       I    between atoms: C_16  and  N_13 
REMARK    7  A    between atoms: N_34  and  C_19 
REMARK    8  A    between atoms: O_35  and  C_22 
REMARK    9  A    between atoms: O_36  and  N_25 
ROOT
HETATM    1  N   UNK N   1      29.483  17.413   5.337  0.00  0.00    -0.293 N 
HETATM    2  C   UNK N   1      28.880  17.185   4.218  0.00  0.00     0.251 A 
HETATM    3  C   UNK N   1      27.667  18.002   4.504  0.00  0.00     0.211 A 
HETATM    4  C   UNK N   1      28.436  18.207   5.894  0.00  0.00     0.187 A 
HETATM    5  C   UNK N   1      30.739  17.188   5.938  0.00  0.00     0.119 C 
HETATM    6  C   UNK N   1      30.792  17.433   7.262  0.00  0.00    -0.014 C 
HETATM    7  S   UNK N   1      27.892  17.302   7.351  0.00  0.00    -0.136 SA
HETATM    8  C   UNK N   1      29.524  17.635   8.114  0.00  0.00     0.117 C 
HETATM    9  O   UNK N   1      29.286  16.563   3.249  0.00  0.00    -0.271 OA
ENDROOT
BRANCH   3  10
HETATM   10  N   UNK N   1      26.407  17.324   4.644  0.00  0.00    -0.339 N 
HETATM   11  C   UNK N   1      25.287  17.788   4.063  0.00  0.00     0.274 C 
HETATM   12  O   UNK N   1      25.369  18.650   3.200  0.00  0.00    -0.266 OA
HETATM   13  H   UNK N   1      26.363  16.499   5.179  0.00  0.00     0.163 HD
BRANCH  11  14
HETATM   14  C   UNK N   1      23.949  17.419   4.606  0.00  0.00     0.166 C 
HETATM   15  N   UNK N   1      23.800  16.720   5.687  0.00  0.00    -0.260 N 
ATOM     16  HN  UNK N   1      22.858  16.578   6.051  1.00  0.00     0.194 HD
BRANCH  14  17
HETATM   17  C   UNK N   1      22.769  18.064   4.006  0.00  0.00     0.148 A 
HETATM   18  N   UNK N   1      22.726  19.438   3.812  0.00  0.00    -0.320 N 
HETATM   19  C   UNK N   1      21.636  19.794   3.096  0.00  0.00     0.160 A 
ATOM     20  HN  UNK N   1      23.426  20.093   4.164  1.00  0.00     0.169 HD
HETATM   21  S   UNK N   1      20.794  18.453   2.747  0.00  0.00     0.024 SA
HETATM   22  N   UNK N   1      21.742  17.330   3.461  0.00  0.00    -0.307 N 
ATOM     23  HN  UNK N   1      21.604  16.319   3.494  1.00  0.00     0.176 HD
BRANCH  19  24
HETATM   24  N   UNK N   1      21.374  21.095   2.627  0.00  0.00    -0.379 N 
HETATM   25  H   UNK N   1      21.092  21.836   3.210  0.00  0.00     0.158 HD
HETATM   26  H   UNK N   1      21.478  21.273   1.664  0.00  0.00     0.158 HD
ENDBRANCH  19  24
ENDBRANCH  14  17
BRANCH  15  27
HETATM   27  O   UNK N   1      24.815  16.185   6.336  0.00  0.00    -0.289 OA
HETATM   28  H   UNK N   1      24.708  15.370   6.785  0.00  0.00     0.244 HD
ENDBRANCH  15  27
ENDBRANCH  11  14
ENDBRANCH   3  10
BRANCH   5  29
HETATM   29  C   UNK N   1      31.948  16.898   5.105  0.00  0.00     0.194 C 
HETATM   30  O   UNK N   1      32.424  17.765   4.391  0.00  0.00    -0.645 OA
BRANCH  29  31
HETATM   31  O   UNK N   1      32.516  15.675   5.106  0.00  0.00    -0.772 OA
HETATM   32  H   UNK N   1      32.800  15.263   4.314  0.00  0.00     0.167 HD
ENDBRANCH  29  31
ENDBRANCH   5  29
BRANCH   6  33
HETATM   33  C   UNK N   1      32.051  17.719   7.938  0.00  0.00     0.023 C 
HETATM   34  C   UNK N   1      32.557  16.731   8.697  0.00  0.00     0.012 C 
HETATM   35  C   UNK N   1      33.936  16.643   8.983  0.00  0.00     0.250 C 
HETATM   36  C   UNK N   1      31.939  15.368   8.872  0.00  0.00     0.064 C 
HETATM   37  N   UNK N   1      34.303  15.357   9.087  0.00  0.00    -0.342 N 
HETATM   38  O   UNK N   1      34.724  17.567   8.862  0.00  0.00    -0.268 OA
HETATM   39  C   UNK N   1      33.167  14.457   9.041  0.00  0.00     0.131 C 
BRANCH  37  40
HETATM   40  C   UNK N   1      35.615  14.940   8.650  0.00  0.00     0.106 C 
HETATM   41  C   UNK N   1      35.698  14.533   7.210  0.00  0.00     0.046 C 
HETATM   42  C   UNK N   1      37.031  13.811   7.189  0.00  0.00     0.116 C 
HETATM   43  N   UNK N   1      37.289  13.305   8.541  0.00  0.00    -0.419 N 
HETATM   44  C   UNK N   1      36.149  13.725   9.346  0.00  0.00     0.139 C 
HETATM   45  H   UNK N   1      38.098  12.768   8.854  0.00  0.00     0.153 HD
ENDBRANCH  37  40
ENDBRANCH   6  33
TORSDOF 9
ENDMDL
