MODEL 1
REMARK VINA RESULT:      -6.2      0.000      0.000
REMARK  11 active torsions:
REMARK  status: ('A' for Active; 'I' for Inactive)
REMARK    1  A    between atoms: O_1  and  C_22 
REMARK    2  A    between atoms: N_2  and  C_9 
REMARK    3  A    between atoms: N_2  and  C_12 
REMARK    4  A    between atoms: N_2  and  C_13 
REMARK    5  A    between atoms: N_3  and  C_11 
REMARK    6  A    between atoms: N_3  and  C_14 
REMARK    7  A    between atoms: C_6  and  C_7 
REMARK    8  A    between atoms: C_6  and  C_8 
REMARK    9  A    between atoms: C_7  and  C_9 
REMARK   10  A    between atoms: C_8  and  C_10 
REMARK   11  A    between atoms: C_10  and  C_11 
ROOT
HETATM    1  N   UNK N   1      30.672  17.996   9.517  0.00  0.00    -0.363 N 
ATOM      2  HN  UNK N   1      31.362  18.021  10.267  1.00  0.00     0.165 HD
HETATM    3  C   UNK N   1      32.378  17.188   8.053  0.00  0.00     0.058 A 
HETATM    4  C   UNK N   1      31.056  17.586   8.274  0.00  0.00     0.069 A 
HETATM    5  C   UNK N   1      30.114  17.548   7.226  0.00  0.00     0.002 A 
HETATM    6  C   UNK N   1      32.770  16.753   6.775  0.00  0.00     0.068 A 
HETATM    7  C   UNK N   1      28.788  17.937   7.487  0.00  0.00    -0.048 A 
HETATM    8  C   UNK N   1      30.518  17.123   5.952  0.00  0.00     0.051 A 
HETATM    9  C   UNK N   1      31.847  16.727   5.719  0.00  0.00     0.071 A 
HETATM   10  C   UNK N   1      28.433  18.348   8.773  0.00  0.00     0.024 A 
HETATM   11  C   UNK N   1      27.743  17.916   6.423  0.00  0.00     0.049 C 
HETATM   12  C   UNK N   1      29.395  18.373   9.782  0.00  0.00     0.089 A 
ENDROOT
BRANCH   3  13
HETATM   13  N   UNK N   1      33.291  17.240   9.133  0.00  0.00    -0.388 N 
HETATM   14  H   UNK N   1      32.970  17.612   9.987  0.00  0.00     0.159 HD
BRANCH  13  15
HETATM   15  C   UNK N   1      34.650  16.787   9.069  0.00  0.00     0.120 C 
BRANCH  15  16
HETATM   16  C   UNK N   1      35.131  16.629  10.502  0.00  0.00     0.020 C 
BRANCH  16  17
HETATM   17  C   UNK N   1      35.440  15.186  10.829  0.00  0.00     0.002 C 
BRANCH  17  18
HETATM   18  C   UNK N   1      35.946  15.054  12.257  0.00  0.00     0.002 C 
BRANCH  18  19
HETATM   19  C   UNK N   1      35.484  13.734  12.846  0.00  0.00     0.030 C 
BRANCH  19  20
HETATM   20  C   UNK N   1      35.776  13.696  14.338  0.00  0.00     0.272 C 
BRANCH  20  21
HETATM   21  N   UNK N   1      34.872  12.779  15.014  0.00  0.00     0.087 N 
BRANCH  21  22
HETATM   22  C   UNK N   1      34.684  11.651  14.116  0.00  0.00     0.268 C 
HETATM   23  C   UNK N   1      33.592  10.749  14.656  0.00  0.00     0.037 C 
ENDBRANCH  21  22
BRANCH  21  24
HETATM   24  C   UNK N   1      35.548  12.282  16.206  0.00  0.00     0.268 C 
HETATM   25  C   UNK N   1      35.100  13.066  17.427  0.00  0.00     0.037 C 
ENDBRANCH  21  24
ENDBRANCH  20  21
ENDBRANCH  19  20
ENDBRANCH  18  19
ENDBRANCH  17  18
ENDBRANCH  16  17
ENDBRANCH  15  16
ENDBRANCH  13  15
ENDBRANCH   3  13
BRANCH   9  26
HETATM   26  O   UNK N   1      32.257  16.325   4.491  0.00  0.00    -0.356 OA
HETATM   27  C   UNK N   1      32.523  17.202   3.463  0.00  0.00     0.210 C 
ENDBRANCH   9  26
TORSDOF 11
ENDMDL
MODEL 2
REMARK VINA RESULT:      -6.1      3.058      9.254
REMARK  11 active torsions:
REMARK  status: ('A' for Active; 'I' for Inactive)
REMARK    1  A    between atoms: O_1  and  C_22 
REMARK    2  A    between atoms: N_2  and  C_9 
REMARK    3  A    between atoms: N_2  and  C_12 
REMARK    4  A    between atoms: N_2  and  C_13 
REMARK    5  A    between atoms: N_3  and  C_11 
REMARK    6  A    between atoms: N_3  and  C_14 
REMARK    7  A    between atoms: C_6  and  C_7 
REMARK    8  A    between atoms: C_6  and  C_8 
REMARK    9  A    between atoms: C_7  and  C_9 
REMARK   10  A    between atoms: C_8  and  C_10 
REMARK   11  A    between atoms: C_10  and  C_11 
ROOT
HETATM    1  N   UNK N   1      37.241  15.107  14.983  0.00  0.00    -0.363 N 
ATOM      2  HN  UNK N   1      37.758  15.488  14.191  1.00  0.00     0.165 HD
HETATM    3  C   UNK N   1      36.227  13.539  13.493  0.00  0.00     0.058 A 
HETATM    4  C   UNK N   1      36.375  14.073  14.776  0.00  0.00     0.069 A 
HETATM    5  C   UNK N   1      35.651  13.537  15.860  0.00  0.00     0.002 A 
HETATM    6  C   UNK N   1      35.345  12.465  13.283  0.00  0.00     0.068 A 
HETATM    7  C   UNK N   1      35.838  14.084  17.142  0.00  0.00    -0.048 A 
HETATM    8  C   UNK N   1      34.765  12.473  15.638  0.00  0.00     0.051 A 
HETATM    9  C   UNK N   1      34.606  11.933  14.350  0.00  0.00     0.071 A 
HETATM   10  C   UNK N   1      36.734  15.141  17.314  0.00  0.00     0.024 A 
HETATM   11  C   UNK N   1      35.106  13.561  18.332  0.00  0.00     0.049 C 
HETATM   12  C   UNK N   1      37.430  15.644  16.215  0.00  0.00     0.089 A 
ENDROOT
BRANCH   3  13
HETATM   13  N   UNK N   1      36.974  14.106  12.433  0.00  0.00    -0.388 N 
HETATM   14  H   UNK N   1      37.524  14.898  12.632  0.00  0.00     0.159 HD
BRANCH  13  15
HETATM   15  C   UNK N   1      36.985  13.604  11.089  0.00  0.00     0.120 C 
BRANCH  15  16
HETATM   16  C   UNK N   1      36.954  14.812  10.167  0.00  0.00     0.020 C 
BRANCH  16  17
HETATM   17  C   UNK N   1      35.910  15.815  10.599  0.00  0.00     0.002 C 
BRANCH  17  18
HETATM   18  C   UNK N   1      34.835  15.966   9.534  0.00  0.00     0.002 C 
BRANCH  18  19
HETATM   19  C   UNK N   1      33.665  15.052   9.851  0.00  0.00     0.030 C 
BRANCH  19  20
HETATM   20  C   UNK N   1      32.412  15.541   9.141  0.00  0.00     0.272 C 
BRANCH  20  21
HETATM   21  N   UNK N   1      32.671  15.743   7.725  0.00  0.00     0.087 N 
BRANCH  21  22
HETATM   22  C   UNK N   1      32.098  14.600   7.035  0.00  0.00     0.268 C 
HETATM   23  C   UNK N   1      31.108  15.080   5.992  0.00  0.00     0.037 C 
ENDBRANCH  21  22
BRANCH  21  24
HETATM   24  C   UNK N   1      31.933  16.927   7.300  0.00  0.00     0.268 C 
HETATM   25  C   UNK N   1      31.537  17.759   8.507  0.00  0.00     0.037 C 
ENDBRANCH  21  24
ENDBRANCH  20  21
ENDBRANCH  19  20
ENDBRANCH  18  19
ENDBRANCH  17  18
ENDBRANCH  16  17
ENDBRANCH  15  16
ENDBRANCH  13  15
ENDBRANCH   3  13
BRANCH   9  26
HETATM   26  O   UNK N   1      33.745  10.913  14.115  0.00  0.00    -0.356 OA
HETATM   27  C   UNK N   1      33.788  10.141  12.974  0.00  0.00     0.210 C 
ENDBRANCH   9  26
TORSDOF 11
ENDMDL
MODEL 3
REMARK VINA RESULT:      -6.1      3.445      8.881
REMARK  11 active torsions:
REMARK  status: ('A' for Active; 'I' for Inactive)
REMARK    1  A    between atoms: O_1  and  C_22 
REMARK    2  A    between atoms: N_2  and  C_9 
REMARK    3  A    between atoms: N_2  and  C_12 
REMARK    4  A    between atoms: N_2  and  C_13 
REMARK    5  A    between atoms: N_3  and  C_11 
REMARK    6  A    between atoms: N_3  and  C_14 
REMARK    7  A    between atoms: C_6  and  C_7 
REMARK    8  A    between atoms: C_6  and  C_8 
REMARK    9  A    between atoms: C_7  and  C_9 
REMARK   10  A    between atoms: C_8  and  C_10 
REMARK   11  A    between atoms: C_10  and  C_11 
ROOT
HETATM    1  N   UNK N   1      37.243  14.904  14.726  0.00  0.00    -0.363 N 
ATOM      2  HN  UNK N   1      37.786  15.277  13.948  1.00  0.00     0.165 HD
HETATM    3  C   UNK N   1      36.281  13.320  13.219  0.00  0.00     0.058 A 
HETATM    4  C   UNK N   1      36.386  13.867  14.501  0.00  0.00     0.069 A 
HETATM    5  C   UNK N   1      35.625  13.341  15.565  0.00  0.00     0.002 A 
HETATM    6  C   UNK N   1      35.408  12.243  12.990  0.00  0.00     0.068 A 
HETATM    7  C   UNK N   1      35.769  13.902  16.847  0.00  0.00    -0.048 A 
HETATM    8  C   UNK N   1      34.749  12.274  15.324  0.00  0.00     0.051 A 
HETATM    9  C   UNK N   1      34.633  11.721  14.036  0.00  0.00     0.071 A 
HETATM   10  C   UNK N   1      36.658  14.961  17.038  0.00  0.00     0.024 A 
HETATM   11  C   UNK N   1      34.997  13.389  18.016  0.00  0.00     0.049 C 
HETATM   12  C   UNK N   1      37.390  15.454  15.959  0.00  0.00     0.089 A 
ENDROOT
BRANCH   3  13
HETATM   13  N   UNK N   1      37.064  13.877  12.179  0.00  0.00    -0.388 N 
HETATM   14  H   UNK N   1      37.217  14.850  12.191  0.00  0.00     0.159 HD
BRANCH  13  15
HETATM   15  C   UNK N   1      37.648  13.121  11.110  0.00  0.00     0.120 C 
BRANCH  15  16
HETATM   16  C   UNK N   1      37.987  14.108  10.005  0.00  0.00     0.020 C 
BRANCH  16  17
HETATM   17  C   UNK N   1      37.107  13.909   8.792  0.00  0.00     0.002 C 
BRANCH  17  18
HETATM   18  C   UNK N   1      36.030  12.872   9.072  0.00  0.00     0.002 C 
BRANCH  18  19
HETATM   19  C   UNK N   1      34.660  13.474   8.821  0.00  0.00     0.030 C 
BRANCH  19  20
HETATM   20  C   UNK N   1      34.192  14.239  10.050  0.00  0.00     0.272 C 
BRANCH  20  21
HETATM   21  N   UNK N   1      33.520  15.469   9.662  0.00  0.00     0.087 N 
BRANCH  21  22
HETATM   22  C   UNK N   1      34.564  16.452   9.426  0.00  0.00     0.268 C 
HETATM   23  C   UNK N   1      35.336  16.691  10.708  0.00  0.00     0.037 C 
ENDBRANCH  21  22
BRANCH  21  24
HETATM   24  C   UNK N   1      32.849  15.229   8.390  0.00  0.00     0.268 C 
HETATM   25  C   UNK N   1      32.805  16.508   7.572  0.00  0.00     0.037 C 
ENDBRANCH  21  24
ENDBRANCH  20  21
ENDBRANCH  19  20
ENDBRANCH  18  19
ENDBRANCH  17  18
ENDBRANCH  16  17
ENDBRANCH  15  16
ENDBRANCH  13  15
ENDBRANCH   3  13
BRANCH   9  26
HETATM   26  O   UNK N   1      33.782  10.698  13.783  0.00  0.00    -0.356 OA
HETATM   27  C   UNK N   1      33.699  10.075  12.556  0.00  0.00     0.210 C 
ENDBRANCH   9  26
TORSDOF 11
ENDMDL
MODEL 4
REMARK VINA RESULT:      -6.1      3.165      9.263
REMARK  11 active torsions:
REMARK  status: ('A' for Active; 'I' for Inactive)
REMARK    1  A    between atoms: O_1  and  C_22 
REMARK    2  A    between atoms: N_2  and  C_9 
REMARK    3  A    between atoms: N_2  and  C_12 
REMARK    4  A    between atoms: N_2  and  C_13 
REMARK    5  A    between atoms: N_3  and  C_11 
REMARK    6  A    between atoms: N_3  and  C_14 
REMARK    7  A    between atoms: C_6  and  C_7 
REMARK    8  A    between atoms: C_6  and  C_8 
REMARK    9  A    between atoms: C_7  and  C_9 
REMARK   10  A    between atoms: C_8  and  C_10 
REMARK   11  A    between atoms: C_10  and  C_11 
ROOT
HETATM    1  N   UNK N   1      34.330  11.848  12.790  0.00  0.00    -0.363 N 
ATOM      2  HN  UNK N   1      34.029  12.202  11.883  1.00  0.00     0.165 HD
HETATM    3  C   UNK N   1      35.567  13.869  13.101  0.00  0.00     0.058 A 
HETATM    4  C   UNK N   1      35.161  12.611  13.558  0.00  0.00     0.069 A 
HETATM    5  C   UNK N   1      35.589  12.136  14.814  0.00  0.00     0.002 A 
HETATM    6  C   UNK N   1      36.411  14.660  13.898  0.00  0.00     0.068 A 
HETATM    7  C   UNK N   1      35.146  10.875  15.252  0.00  0.00    -0.048 A 
HETATM    8  C   UNK N   1      36.440  12.929  15.597  0.00  0.00     0.051 A 
HETATM    9  C   UNK N   1      36.858  14.192  15.143  0.00  0.00     0.071 A 
HETATM   10  C   UNK N   1      34.295  10.125  14.439  0.00  0.00     0.024 A 
HETATM   11  C   UNK N   1      35.558  10.317  16.572  0.00  0.00     0.049 C 
HETATM   12  C   UNK N   1      33.896  10.630  13.202  0.00  0.00     0.089 A 
ENDROOT
BRANCH   3  13
HETATM   13  N   UNK N   1      35.112  14.308  11.835  0.00  0.00    -0.388 N 
HETATM   14  H   UNK N   1      34.282  13.914  11.483  0.00  0.00     0.159 HD
BRANCH  13  15
HETATM   15  C   UNK N   1      35.780  15.289  11.029  0.00  0.00     0.120 C 
BRANCH  15  16
HETATM   16  C   UNK N   1      36.005  14.660   9.664  0.00  0.00     0.020 C 
BRANCH  16  17
HETATM   17  C   UNK N   1      35.037  13.528   9.407  0.00  0.00     0.002 C 
BRANCH  17  18
HETATM   18  C   UNK N   1      34.103  13.869   8.255  0.00  0.00     0.002 C 
BRANCH  18  19
HETATM   19  C   UNK N   1      32.670  13.918   8.753  0.00  0.00     0.030 C 
BRANCH  19  20
HETATM   20  C   UNK N   1      32.240  15.361   8.968  0.00  0.00     0.272 C 
BRANCH  20  21
HETATM   21  N   UNK N   1      32.934  16.245   8.045  0.00  0.00     0.087 N 
BRANCH  21  22
HETATM   22  C   UNK N   1      31.919  16.799   7.164  0.00  0.00     0.268 C 
HETATM   23  C   UNK N   1      30.669  17.110   7.962  0.00  0.00     0.037 C 
ENDBRANCH  21  22
BRANCH  21  24
HETATM   24  C   UNK N   1      33.494  17.348   8.817  0.00  0.00     0.268 C 
HETATM   25  C   UNK N   1      34.480  18.133   7.970  0.00  0.00     0.037 C 
ENDBRANCH  21  24
ENDBRANCH  20  21
ENDBRANCH  19  20
ENDBRANCH  18  19
ENDBRANCH  17  18
ENDBRANCH  16  17
ENDBRANCH  15  16
ENDBRANCH  13  15
ENDBRANCH   3  13
BRANCH   9  26
HETATM   26  O   UNK N   1      37.691  14.966  15.881  0.00  0.00    -0.356 OA
HETATM   27  C   UNK N   1      37.366  16.240  16.292  0.00  0.00     0.210 C 
ENDBRANCH   9  26
TORSDOF 11
ENDMDL
MODEL 5
REMARK VINA RESULT:      -6.0      4.451      6.874
REMARK  11 active torsions:
REMARK  status: ('A' for Active; 'I' for Inactive)
REMARK    1  A    between atoms: O_1  and  C_22 
REMARK    2  A    between atoms: N_2  and  C_9 
REMARK    3  A    between atoms: N_2  and  C_12 
REMARK    4  A    between atoms: N_2  and  C_13 
REMARK    5  A    between atoms: N_3  and  C_11 
REMARK    6  A    between atoms: N_3  and  C_14 
REMARK    7  A    between atoms: C_6  and  C_7 
REMARK    8  A    between atoms: C_6  and  C_8 
REMARK    9  A    between atoms: C_7  and  C_9 
REMARK   10  A    between atoms: C_8  and  C_10 
REMARK   11  A    between atoms: C_10  and  C_11 
ROOT
HETATM    1  N   UNK N   1      27.892  19.324   3.713  0.00  0.00    -0.363 N 
ATOM      2  HN  UNK N   1      28.250  18.895   2.860  1.00  0.00     0.165 HD
HETATM    3  C   UNK N   1      29.277  17.838   4.971  0.00  0.00     0.058 A 
HETATM    4  C   UNK N   1      28.332  18.867   4.921  0.00  0.00     0.069 A 
HETATM    5  C   UNK N   1      27.845  19.447   6.110  0.00  0.00     0.002 A 
HETATM    6  C   UNK N   1      29.740  17.377   6.216  0.00  0.00     0.068 A 
HETATM    7  C   UNK N   1      26.908  20.492   6.025  0.00  0.00    -0.048 A 
HETATM    8  C   UNK N   1      28.304  18.972   7.347  0.00  0.00     0.051 A 
HETATM    9  C   UNK N   1      29.251  17.934   7.407  0.00  0.00     0.071 A 
HETATM   10  C   UNK N   1      26.484  20.934   4.770  0.00  0.00     0.024 A 
HETATM   11  C   UNK N   1      26.357  21.152   7.244  0.00  0.00     0.049 C 
HETATM   12  C   UNK N   1      26.989  20.333   3.617  0.00  0.00     0.089 A 
ENDROOT
BRANCH   3  13
HETATM   13  N   UNK N   1      29.741  17.285   3.754  0.00  0.00    -0.388 N 
HETATM   14  H   UNK N   1      30.167  17.893   3.107  0.00  0.00     0.159 HD
BRANCH  13  15
HETATM   15  C   UNK N   1      29.633  15.900   3.399  0.00  0.00     0.120 C 
BRANCH  15  16
HETATM   16  C   UNK N   1      31.042  15.330   3.410  0.00  0.00     0.020 C 
BRANCH  16  17
HETATM   17  C   UNK N   1      32.057  16.346   2.938  0.00  0.00     0.002 C 
BRANCH  17  18
HETATM   18  C   UNK N   1      33.347  16.229   3.736  0.00  0.00     0.002 C 
BRANCH  18  19
HETATM   19  C   UNK N   1      33.026  16.022   5.204  0.00  0.00     0.030 C 
BRANCH  19  20
HETATM   20  C   UNK N   1      34.191  16.487   6.065  0.00  0.00     0.272 C 
BRANCH  20  21
HETATM   21  N   UNK N   1      34.059  15.982   7.422  0.00  0.00     0.087 N 
BRANCH  21  22
HETATM   22  C   UNK N   1      34.307  17.109   8.306  0.00  0.00     0.268 C 
HETATM   23  C   UNK N   1      33.223  18.151   8.119  0.00  0.00     0.037 C 
ENDBRANCH  21  22
BRANCH  21  24
HETATM   24  C   UNK N   1      32.673  15.573   7.614  0.00  0.00     0.268 C 
HETATM   25  C   UNK N   1      32.591  14.471   8.656  0.00  0.00     0.037 C 
ENDBRANCH  21  24
ENDBRANCH  20  21
ENDBRANCH  19  20
ENDBRANCH  18  19
ENDBRANCH  17  18
ENDBRANCH  16  17
ENDBRANCH  15  16
ENDBRANCH  13  15
ENDBRANCH   3  13
BRANCH   9  26
HETATM   26  O   UNK N   1      29.697  17.455   8.593  0.00  0.00    -0.356 OA
HETATM   27  C   UNK N   1      28.930  17.449   9.738  0.00  0.00     0.210 C 
ENDBRANCH   9  26
TORSDOF 11
ENDMDL
MODEL 6
REMARK VINA RESULT:      -6.0      8.780     12.530
REMARK  11 active torsions:
REMARK  status: ('A' for Active; 'I' for Inactive)
REMARK    1  A    between atoms: O_1  and  C_22 
REMARK    2  A    between atoms: N_2  and  C_9 
REMARK    3  A    between atoms: N_2  and  C_12 
REMARK    4  A    between atoms: N_2  and  C_13 
REMARK    5  A    between atoms: N_3  and  C_11 
REMARK    6  A    between atoms: N_3  and  C_14 
REMARK    7  A    between atoms: C_6  and  C_7 
REMARK    8  A    between atoms: C_6  and  C_8 
REMARK    9  A    between atoms: C_7  and  C_9 
REMARK   10  A    between atoms: C_8  and  C_10 
REMARK   11  A    between atoms: C_10  and  C_11 
ROOT
HETATM    1  N   UNK N   1      23.564  13.018   8.595  0.00  0.00    -0.363 N 
ATOM      2  HN  UNK N   1      24.257  13.236   7.880  1.00  0.00     0.165 HD
HETATM    3  C   UNK N   1      22.218  14.801   7.751  0.00  0.00     0.058 A 
HETATM    4  C   UNK N   1      22.426  13.766   8.667  0.00  0.00     0.069 A 
HETATM    5  C   UNK N   1      21.458  13.479   9.651  0.00  0.00     0.002 A 
HETATM    6  C   UNK N   1      21.039  15.563   7.816  0.00  0.00     0.068 A 
HETATM    7  C   UNK N   1      21.689  12.419  10.545  0.00  0.00    -0.048 A 
HETATM    8  C   UNK N   1      20.290  14.253   9.715  0.00  0.00     0.051 A 
HETATM    9  C   UNK N   1      20.076  15.299   8.801  0.00  0.00     0.071 A 
HETATM   10  C   UNK N   1      22.866  11.674  10.439  0.00  0.00     0.024 A 
HETATM   11  C   UNK N   1      20.704  12.060  11.606  0.00  0.00     0.049 C 
HETATM   12  C   UNK N   1      23.799  11.991   9.452  0.00  0.00     0.089 A 
ENDROOT
BRANCH   3  13
HETATM   13  N   UNK N   1      23.214  15.055   6.777  0.00  0.00    -0.388 N 
HETATM   14  H   UNK N   1      23.996  14.457   6.756  0.00  0.00     0.159 HD
BRANCH  13  15
HETATM   15  C   UNK N   1      23.161  16.123   5.822  0.00  0.00     0.120 C 
BRANCH  15  16
HETATM   16  C   UNK N   1      24.147  15.776   4.718  0.00  0.00     0.020 C 
BRANCH  16  17
HETATM   17  C   UNK N   1      24.474  16.981   3.866  0.00  0.00     0.002 C 
BRANCH  17  18
HETATM   18  C   UNK N   1      23.846  18.238   4.447  0.00  0.00     0.002 C 
BRANCH  18  19
HETATM   19  C   UNK N   1      24.684  19.449   4.078  0.00  0.00     0.030 C 
BRANCH  19  20
HETATM   20  C   UNK N   1      26.118  19.026   3.797  0.00  0.00     0.272 C 
BRANCH  20  21
HETATM   21  N   UNK N   1      27.054  19.917   4.463  0.00  0.00     0.087 N 
BRANCH  21  22
HETATM   22  C   UNK N   1      26.358  20.454   5.621  0.00  0.00     0.268 C 
HETATM   23  C   UNK N   1      27.119  21.648   6.162  0.00  0.00     0.037 C 
ENDBRANCH  21  22
BRANCH  21  24
HETATM   24  C   UNK N   1      28.165  19.112   4.954  0.00  0.00     0.268 C 
HETATM   25  C   UNK N   1      27.645  17.947   5.777  0.00  0.00     0.037 C 
ENDBRANCH  21  24
ENDBRANCH  20  21
ENDBRANCH  19  20
ENDBRANCH  18  19
ENDBRANCH  17  18
ENDBRANCH  16  17
ENDBRANCH  15  16
ENDBRANCH  13  15
ENDBRANCH   3  13
BRANCH   9  26
HETATM   26  O   UNK N   1      18.959  16.065   8.856  0.00  0.00    -0.356 OA
HETATM   27  C   UNK N   1      18.992  17.441   8.912  0.00  0.00     0.210 C 
ENDBRANCH   9  26
TORSDOF 11
ENDMDL
MODEL 7
REMARK VINA RESULT:      -5.9      9.015     11.292
REMARK  11 active torsions:
REMARK  status: ('A' for Active; 'I' for Inactive)
REMARK    1  A    between atoms: O_1  and  C_22 
REMARK    2  A    between atoms: N_2  and  C_9 
REMARK    3  A    between atoms: N_2  and  C_12 
REMARK    4  A    between atoms: N_2  and  C_13 
REMARK    5  A    between atoms: N_3  and  C_11 
REMARK    6  A    between atoms: N_3  and  C_14 
REMARK    7  A    between atoms: C_6  and  C_7 
REMARK    8  A    between atoms: C_6  and  C_8 
REMARK    9  A    between atoms: C_7  and  C_9 
REMARK   10  A    between atoms: C_8  and  C_10 
REMARK   11  A    between atoms: C_10  and  C_11 
ROOT
HETATM    1  N   UNK N   1      24.778  17.311   5.245  0.00  0.00    -0.363 N 
ATOM      2  HN  UNK N   1      24.273  16.544   5.686  1.00  0.00     0.165 HD
HETATM    3  C   UNK N   1      22.694  18.121   4.403  0.00  0.00     0.058 A 
HETATM    4  C   UNK N   1      24.083  18.232   4.516  0.00  0.00     0.069 A 
HETATM    5  C   UNK N   1      24.767  19.298   3.897  0.00  0.00     0.002 A 
HETATM    6  C   UNK N   1      21.977  19.078   3.664  0.00  0.00     0.068 A 
HETATM    7  C   UNK N   1      26.162  19.390   4.046  0.00  0.00    -0.048 A 
HETATM    8  C   UNK N   1      24.044  20.240   3.152  0.00  0.00     0.051 A 
HETATM    9  C   UNK N   1      22.647  20.134   3.029  0.00  0.00     0.071 A 
HETATM   10  C   UNK N   1      26.838  18.430   4.802  0.00  0.00     0.024 A 
HETATM   11  C   UNK N   1      26.945  20.496   3.421  0.00  0.00     0.049 C 
HETATM   12  C   UNK N   1      26.125  17.390   5.396  0.00  0.00     0.089 A 
ENDROOT
BRANCH   3  13
HETATM   13  N   UNK N   1      22.047  17.037   5.042  0.00  0.00    -0.388 N 
HETATM   14  H   UNK N   1      22.560  16.206   5.168  0.00  0.00     0.159 HD
BRANCH  13  15
HETATM   15  C   UNK N   1      20.694  17.066   5.517  0.00  0.00     0.120 C 
BRANCH  15  16
HETATM   16  C   UNK N   1      20.750  16.853   7.021  0.00  0.00     0.020 C 
BRANCH  16  17
HETATM   17  C   UNK N   1      21.228  15.463   7.370  0.00  0.00     0.002 C 
BRANCH  17  18
HETATM   18  C   UNK N   1      20.429  14.894   8.532  0.00  0.00     0.002 C 
BRANCH  18  19
HETATM   19  C   UNK N   1      21.374  14.350   9.588  0.00  0.00     0.030 C 
BRANCH  19  20
HETATM   20  C   UNK N   1      22.239  13.247   8.998  0.00  0.00     0.272 C 
BRANCH  20  21
HETATM   21  N   UNK N   1      23.286  12.863   9.930  0.00  0.00     0.087 N 
BRANCH  21  22
HETATM   22  C   UNK N   1      22.773  11.728  10.680  0.00  0.00     0.268 C 
HETATM   23  C   UNK N   1      23.050  11.927  12.157  0.00  0.00     0.037 C 
ENDBRANCH  21  22
BRANCH  21  24
HETATM   24  C   UNK N   1      24.427  12.394   9.154  0.00  0.00     0.268 C 
HETATM   25  C   UNK N   1      24.994  13.529   8.319  0.00  0.00     0.037 C 
ENDBRANCH  21  24
ENDBRANCH  20  21
ENDBRANCH  19  20
ENDBRANCH  18  19
ENDBRANCH  17  18
ENDBRANCH  16  17
ENDBRANCH  15  16
ENDBRANCH  13  15
ENDBRANCH   3  13
BRANCH   9  26
HETATM   26  O   UNK N   1      21.934  21.029   2.303  0.00  0.00    -0.356 OA
HETATM   27  C   UNK N   1      20.747  20.714   1.678  0.00  0.00     0.210 C 
ENDBRANCH   9  26
TORSDOF 11
ENDMDL
MODEL 8
REMARK VINA RESULT:      -5.9     15.448     19.504
REMARK  11 active torsions:
REMARK  status: ('A' for Active; 'I' for Inactive)
REMARK    1  A    between atoms: O_1  and  C_22 
REMARK    2  A    between atoms: N_2  and  C_9 
REMARK    3  A    between atoms: N_2  and  C_12 
REMARK    4  A    between atoms: N_2  and  C_13 
REMARK    5  A    between atoms: N_3  and  C_11 
REMARK    6  A    between atoms: N_3  and  C_14 
REMARK    7  A    between atoms: C_6  and  C_7 
REMARK    8  A    between atoms: C_6  and  C_8 
REMARK    9  A    between atoms: C_7  and  C_9 
REMARK   10  A    between atoms: C_8  and  C_10 
REMARK   11  A    between atoms: C_10  and  C_11 
ROOT
HETATM    1  N   UNK N   1      27.088  26.501  -7.811  0.00  0.00    -0.363 N 
ATOM      2  HN  UNK N   1      26.567  25.634  -7.934  1.00  0.00     0.165 HD
HETATM    3  C   UNK N   1      25.952  26.820  -5.734  0.00  0.00     0.058 A 
HETATM    4  C   UNK N   1      26.868  27.256  -6.696  0.00  0.00     0.069 A 
HETATM    5  C   UNK N   1      27.579  28.459  -6.512  0.00  0.00     0.002 A 
HETATM    6  C   UNK N   1      25.736  27.591  -4.578  0.00  0.00     0.068 A 
HETATM    7  C   UNK N   1      28.507  28.859  -7.490  0.00  0.00    -0.048 A 
HETATM    8  C   UNK N   1      27.347  29.227  -5.361  0.00  0.00     0.051 A 
HETATM    9  C   UNK N   1      26.424  28.799  -4.391  0.00  0.00     0.071 A 
HETATM   10  C   UNK N   1      28.706  28.059  -8.616  0.00  0.00     0.024 A 
HETATM   11  C   UNK N   1      29.294  30.119  -7.353  0.00  0.00     0.049 C 
HETATM   12  C   UNK N   1      27.982  26.877  -8.762  0.00  0.00     0.089 A 
ENDROOT
BRANCH   3  13
HETATM   13  N   UNK N   1      25.262  25.605  -5.957  0.00  0.00    -0.388 N 
HETATM   14  H   UNK N   1      24.595  25.583  -6.682  0.00  0.00     0.159 HD
BRANCH  13  15
HETATM   15  C   UNK N   1      25.466  24.405  -5.200  0.00  0.00     0.120 C 
BRANCH  15  16
HETATM   16  C   UNK N   1      26.202  23.431  -6.106  0.00  0.00     0.020 C 
BRANCH  16  17
HETATM   17  C   UNK N   1      27.701  23.563  -5.964  0.00  0.00     0.002 C 
BRANCH  17  18
HETATM   18  C   UNK N   1      28.408  22.372  -6.591  0.00  0.00     0.002 C 
BRANCH  18  19
HETATM   19  C   UNK N   1      29.585  21.959  -5.727  0.00  0.00     0.030 C 
BRANCH  19  20
HETATM   20  C   UNK N   1      29.690  22.873  -4.516  0.00  0.00     0.272 C 
BRANCH  20  21
HETATM   21  N   UNK N   1      30.932  22.633  -3.799  0.00  0.00     0.087 N 
BRANCH  21  22
HETATM   22  C   UNK N   1      30.653  22.890  -2.395  0.00  0.00     0.268 C 
HETATM   23  C   UNK N   1      29.155  22.969  -2.181  0.00  0.00     0.037 C 
ENDBRANCH  21  22
BRANCH  21  24
HETATM   24  C   UNK N   1      31.256  21.217  -3.928  0.00  0.00     0.268 C 
HETATM   25  C   UNK N   1      32.722  20.984  -3.608  0.00  0.00     0.037 C 
ENDBRANCH  21  24
ENDBRANCH  20  21
ENDBRANCH  19  20
ENDBRANCH  18  19
ENDBRANCH  17  18
ENDBRANCH  16  17
ENDBRANCH  15  16
ENDBRANCH  13  15
ENDBRANCH   3  13
BRANCH   9  26
HETATM   26  O   UNK N   1      26.179  29.534  -3.279  0.00  0.00    -0.356 OA
HETATM   27  C   UNK N   1      26.697  30.796  -3.082  0.00  0.00     0.210 C 
ENDBRANCH   9  26
TORSDOF 11
ENDMDL
MODEL 9
REMARK VINA RESULT:      -5.9      3.524      5.862
REMARK  11 active torsions:
REMARK  status: ('A' for Active; 'I' for Inactive)
REMARK    1  A    between atoms: O_1  and  C_22 
REMARK    2  A    between atoms: N_2  and  C_9 
REMARK    3  A    between atoms: N_2  and  C_12 
REMARK    4  A    between atoms: N_2  and  C_13 
REMARK    5  A    between atoms: N_3  and  C_11 
REMARK    6  A    between atoms: N_3  and  C_14 
REMARK    7  A    between atoms: C_6  and  C_7 
REMARK    8  A    between atoms: C_6  and  C_8 
REMARK    9  A    between atoms: C_7  and  C_9 
REMARK   10  A    between atoms: C_8  and  C_10 
REMARK   11  A    between atoms: C_10  and  C_11 
ROOT
HETATM    1  N   UNK N   1      28.097  18.887   4.074  0.00  0.00    -0.363 N 
ATOM      2  HN  UNK N   1      28.515  18.292   3.359  1.00  0.00     0.165 HD
HETATM    3  C   UNK N   1      29.335  17.680   5.721  0.00  0.00     0.058 A 
HETATM    4  C   UNK N   1      28.422  18.682   5.383  0.00  0.00     0.069 A 
HETATM    5  C   UNK N   1      27.850  19.495   6.383  0.00  0.00     0.002 A 
HETATM    6  C   UNK N   1      29.681  17.478   7.069  0.00  0.00     0.068 A 
HETATM    7  C   UNK N   1      26.950  20.507   6.006  0.00  0.00    -0.048 A 
HETATM    8  C   UNK N   1      28.193  19.278   7.725  0.00  0.00     0.051 A 
HETATM    9  C   UNK N   1      29.106  18.268   8.076  0.00  0.00     0.071 A 
HETATM   10  C   UNK N   1      26.643  20.687   4.656  0.00  0.00     0.024 A 
HETATM   11  C   UNK N   1      26.313  21.403   7.014  0.00  0.00     0.049 C 
HETATM   12  C   UNK N   1      27.229  19.861   3.697  0.00  0.00     0.089 A 
ENDROOT
BRANCH   3  13
HETATM   13  N   UNK N   1      29.887  16.888   4.686  0.00  0.00    -0.388 N 
HETATM   14  H   UNK N   1      29.375  16.806   3.849  0.00  0.00     0.159 HD
BRANCH  13  15
HETATM   15  C   UNK N   1      31.142  16.198   4.773  0.00  0.00     0.120 C 
BRANCH  15  16
HETATM   16  C   UNK N   1      32.232  17.252   4.688  0.00  0.00     0.020 C 
BRANCH  16  17
HETATM   17  C   UNK N   1      33.495  16.805   5.387  0.00  0.00     0.002 C 
BRANCH  17  18
HETATM   18  C   UNK N   1      33.816  17.721   6.558  0.00  0.00     0.002 C 
BRANCH  18  19
HETATM   19  C   UNK N   1      33.151  17.197   7.817  0.00  0.00     0.030 C 
BRANCH  19  20
HETATM   20  C   UNK N   1      33.509  15.734   8.028  0.00  0.00     0.272 C 
BRANCH  20  21
HETATM   21  N   UNK N   1      34.886  15.603   8.475  0.00  0.00     0.087 N 
BRANCH  21  22
HETATM   22  C   UNK N   1      34.919  16.076   9.850  0.00  0.00     0.268 C 
HETATM   23  C   UNK N   1      34.260  15.054  10.754  0.00  0.00     0.037 C 
ENDBRANCH  21  22
BRANCH  21  24
HETATM   24  C   UNK N   1      35.218  14.184   8.492  0.00  0.00     0.268 C 
HETATM   25  C   UNK N   1      36.675  13.981   8.114  0.00  0.00     0.037 C 
ENDBRANCH  21  24
ENDBRANCH  20  21
ENDBRANCH  19  20
ENDBRANCH  18  19
ENDBRANCH  17  18
ENDBRANCH  16  17
ENDBRANCH  15  16
ENDBRANCH  13  15
ENDBRANCH   3  13
BRANCH   9  26
HETATM   26  O   UNK N   1      29.439  18.037   9.369  0.00  0.00    -0.356 OA
HETATM   27  C   UNK N   1      28.847  17.056  10.134  0.00  0.00     0.210 C 
ENDBRANCH   9  26
TORSDOF 11
ENDMDL
