REMARK  4 active torsions:
REMARK  status: ('A' for Active; 'I' for Inactive)
REMARK    1  A    between atoms: O_3  and  C_17 
REMARK    2  A    between atoms: N_5  and  C_8 
REMARK       I    between atoms: N_5  and  C_15 
REMARK    3  A    between atoms: N_6  and  C_21 
REMARK    4  A    between atoms: C_15  and  C_16 
ROOT
HETATM    1  O   UNK N   1       7.635   0.787   0.887  0.00  0.00    -0.268 OA
HETATM    2  N   UNK N   1       5.630   1.452   0.269  0.00  0.00    -0.352 N 
HETATM    3  C   UNK N   1       6.526   0.447   0.496  0.00  0.00     0.254 C 
HETATM    4  H   UNK N   1       5.902   2.343   0.587  0.00  0.00     0.163 HD
ENDROOT
BRANCH   3   5
HETATM    5  C   UNK N   1       6.313  -1.044   0.276  0.00  0.00     0.067 A 
HETATM    6  C   UNK N   1       5.062  -1.744   0.195  0.00  0.00     0.107 A 
HETATM    7  C   UNK N   1       5.073  -3.172   0.014  0.00  0.00     0.094 A 
HETATM    8 Cl   UNK N   1       3.606  -4.159  -0.102  0.00  0.00    -0.079 Cl
HETATM    9  C   UNK N   1       6.294  -3.858  -0.063  0.00  0.00     0.050 A 
HETATM   10  C   UNK N   1       7.491  -3.173   0.037  0.00  0.00     0.032 A 
HETATM   11  C   UNK N   1       7.495  -1.799   0.207  0.00  0.00     0.022 A 
BRANCH   6  12
HETATM   12  O   UNK N   1       3.910  -1.045   0.337  0.00  0.00    -0.353 OA
HETATM   13  C   UNK N   1       2.622  -1.526   0.335  0.00  0.00     0.210 C 
ENDBRANCH   6  12
BRANCH   9  14
HETATM   14  N   UNK N   1       6.321  -5.260  -0.225  0.00  0.00    -0.398 N 
HETATM   15  H   UNK N   1       5.484  -5.766  -0.337  0.00  0.00     0.156 HD
HETATM   16  H   UNK N   1       7.183  -5.736  -0.225  0.00  0.00     0.156 HD
ENDBRANCH   9  14
ENDBRANCH   3   5
BRANCH   2  17
HETATM   17  C   UNK N   1       4.342   1.385  -0.372  0.00  0.00     0.092 C 
HETATM   18  C   UNK N   1       3.231   1.799   0.609  0.00  0.00     0.037 C 
HETATM   19  C   UNK N   1       3.358   3.292   0.934  0.00  0.00     0.279 C 
HETATM   20  C   UNK N   1       1.851   1.493  -0.000  0.00  0.00     0.010 C 
HETATM   21  N   UNK N   1       3.184   4.076  -0.298  0.00  0.00     0.088 N 
HETATM   22  C   UNK N   1       4.295   3.781  -1.214  0.00  0.00     0.274 C 
HETATM   23  C   UNK N   1       1.900   3.825  -0.987  0.00  0.00     0.272 C 
HETATM   24  C   UNK N   1       4.337   2.293  -1.608  0.00  0.00     0.056 C 
HETATM   25  C   UNK N   1       1.033   2.745  -0.324  0.00  0.00     0.031 C 
ENDBRANCH   2  17
TORSDOF 4
