REMARK  3 active torsions:
REMARK  status: ('A' for Active; 'I' for Inactive)
REMARK    1  A    between atoms: O_3  and  N_5 
REMARK    2  A    between atoms: C_9  and  C_16 
REMARK    3  A    between atoms: C_10  and  C_14 
ROOT
HETATM    1  N   UNK N   1      -2.837   0.392  -0.724  0.00  0.00     0.094 N 
HETATM    2  C   UNK N   1      -2.309   0.655   0.621  0.00  0.00     0.232 C 
HETATM    3  C   UNK N   1      -2.912  -1.069  -0.728  0.00  0.00     0.223 C 
HETATM    4  C   UNK N   1      -0.790   0.343   0.611  0.00  0.00     0.068 C 
HETATM    5  C   UNK N   1      -0.578  -1.159   0.253  0.00  0.00     0.032 C 
HETATM    6  C   UNK N   1      -1.479  -1.612  -0.911  0.00  0.00     0.046 C 
HETATM    7  C   UNK N   1      -3.052  -0.304   1.557  0.00  0.00     0.038 C 
HETATM    8  C   UNK N   1      -3.458  -1.464   0.648  0.00  0.00     0.038 C 
HETATM    9  C   UNK N   1      -4.172   0.976  -0.873  0.00  0.00     0.310 C 
ENDROOT
BRANCH   5  10
HETATM   10  C   UNK N   1       0.832  -1.687   0.134  0.00  0.00    -0.051 A 
HETATM   11  C   UNK N   1       1.943  -0.832   0.110  0.00  0.00     0.033 A 
HETATM   12  C   UNK N   1       3.238  -1.350   0.007  0.00  0.00     0.056 A 
HETATM   13 Cl   UNK N   1       4.595  -0.237  -0.031  0.00  0.00    -0.083 Cl
HETATM   14  C   UNK N   1       3.431  -2.740  -0.066  0.00  0.00     0.055 A 
HETATM   15 Cl   UNK N   1       5.041  -3.433  -0.193  0.00  0.00    -0.083 Cl
HETATM   16  C   UNK N   1       2.327  -3.595  -0.037  0.00  0.00     0.026 A 
HETATM   17  C   UNK N   1       1.035  -3.072   0.062  0.00  0.00     0.009 A 
ENDBRANCH   5  10
BRANCH   4  18
HETATM   18  C   UNK N   1      -0.150   1.293  -0.368  0.00  0.00     0.094 C 
HETATM   19  N   UNK N   1       0.531   2.292   0.057  0.00  0.00    -0.282 N 
ATOM     20  HN  UNK N   1       0.673   2.422   1.058  1.00  0.00     0.193 HD
BRANCH  19  21
HETATM   21  O   UNK N   1       1.046   3.152  -0.796  0.00  0.00    -0.286 OA
HETATM   22  C   UNK N   1       1.645   4.294  -0.336  0.00  0.00     0.237 C 
ENDBRANCH  19  21
ENDBRANCH   4  18
TORSDOF 3
