MODEL 1
REMARK VINA RESULT:      -8.4      0.000      0.000
REMARK  9 active torsions:
REMARK  status: ('A' for Active; 'I' for Inactive)
REMARK    1  A    between atoms: O_4  and  C_23 
REMARK    2  A    between atoms: O_4  and  C_32 
REMARK    3  A    between atoms: C_30  and  O_7 
REMARK    4  A    between atoms: O_8  and  C_31 
REMARK       I    between atoms: N_10  and  C_25 
REMARK    5  A    between atoms: N_11  and  C_22 
REMARK    6  A    between atoms: C_16  and  C_20 
REMARK    7  A    between atoms: C_17  and  C_23 
REMARK    8  A    between atoms: C_25  and  C_30 
REMARK    9  A    between atoms: C_30  and  C_31 
ROOT
HETATM    1  F   UNK N   1      31.912  17.246   4.196  0.00  0.00    -0.205 F 
HETATM    2  F   UNK N   1      30.375  16.970   8.775  0.00  0.00    -0.205 F 
HETATM    3  C   UNK N   1      31.228  17.091   6.509  0.00  0.00     0.047 A 
HETATM    4  C   UNK N   1      28.676  17.946   5.721  0.00  0.00     0.045 A 
HETATM    5  C   UNK N   1      30.949  17.347   5.147  0.00  0.00     0.132 A 
HETATM    6  C   UNK N   1      30.193  17.241   7.459  0.00  0.00     0.132 A 
HETATM    7  C   UNK N   1      29.682  17.776   4.765  0.00  0.00     0.073 A 
HETATM    8  C   UNK N   1      28.942  17.663   7.057  0.00  0.00     0.073 A 
ENDROOT
BRANCH   3   9
HETATM    9  C   UNK N   1      32.562  16.628   6.949  0.00  0.00    -0.042 C 
HETATM   10  C   UNK N   1      33.435  17.509   7.785  0.00  0.00     0.059 C 
HETATM   11  C   UNK N   1      33.753  16.749   9.040  0.00  0.00     0.131 C 
HETATM   12  N   UNK N   1      34.431  15.504   8.709  0.00  0.00    -0.346 N 
HETATM   13  C   UNK N   1      34.169  14.818   7.438  0.00  0.00     0.153 C 
HETATM   14  C   UNK N   1      35.321  14.972   9.592  0.00  0.00     0.251 C 
HETATM   15  C   UNK N   1      32.946  15.359   6.750  0.00  0.00     0.001 C 
HETATM   16  O   UNK N   1      35.851  13.898   9.354  0.00  0.00    -0.270 OA
BRANCH  14  17
HETATM   17  C   UNK N   1      35.696  15.690  10.866  0.00  0.00     0.233 C 
BRANCH  17  18
HETATM   18  O   UNK N   1      37.005  16.172  10.801  0.00  0.00    -0.384 OA
HETATM   19  H   UNK N   1      37.783  16.238  11.378  0.00  0.00     0.210 HD
ENDBRANCH  17  18
BRANCH  17  20
HETATM   20  C   UNK N   1      35.540  14.771  12.071  0.00  0.00     0.205 C 
BRANCH  20  21
HETATM   21  O   UNK N   1      34.318  14.099  12.003  0.00  0.00    -0.398 OA
HETATM   22  H   UNK N   1      33.404  14.254  12.286  0.00  0.00     0.209 HD
ENDBRANCH  20  21
ENDBRANCH  17  20
ENDBRANCH  14  17
ENDBRANCH   3   9
BRANCH   4  23
HETATM   23  N   UNK N   1      27.435  18.542   5.388  0.00  0.00    -0.291 N 
HETATM   24  C   UNK N   1      26.411  17.840   4.667  0.00  0.00     0.169 C 
HETATM   25  C   UNK N   1      25.302  18.901   4.582  0.00  0.00     0.176 C 
HETATM   26  O   UNK N   1      25.730  19.962   5.370  0.00  0.00    -0.294 OA
HETATM   27  C   UNK N   1      26.981  19.737   5.765  0.00  0.00     0.368 C 
HETATM   28  O   UNK N   1      27.637  20.551   6.402  0.00  0.00    -0.238 OA
BRANCH  25  29
HETATM   29  C   UNK N   1      23.941  18.369   4.966  0.00  0.00     0.211 C 
BRANCH  29  30
HETATM   30  O   UNK N   1      23.198  18.343   3.813  0.00  0.00    -0.332 OA
BRANCH  30  31
HETATM   31  C   UNK N   1      22.391  19.363   3.448  0.00  0.00     0.164 A 
HETATM   32  N   UNK N   1      22.790  20.474   2.810  0.00  0.00    -0.240 N 
HETATM   33  O   UNK N   1      21.729  21.204   2.631  0.00  0.00    -0.248 OA
ATOM     34  HN  UNK N   1      23.741  20.702   2.521  1.00  0.00     0.197 HD
HETATM   35  C   UNK N   1      20.656  20.624   3.131  0.00  0.00     0.172 A 
HETATM   36  C   UNK N   1      21.038  19.412   3.679  0.00  0.00     0.084 A 
ENDBRANCH  30  31
ENDBRANCH  29  30
ENDBRANCH  25  29
ENDBRANCH   4  23
TORSDOF 9
ENDMDL
MODEL 2
REMARK VINA RESULT:      -8.4      2.639     11.400
REMARK  9 active torsions:
REMARK  status: ('A' for Active; 'I' for Inactive)
REMARK    1  A    between atoms: O_4  and  C_23 
REMARK    2  A    between atoms: O_4  and  C_32 
REMARK    3  A    between atoms: C_30  and  O_7 
REMARK    4  A    between atoms: O_8  and  C_31 
REMARK       I    between atoms: N_10  and  C_25 
REMARK    5  A    between atoms: N_11  and  C_22 
REMARK    6  A    between atoms: C_16  and  C_20 
REMARK    7  A    between atoms: C_17  and  C_23 
REMARK    8  A    between atoms: C_25  and  C_30 
REMARK    9  A    between atoms: C_30  and  C_31 
ROOT
HETATM    1  F   UNK N   1      26.672  16.770   2.862  0.00  0.00    -0.205 F 
HETATM    2  F   UNK N   1      27.487  19.169   6.984  0.00  0.00    -0.205 F 
HETATM    3  C   UNK N   1      26.992  17.991   4.924  0.00  0.00     0.047 A 
HETATM    4  C   UNK N   1      29.627  17.032   4.981  0.00  0.00     0.045 A 
HETATM    5  C   UNK N   1      27.475  17.167   3.882  0.00  0.00     0.132 A 
HETATM    6  C   UNK N   1      27.866  18.348   5.976  0.00  0.00     0.132 A 
HETATM    7  C   UNK N   1      28.782  16.691   3.919  0.00  0.00     0.073 A 
HETATM    8  C   UNK N   1      29.161  17.868   5.990  0.00  0.00     0.073 A 
ENDROOT
BRANCH   3   9
HETATM    9  C   UNK N   1      25.610  18.518   4.913  0.00  0.00    -0.042 C 
HETATM   10  C   UNK N   1      25.328  19.898   4.413  0.00  0.00     0.059 C 
HETATM   11  C   UNK N   1      24.326  19.768   3.302  0.00  0.00     0.131 C 
HETATM   12  N   UNK N   1      23.114  19.133   3.798  0.00  0.00    -0.346 N 
HETATM   13  C   UNK N   1      23.165  18.172   4.905  0.00  0.00     0.153 C 
HETATM   14  C   UNK N   1      21.917  19.438   3.224  0.00  0.00     0.251 C 
HETATM   15  C   UNK N   1      24.570  17.718   5.189  0.00  0.00     0.001 C 
HETATM   16  O   UNK N   1      20.900  18.868   3.589  0.00  0.00    -0.270 OA
BRANCH  14  17
HETATM   17  C   UNK N   1      21.801  20.492   2.149  0.00  0.00     0.233 C 
BRANCH  17  18
HETATM   18  O   UNK N   1      21.496  21.738   2.702  0.00  0.00    -0.384 OA
HETATM   19  H   UNK N   1      21.835  22.324   3.398  0.00  0.00     0.210 HD
ENDBRANCH  17  18
BRANCH  17  20
HETATM   20  C   UNK N   1      20.742  20.106   1.124  0.00  0.00     0.205 C 
BRANCH  20  21
HETATM   21  O   UNK N   1      20.813  20.959   0.021  0.00  0.00    -0.398 OA
HETATM   22  H   UNK N   1      20.217  21.555  -0.458  0.00  0.00     0.209 HD
ENDBRANCH  20  21
ENDBRANCH  17  20
ENDBRANCH  14  17
ENDBRANCH   3   9
BRANCH   4  23
HETATM   23  N   UNK N   1      30.899  16.427   5.134  0.00  0.00    -0.291 N 
HETATM   24  C   UNK N   1      32.124  17.154   4.957  0.00  0.00     0.169 C 
HETATM   25  C   UNK N   1      33.176  16.071   5.242  0.00  0.00     0.176 C 
HETATM   26  O   UNK N   1      32.469  14.963   5.692  0.00  0.00    -0.294 OA
HETATM   27  C   UNK N   1      31.165  15.193   5.560  0.00  0.00     0.368 C 
HETATM   28  O   UNK N   1      30.310  14.351   5.801  0.00  0.00    -0.238 OA
BRANCH  25  29
HETATM   29  C   UNK N   1      34.258  16.529   6.192  0.00  0.00     0.211 C 
BRANCH  29  30
HETATM   30  O   UNK N   1      33.649  16.725   7.406  0.00  0.00    -0.332 OA
BRANCH  30  31
HETATM   31  C   UNK N   1      34.348  16.870   8.552  0.00  0.00     0.164 A 
HETATM   32  N   UNK N   1      34.886  18.019   8.990  0.00  0.00    -0.240 N 
HETATM   33  O   UNK N   1      35.466  17.753  10.123  0.00  0.00    -0.248 OA
ATOM     34  HN  UNK N   1      34.846  18.926   8.525  1.00  0.00     0.197 HD
HETATM   35  C   UNK N   1      35.338  16.480  10.442  0.00  0.00     0.172 A 
HETATM   36  C   UNK N   1      34.612  15.857   9.441  0.00  0.00     0.084 A 
ENDBRANCH  30  31
ENDBRANCH  29  30
ENDBRANCH  25  29
ENDBRANCH   4  23
TORSDOF 9
ENDMDL
MODEL 3
REMARK VINA RESULT:      -8.1      0.860      1.695
REMARK  9 active torsions:
REMARK  status: ('A' for Active; 'I' for Inactive)
REMARK    1  A    between atoms: O_4  and  C_23 
REMARK    2  A    between atoms: O_4  and  C_32 
REMARK    3  A    between atoms: C_30  and  O_7 
REMARK    4  A    between atoms: O_8  and  C_31 
REMARK       I    between atoms: N_10  and  C_25 
REMARK    5  A    between atoms: N_11  and  C_22 
REMARK    6  A    between atoms: C_16  and  C_20 
REMARK    7  A    between atoms: C_17  and  C_23 
REMARK    8  A    between atoms: C_25  and  C_30 
REMARK    9  A    between atoms: C_30  and  C_31 
ROOT
HETATM    1  F   UNK N   1      30.546  16.723   8.447  0.00  0.00    -0.205 F 
HETATM    2  F   UNK N   1      32.684  17.043   4.119  0.00  0.00    -0.205 F 
HETATM    3  C   UNK N   1      31.686  16.841   6.319  0.00  0.00     0.047 A 
HETATM    4  C   UNK N   1      29.316  17.845   5.204  0.00  0.00     0.045 A 
HETATM    5  C   UNK N   1      30.548  17.052   7.130  0.00  0.00     0.132 A 
HETATM    6  C   UNK N   1      31.620  17.175   4.947  0.00  0.00     0.132 A 
HETATM    7  C   UNK N   1      29.374  17.545   6.569  0.00  0.00     0.073 A 
HETATM    8  C   UNK N   1      30.446  17.668   4.412  0.00  0.00     0.073 A 
ENDROOT
BRANCH   3   9
HETATM    9  C   UNK N   1      32.951  16.324   6.884  0.00  0.00    -0.042 C 
HETATM   10  C   UNK N   1      33.837  17.209   7.701  0.00  0.00     0.059 C 
HETATM   11  C   UNK N   1      34.018  16.542   9.034  0.00  0.00     0.131 C 
HETATM   12  N   UNK N   1      34.615  15.226   8.854  0.00  0.00    -0.346 N 
HETATM   13  C   UNK N   1      34.379  14.452   7.630  0.00  0.00     0.153 C 
HETATM   14  C   UNK N   1      35.406  14.711   9.836  0.00  0.00     0.251 C 
HETATM   15  C   UNK N   1      33.245  15.017   6.819  0.00  0.00     0.001 C 
HETATM   16  O   UNK N   1      35.864  13.584   9.725  0.00  0.00    -0.270 OA
BRANCH  14  17
HETATM   17  C   UNK N   1      35.758  15.509  11.069  0.00  0.00     0.233 C 
BRANCH  17  18
HETATM   18  O   UNK N   1      37.042  16.049  10.964  0.00  0.00    -0.384 OA
HETATM   19  H   UNK N   1      37.646  16.591  11.497  0.00  0.00     0.210 HD
ENDBRANCH  17  18
BRANCH  17  20
HETATM   20  C   UNK N   1      35.658  14.646  12.320  0.00  0.00     0.205 C 
BRANCH  20  21
HETATM   21  O   UNK N   1      34.459  13.929  12.309  0.00  0.00    -0.398 OA
HETATM   22  H   UNK N   1      33.606  13.961  12.768  0.00  0.00     0.209 HD
ENDBRANCH  20  21
ENDBRANCH  17  20
ENDBRANCH  14  17
ENDBRANCH   3   9
BRANCH   4  23
HETATM   23  N   UNK N   1      28.093  18.183   4.575  0.00  0.00    -0.291 N 
HETATM   24  C   UNK N   1      27.221  17.196   4.004  0.00  0.00     0.169 C 
HETATM   25  C   UNK N   1      26.065  18.062   3.480  0.00  0.00     0.176 C 
HETATM   26  O   UNK N   1      26.315  19.349   3.940  0.00  0.00    -0.294 OA
HETATM   27  C   UNK N   1      27.515  19.383   4.513  0.00  0.00     0.368 C 
HETATM   28  O   UNK N   1      28.027  20.413   4.932  0.00  0.00    -0.238 OA
BRANCH  25  29
HETATM   29  C   UNK N   1      24.703  17.532   3.865  0.00  0.00     0.211 C 
BRANCH  29  30
HETATM   30  O   UNK N   1      24.035  18.575   4.454  0.00  0.00    -0.332 OA
BRANCH  30  31
HETATM   31  C   UNK N   1      23.188  19.373   3.767  0.00  0.00     0.164 A 
HETATM   32  N   UNK N   1      23.536  20.499   3.125  0.00  0.00    -0.240 N 
HETATM   33  O   UNK N   1      22.451  20.972   2.586  0.00  0.00    -0.248 OA
ATOM     34  HN  UNK N   1      24.471  20.905   3.069  1.00  0.00     0.197 HD
HETATM   35  C   UNK N   1      21.409  20.211   2.853  0.00  0.00     0.172 A 
HETATM   36  C   UNK N   1      21.841  19.147   3.628  0.00  0.00     0.084 A 
ENDBRANCH  30  31
ENDBRANCH  29  30
ENDBRANCH  25  29
ENDBRANCH   4  23
TORSDOF 9
ENDMDL
MODEL 4
REMARK VINA RESULT:      -7.9      2.791     11.735
REMARK  9 active torsions:
REMARK  status: ('A' for Active; 'I' for Inactive)
REMARK    1  A    between atoms: O_4  and  C_23 
REMARK    2  A    between atoms: O_4  and  C_32 
REMARK    3  A    between atoms: C_30  and  O_7 
REMARK    4  A    between atoms: O_8  and  C_31 
REMARK       I    between atoms: N_10  and  C_25 
REMARK    5  A    between atoms: N_11  and  C_22 
REMARK    6  A    between atoms: C_16  and  C_20 
REMARK    7  A    between atoms: C_17  and  C_23 
REMARK    8  A    between atoms: C_25  and  C_30 
REMARK    9  A    between atoms: C_30  and  C_31 
ROOT
HETATM    1  F   UNK N   1      24.733  14.957   6.956  0.00  0.00    -0.205 F 
HETATM    2  F   UNK N   1      25.847  18.511   3.869  0.00  0.00    -0.205 F 
HETATM    3  C   UNK N   1      25.203  16.738   5.391  0.00  0.00     0.047 A 
HETATM    4  C   UNK N   1      27.835  16.776   6.359  0.00  0.00     0.045 A 
HETATM    5  C   UNK N   1      25.608  15.828   6.394  0.00  0.00     0.132 A 
HETATM    6  C   UNK N   1      26.152  17.642   4.863  0.00  0.00     0.132 A 
HETATM    7  C   UNK N   1      26.914  15.857   6.873  0.00  0.00     0.073 A 
HETATM    8  C   UNK N   1      27.444  17.650   5.350  0.00  0.00     0.073 A 
ENDROOT
BRANCH   3   9
HETATM    9  C   UNK N   1      23.824  16.730   4.855  0.00  0.00    -0.042 C 
HETATM   10  C   UNK N   1      22.818  17.728   5.333  0.00  0.00     0.059 C 
HETATM   11  C   UNK N   1      22.320  18.465   4.123  0.00  0.00     0.131 C 
HETATM   12  N   UNK N   1      21.723  17.529   3.181  0.00  0.00    -0.346 N 
HETATM   13  C   UNK N   1      22.190  16.140   3.100  0.00  0.00     0.153 C 
HETATM   14  C   UNK N   1      20.715  17.951   2.368  0.00  0.00     0.251 C 
HETATM   15  C   UNK N   1      23.497  15.945   3.819  0.00  0.00     0.001 C 
HETATM   16  O   UNK N   1      20.246  17.193   1.532  0.00  0.00    -0.270 OA
BRANCH  14  17
HETATM   17  C   UNK N   1      20.135  19.340   2.483  0.00  0.00     0.233 C 
BRANCH  17  18
HETATM   18  O   UNK N   1      18.741  19.307   2.389  0.00  0.00    -0.384 OA
HETATM   19  H   UNK N   1      18.040  18.652   2.243  0.00  0.00     0.210 HD
ENDBRANCH  17  18
BRANCH  17  20
HETATM   20  C   UNK N   1      20.707  20.256   1.409  0.00  0.00     0.205 C 
BRANCH  20  21
HETATM   21  O   UNK N   1      20.563  19.664   0.152  0.00  0.00    -0.398 OA
HETATM   22  H   UNK N   1      20.019  19.797  -0.639  0.00  0.00     0.209 HD
ENDBRANCH  20  21
ENDBRANCH  17  20
ENDBRANCH  14  17
ENDBRANCH   3   9
BRANCH   4  23
HETATM   23  N   UNK N   1      29.114  16.944   6.944  0.00  0.00    -0.291 N 
HETATM   24  C   UNK N   1      30.290  16.312   6.418  0.00  0.00     0.169 C 
HETATM   25  C   UNK N   1      31.376  16.817   7.382  0.00  0.00     0.176 C 
HETATM   26  O   UNK N   1      30.757  17.760   8.192  0.00  0.00    -0.294 OA
HETATM   27  C   UNK N   1      29.450  17.759   7.943  0.00  0.00     0.368 C 
HETATM   28  O   UNK N   1      28.649  18.435   8.576  0.00  0.00    -0.238 OA
BRANCH  25  29
HETATM   29  C   UNK N   1      32.605  17.337   6.672  0.00  0.00     0.211 C 
BRANCH  29  30
HETATM   30  O   UNK N   1      33.658  16.580   7.119  0.00  0.00    -0.332 OA
BRANCH  30  31
HETATM   31  C   UNK N   1      34.269  16.814   8.301  0.00  0.00     0.164 A 
HETATM   32  N   UNK N   1      34.784  17.993   8.684  0.00  0.00    -0.240 N 
HETATM   33  O   UNK N   1      35.273  17.817   9.877  0.00  0.00    -0.248 OA
ATOM     34  HN  UNK N   1      34.791  18.859   8.146  1.00  0.00     0.197 HD
HETATM   35  C   UNK N   1      35.108  16.575  10.286  0.00  0.00     0.172 A 
HETATM   36  C   UNK N   1      34.453  15.876   9.286  0.00  0.00     0.084 A 
ENDBRANCH  30  31
ENDBRANCH  29  30
ENDBRANCH  25  29
ENDBRANCH   4  23
TORSDOF 9
ENDMDL
MODEL 5
REMARK VINA RESULT:      -7.7      1.954     11.305
REMARK  9 active torsions:
REMARK  status: ('A' for Active; 'I' for Inactive)
REMARK    1  A    between atoms: O_4  and  C_23 
REMARK    2  A    between atoms: O_4  and  C_32 
REMARK    3  A    between atoms: C_30  and  O_7 
REMARK    4  A    between atoms: O_8  and  C_31 
REMARK       I    between atoms: N_10  and  C_25 
REMARK    5  A    between atoms: N_11  and  C_22 
REMARK    6  A    between atoms: C_16  and  C_20 
REMARK    7  A    between atoms: C_17  and  C_23 
REMARK    8  A    between atoms: C_25  and  C_30 
REMARK    9  A    between atoms: C_30  and  C_31 
ROOT
HETATM    1  F   UNK N   1      28.574  17.718   8.162  0.00  0.00    -0.205 F 
HETATM    2  F   UNK N   1      31.431  17.016   4.321  0.00  0.00    -0.205 F 
HETATM    3  C   UNK N   1      29.932  17.390   6.190  0.00  0.00     0.047 A 
HETATM    4  C   UNK N   1      32.136  16.999   7.880  0.00  0.00     0.045 A 
HETATM    5  C   UNK N   1      29.772  17.433   7.594  0.00  0.00     0.132 A 
HETATM    6  C   UNK N   1      31.212  17.117   5.655  0.00  0.00     0.132 A 
HETATM    7  C   UNK N   1      30.871  17.243   8.426  0.00  0.00     0.073 A 
HETATM    8  C   UNK N   1      32.287  16.927   6.499  0.00  0.00     0.073 A 
ENDROOT
BRANCH   3   9
HETATM    9  C   UNK N   1      28.785  17.582   5.277  0.00  0.00    -0.042 C 
HETATM   10  C   UNK N   1      27.807  16.476   5.043  0.00  0.00     0.059 C 
HETATM   11  C   UNK N   1      26.449  17.004   5.406  0.00  0.00     0.131 C 
HETATM   12  N   UNK N   1      26.132  18.165   4.587  0.00  0.00    -0.346 N 
HETATM   13  C   UNK N   1      27.193  19.046   4.085  0.00  0.00     0.153 C 
HETATM   14  C   UNK N   1      24.832  18.433   4.283  0.00  0.00     0.251 C 
HETATM   15  C   UNK N   1      28.505  18.794   4.776  0.00  0.00     0.001 C 
HETATM   16  O   UNK N   1      24.547  19.437   3.647  0.00  0.00    -0.270 OA
BRANCH  14  17
HETATM   17  C   UNK N   1      23.715  17.503   4.692  0.00  0.00     0.233 C 
BRANCH  17  18
HETATM   18  O   UNK N   1      23.404  16.613   3.661  0.00  0.00    -0.384 OA
HETATM   19  H   UNK N   1      22.870  16.602   2.851  0.00  0.00     0.210 HD
ENDBRANCH  17  18
BRANCH  17  20
HETATM   20  C   UNK N   1      22.474  18.290   5.092  0.00  0.00     0.205 C 
BRANCH  20  21
HETATM   21  O   UNK N   1      22.200  18.090   6.447  0.00  0.00    -0.398 OA
HETATM   22  H   UNK N   1      22.647  17.702   7.214  0.00  0.00     0.209 HD
ENDBRANCH  20  21
ENDBRANCH  17  20
ENDBRANCH  14  17
ENDBRANCH   3   9
BRANCH   4  23
HETATM   23  N   UNK N   1      33.297  16.974   8.692  0.00  0.00    -0.291 N 
HETATM   24  C   UNK N   1      33.570  15.907   9.613  0.00  0.00     0.169 C 
HETATM   25  C   UNK N   1      34.916  16.346  10.213  0.00  0.00     0.176 C 
HETATM   26  O   UNK N   1      35.313  17.457   9.481  0.00  0.00    -0.294 OA
HETATM   27  C   UNK N   1      34.330  17.815   8.659  0.00  0.00     0.368 C 
HETATM   28  O   UNK N   1      34.377  18.816   7.956  0.00  0.00    -0.238 OA
BRANCH  25  29
HETATM   29  C   UNK N   1      35.942  15.237  10.243  0.00  0.00     0.211 C 
BRANCH  29  30
HETATM   30  O   UNK N   1      36.401  15.170  11.534  0.00  0.00    -0.332 OA
BRANCH  30  31
HETATM   31  C   UNK N   1      35.856  14.346  12.454  0.00  0.00     0.164 A 
HETATM   32  N   UNK N   1      34.813  13.529  12.240  0.00  0.00    -0.240 N 
HETATM   33  O   UNK N   1      34.595  12.900  13.357  0.00  0.00    -0.248 OA
ATOM     34  HN  UNK N   1      34.293  13.420  11.369  1.00  0.00     0.197 HD
HETATM   35  C   UNK N   1      35.443  13.275  14.294  0.00  0.00     0.172 A 
HETATM   36  C   UNK N   1      36.292  14.224  13.751  0.00  0.00     0.084 A 
ENDBRANCH  30  31
ENDBRANCH  29  30
ENDBRANCH  25  29
ENDBRANCH   4  23
TORSDOF 9
ENDMDL
MODEL 6
REMARK VINA RESULT:      -7.6      2.142     11.089
REMARK  9 active torsions:
REMARK  status: ('A' for Active; 'I' for Inactive)
REMARK    1  A    between atoms: O_4  and  C_23 
REMARK    2  A    between atoms: O_4  and  C_32 
REMARK    3  A    between atoms: C_30  and  O_7 
REMARK    4  A    between atoms: O_8  and  C_31 
REMARK       I    between atoms: N_10  and  C_25 
REMARK    5  A    between atoms: N_11  and  C_22 
REMARK    6  A    between atoms: C_16  and  C_20 
REMARK    7  A    between atoms: C_17  and  C_23 
REMARK    8  A    between atoms: C_25  and  C_30 
REMARK    9  A    between atoms: C_30  and  C_31 
ROOT
HETATM    1  F   UNK N   1      27.714  18.431   6.828  0.00  0.00    -0.205 F 
HETATM    2  F   UNK N   1      29.442  16.730   2.641  0.00  0.00    -0.205 F 
HETATM    3  C   UNK N   1      28.506  17.617   4.694  0.00  0.00     0.047 A 
HETATM    4  C   UNK N   1      30.858  16.791   5.981  0.00  0.00     0.045 A 
HETATM    5  C   UNK N   1      28.661  17.802   6.087  0.00  0.00     0.132 A 
HETATM    6  C   UNK N   1      29.540  16.981   3.969  0.00  0.00     0.132 A 
HETATM    7  C   UNK N   1      29.833  17.394   6.717  0.00  0.00     0.073 A 
HETATM    8  C   UNK N   1      30.692  16.580   4.616  0.00  0.00     0.073 A 
ENDROOT
BRANCH   3   9
HETATM    9  C   UNK N   1      27.272  18.033   3.994  0.00  0.00    -0.042 C 
HETATM   10  C   UNK N   1      26.212  17.032   3.661  0.00  0.00     0.059 C 
HETATM   11  C   UNK N   1      24.938  17.512   4.295  0.00  0.00     0.131 C 
HETATM   12  N   UNK N   1      24.594  18.830   3.781  0.00  0.00    -0.346 N 
HETATM   13  C   UNK N   1      25.636  19.764   3.342  0.00  0.00     0.153 C 
HETATM   14  C   UNK N   1      23.284  19.196   3.706  0.00  0.00     0.251 C 
HETATM   15  C   UNK N   1      27.004  19.331   3.794  0.00  0.00     0.001 C 
HETATM   16  O   UNK N   1      22.984  20.320   3.333  0.00  0.00    -0.270 OA
BRANCH  14  17
HETATM   17  C   UNK N   1      22.173  18.234   4.052  0.00  0.00     0.233 C 
BRANCH  17  18
HETATM   18  O   UNK N   1      21.288  18.087   2.981  0.00  0.00    -0.384 OA
HETATM   19  H   UNK N   1      20.465  18.489   2.661  0.00  0.00     0.210 HD
ENDBRANCH  17  18
BRANCH  17  20
HETATM   20  C   UNK N   1      21.417  18.703   5.289  0.00  0.00     0.205 C 
BRANCH  20  21
HETATM   21  O   UNK N   1      22.143  18.384   6.439  0.00  0.00    -0.398 OA
HETATM   22  H   UNK N   1      22.996  18.623   6.832  0.00  0.00     0.209 HD
ENDBRANCH  20  21
ENDBRANCH  17  20
ENDBRANCH  14  17
ENDBRANCH   3   9
BRANCH   4  23
HETATM   23  N   UNK N   1      32.123  16.524   6.560  0.00  0.00    -0.291 N 
HETATM   24  C   UNK N   1      33.129  17.536   6.713  0.00  0.00     0.169 C 
HETATM   25  C   UNK N   1      34.266  16.750   7.386  0.00  0.00     0.176 C 
HETATM   26  O   UNK N   1      33.741  15.498   7.679  0.00  0.00    -0.294 OA
HETATM   27  C   UNK N   1      32.530  15.394   7.137  0.00  0.00     0.368 C 
HETATM   28  O   UNK N   1      31.870  14.363   7.167  0.00  0.00    -0.238 OA
BRANCH  25  29
HETATM   29  C   UNK N   1      34.851  17.460   8.584  0.00  0.00     0.211 C 
BRANCH  29  30
HETATM   30  O   UNK N   1      34.086  17.092   9.662  0.00  0.00    -0.332 OA
BRANCH  30  31
HETATM   31  C   UNK N   1      34.471  16.130  10.529  0.00  0.00     0.164 A 
HETATM   32  N   UNK N   1      33.720  15.083  10.904  0.00  0.00    -0.240 N 
HETATM   33  O   UNK N   1      34.438  14.387  11.735  0.00  0.00    -0.248 OA
ATOM     34  HN  UNK N   1      32.770  14.873  10.595  1.00  0.00     0.197 HD
HETATM   35  C   UNK N   1      35.620  14.936  11.927  0.00  0.00     0.172 A 
HETATM   36  C   UNK N   1      35.691  16.085  11.156  0.00  0.00     0.084 A 
ENDBRANCH  30  31
ENDBRANCH  29  30
ENDBRANCH  25  29
ENDBRANCH   4  23
TORSDOF 9
ENDMDL
MODEL 7
REMARK VINA RESULT:      -7.6      3.025     11.195
REMARK  9 active torsions:
REMARK  status: ('A' for Active; 'I' for Inactive)
REMARK    1  A    between atoms: O_4  and  C_23 
REMARK    2  A    between atoms: O_4  and  C_32 
REMARK    3  A    between atoms: C_30  and  O_7 
REMARK    4  A    between atoms: O_8  and  C_31 
REMARK       I    between atoms: N_10  and  C_25 
REMARK    5  A    between atoms: N_11  and  C_22 
REMARK    6  A    between atoms: C_16  and  C_20 
REMARK    7  A    between atoms: C_17  and  C_23 
REMARK    8  A    between atoms: C_25  and  C_30 
REMARK    9  A    between atoms: C_30  and  C_31 
ROOT
HETATM    1  F   UNK N   1      27.468  18.514   6.845  0.00  0.00    -0.205 F 
HETATM    2  F   UNK N   1      26.129  16.418   2.695  0.00  0.00    -0.205 F 
HETATM    3  C   UNK N   1      26.726  17.519   4.771  0.00  0.00     0.047 A 
HETATM    4  C   UNK N   1      29.166  16.140   4.661  0.00  0.00     0.045 A 
HETATM    5  C   UNK N   1      27.677  17.666   5.806  0.00  0.00     0.132 A 
HETATM    6  C   UNK N   1      27.011  16.643   3.699  0.00  0.00     0.132 A 
HETATM    7  C   UNK N   1      28.887  16.982   5.742  0.00  0.00     0.073 A 
HETATM    8  C   UNK N   1      28.216  15.972   3.657  0.00  0.00     0.073 A 
ENDROOT
BRANCH   3   9
HETATM    9  C   UNK N   1      25.427  18.226   4.810  0.00  0.00    -0.042 C 
HETATM   10  C   UNK N   1      25.306  19.622   4.288  0.00  0.00     0.059 C 
HETATM   11  C   UNK N   1      24.241  19.605   3.230  0.00  0.00     0.131 C 
HETATM   12  N   UNK N   1      22.982  19.148   3.799  0.00  0.00    -0.346 N 
HETATM   13  C   UNK N   1      22.961  18.211   4.928  0.00  0.00     0.153 C 
HETATM   14  C   UNK N   1      21.808  19.599   3.275  0.00  0.00     0.251 C 
HETATM   15  C   UNK N   1      24.306  17.578   5.157  0.00  0.00     0.001 C 
HETATM   16  O   UNK N   1      20.745  19.178   3.703  0.00  0.00    -0.270 OA
BRANCH  14  17
HETATM   17  C   UNK N   1      21.779  20.638   2.179  0.00  0.00     0.233 C 
BRANCH  17  18
HETATM   18  O   UNK N   1      21.877  21.926   2.710  0.00  0.00    -0.384 OA
HETATM   19  H   UNK N   1      22.286  22.367   3.472  0.00  0.00     0.210 HD
ENDBRANCH  17  18
BRANCH  17  20
HETATM   20  C   UNK N   1      20.508  20.513   1.349  0.00  0.00     0.205 C 
BRANCH  20  21
HETATM   21  O   UNK N   1      20.810  20.652  -0.007  0.00  0.00    -0.398 OA
HETATM   22  H   UNK N   1      21.603  20.646  -0.565  0.00  0.00     0.209 HD
ENDBRANCH  20  21
ENDBRANCH  17  20
ENDBRANCH  14  17
ENDBRANCH   3   9
BRANCH   4  23
HETATM   23  N   UNK N   1      30.450  15.569   4.483  0.00  0.00    -0.291 N 
HETATM   24  C   UNK N   1      31.563  16.320   3.974  0.00  0.00     0.169 C 
HETATM   25  C   UNK N   1      32.684  15.269   3.990  0.00  0.00     0.176 C 
HETATM   26  O   UNK N   1      32.154  14.157   4.632  0.00  0.00    -0.294 OA
HETATM   27  C   UNK N   1      30.856  14.353   4.846  0.00  0.00     0.368 C 
HETATM   28  O   UNK N   1      30.120  13.498   5.321  0.00  0.00    -0.238 OA
BRANCH  25  29
HETATM   29  C   UNK N   1      33.965  15.777   4.611  0.00  0.00     0.211 C 
BRANCH  29  30
HETATM   30  O   UNK N   1      33.922  15.417   5.934  0.00  0.00    -0.332 OA
BRANCH  30  31
HETATM   31  C   UNK N   1      33.752  16.318   6.925  0.00  0.00     0.164 A 
HETATM   32  N   UNK N   1      33.502  16.017   8.209  0.00  0.00    -0.240 N 
HETATM   33  O   UNK N   1      33.410  17.146   8.847  0.00  0.00    -0.248 OA
ATOM     34  HN  UNK N   1      33.404  15.083   8.608  1.00  0.00     0.197 HD
HETATM   35  C   UNK N   1      33.580  18.172   8.037  0.00  0.00     0.172 A 
HETATM   36  C   UNK N   1      33.807  17.680   6.763  0.00  0.00     0.084 A 
ENDBRANCH  30  31
ENDBRANCH  29  30
ENDBRANCH  25  29
ENDBRANCH   4  23
TORSDOF 9
ENDMDL
MODEL 8
REMARK VINA RESULT:      -7.6      1.880      2.932
REMARK  9 active torsions:
REMARK  status: ('A' for Active; 'I' for Inactive)
REMARK    1  A    between atoms: O_4  and  C_23 
REMARK    2  A    between atoms: O_4  and  C_32 
REMARK    3  A    between atoms: C_30  and  O_7 
REMARK    4  A    between atoms: O_8  and  C_31 
REMARK       I    between atoms: N_10  and  C_25 
REMARK    5  A    between atoms: N_11  and  C_22 
REMARK    6  A    between atoms: C_16  and  C_20 
REMARK    7  A    between atoms: C_17  and  C_23 
REMARK    8  A    between atoms: C_25  and  C_30 
REMARK    9  A    between atoms: C_30  and  C_31 
ROOT
HETATM    1  F   UNK N   1      30.339  16.948   8.725  0.00  0.00    -0.205 F 
HETATM    2  F   UNK N   1      32.007  17.352   4.201  0.00  0.00    -0.205 F 
HETATM    3  C   UNK N   1      31.250  17.112   6.491  0.00  0.00     0.047 A 
HETATM    4  C   UNK N   1      28.727  17.975   5.621  0.00  0.00     0.045 A 
HETATM    5  C   UNK N   1      30.189  17.265   7.414  0.00  0.00     0.132 A 
HETATM    6  C   UNK N   1      31.026  17.431   5.133  0.00  0.00     0.132 A 
HETATM    7  C   UNK N   1      28.939  17.689   6.973  0.00  0.00     0.073 A 
HETATM    8  C   UNK N   1      29.779  17.854   4.718  0.00  0.00     0.073 A 
ENDROOT
BRANCH   3   9
HETATM    9  C   UNK N   1      32.592  16.670   6.927  0.00  0.00    -0.042 C 
HETATM   10  C   UNK N   1      33.449  17.559   7.771  0.00  0.00     0.059 C 
HETATM   11  C   UNK N   1      33.782  16.794   9.019  0.00  0.00     0.131 C 
HETATM   12  N   UNK N   1      34.481  15.564   8.677  0.00  0.00    -0.346 N 
HETATM   13  C   UNK N   1      34.231  14.885   7.400  0.00  0.00     0.153 C 
HETATM   14  C   UNK N   1      35.381  15.040   9.555  0.00  0.00     0.251 C 
HETATM   15  C   UNK N   1      32.998  15.409   6.717  0.00  0.00     0.001 C 
HETATM   16  O   UNK N   1      35.930  13.978   9.308  0.00  0.00    -0.270 OA
BRANCH  14  17
HETATM   17  C   UNK N   1      35.743  15.753  10.836  0.00  0.00     0.233 C 
BRANCH  17  18
HETATM   18  O   UNK N   1      37.095  16.106  10.845  0.00  0.00    -0.384 OA
HETATM   19  H   UNK N   1      37.747  16.461  11.470  0.00  0.00     0.210 HD
ENDBRANCH  17  18
BRANCH  17  20
HETATM   20  C   UNK N   1      35.424  14.887  12.047  0.00  0.00     0.205 C 
BRANCH  20  21
HETATM   21  O   UNK N   1      34.217  14.213  11.846  0.00  0.00    -0.398 OA
HETATM   22  H   UNK N   1      33.866  13.550  11.233  0.00  0.00     0.209 HD
ENDBRANCH  20  21
ENDBRANCH  17  20
ENDBRANCH  14  17
ENDBRANCH   3   9
BRANCH   4  23
HETATM   23  N   UNK N   1      27.429  18.240   5.118  0.00  0.00    -0.291 N 
HETATM   24  C   UNK N   1      26.724  17.312   4.280  0.00  0.00     0.169 C 
HETATM   25  C   UNK N   1      25.400  18.055   4.034  0.00  0.00     0.176 C 
HETATM   26  O   UNK N   1      25.435  19.175   4.854  0.00  0.00    -0.294 OA
HETATM   27  C   UNK N   1      26.639  19.271   5.414  0.00  0.00     0.368 C 
HETATM   28  O   UNK N   1      26.975  20.213   6.119  0.00  0.00    -0.238 OA
BRANCH  25  29
HETATM   29  C   UNK N   1      24.183  17.184   4.243  0.00  0.00     0.211 C 
BRANCH  29  30
HETATM   30  O   UNK N   1      24.485  16.343   5.283  0.00  0.00    -0.332 OA
BRANCH  30  31
HETATM   31  C   UNK N   1      23.542  15.860   6.122  0.00  0.00     0.164 A 
HETATM   32  N   UNK N   1      23.689  14.786   6.913  0.00  0.00    -0.240 N 
HETATM   33  O   UNK N   1      22.573  14.649   7.567  0.00  0.00    -0.248 OA
ATOM     34  HN  UNK N   1      24.515  14.193   6.988  1.00  0.00     0.197 HD
HETATM   35  C   UNK N   1      21.701  15.579   7.233  0.00  0.00     0.172 A 
HETATM   36  C   UNK N   1      22.290  16.399   6.285  0.00  0.00     0.084 A 
ENDBRANCH  30  31
ENDBRANCH  29  30
ENDBRANCH  25  29
ENDBRANCH   4  23
TORSDOF 9
ENDMDL
MODEL 9
REMARK VINA RESULT:      -7.5      3.304      4.298
REMARK  9 active torsions:
REMARK  status: ('A' for Active; 'I' for Inactive)
REMARK    1  A    between atoms: O_4  and  C_23 
REMARK    2  A    between atoms: O_4  and  C_32 
REMARK    3  A    between atoms: C_30  and  O_7 
REMARK    4  A    between atoms: O_8  and  C_31 
REMARK       I    between atoms: N_10  and  C_25 
REMARK    5  A    between atoms: N_11  and  C_22 
REMARK    6  A    between atoms: C_16  and  C_20 
REMARK    7  A    between atoms: C_17  and  C_23 
REMARK    8  A    between atoms: C_25  and  C_30 
REMARK    9  A    between atoms: C_30  and  C_31 
ROOT
HETATM    1  F   UNK N   1      34.731  17.844   7.189  0.00  0.00    -0.205 F 
HETATM    2  F   UNK N   1      32.693  13.610   8.341  0.00  0.00    -0.205 F 
HETATM    3  C   UNK N   1      33.772  15.720   7.832  0.00  0.00     0.047 A 
HETATM    4  C   UNK N   1      31.745  16.163   5.944  0.00  0.00     0.045 A 
HETATM    5  C   UNK N   1      33.783  16.886   7.031  0.00  0.00     0.132 A 
HETATM    6  C   UNK N   1      32.743  14.770   7.643  0.00  0.00     0.132 A 
HETATM    7  C   UNK N   1      32.771  17.101   6.101  0.00  0.00     0.073 A 
HETATM    8  C   UNK N   1      31.751  15.002   6.710  0.00  0.00     0.073 A 
ENDROOT
BRANCH   3   9
HETATM    9  C   UNK N   1      34.835  15.458   8.826  0.00  0.00    -0.042 C 
HETATM   10  C   UNK N   1      34.896  16.242  10.098  0.00  0.00     0.059 C 
HETATM   11  C   UNK N   1      34.846  15.254  11.227  0.00  0.00     0.131 C 
HETATM   12  N   UNK N   1      35.965  14.328  11.128  0.00  0.00    -0.346 N 
HETATM   13  C   UNK N   1      36.543  13.981   9.825  0.00  0.00     0.153 C 
HETATM   14  C   UNK N   1      36.482  13.781  12.263  0.00  0.00     0.251 C 
HETATM   15  C   UNK N   1      35.658  14.409   8.687  0.00  0.00     0.001 C 
HETATM   16  O   UNK N   1      37.381  12.958  12.191  0.00  0.00    -0.270 OA
BRANCH  14  17
HETATM   17  C   UNK N   1      35.986  14.183  13.632  0.00  0.00     0.233 C 
BRANCH  17  18
HETATM   18  O   UNK N   1      37.040  14.631  14.432  0.00  0.00    -0.384 OA
HETATM   19  H   UNK N   1      37.837  15.177  14.341  0.00  0.00     0.210 HD
ENDBRANCH  17  18
BRANCH  17  20
HETATM   20  C   UNK N   1      35.274  13.021  14.312  0.00  0.00     0.205 C 
BRANCH  20  21
HETATM   21  O   UNK N   1      34.378  12.425  13.423  0.00  0.00    -0.398 OA
HETATM   22  H   UNK N   1      33.649  11.788  13.467  0.00  0.00     0.209 HD
ENDBRANCH  20  21
ENDBRANCH  17  20
ENDBRANCH  14  17
ENDBRANCH   3   9
BRANCH   4  23
HETATM   23  N   UNK N   1      30.616  16.435   5.133  0.00  0.00    -0.291 N 
HETATM   24  C   UNK N   1      29.333  16.766   5.684  0.00  0.00     0.169 C 
HETATM   25  C   UNK N   1      28.489  16.973   4.416  0.00  0.00     0.176 C 
HETATM   26  O   UNK N   1      29.381  16.910   3.352  0.00  0.00    -0.294 OA
HETATM   27  C   UNK N   1      30.577  16.544   3.805  0.00  0.00     0.368 C 
HETATM   28  O   UNK N   1      31.532  16.328   3.071  0.00  0.00    -0.238 OA
BRANCH  25  29
HETATM   29  C   UNK N   1      27.669  18.242   4.449  0.00  0.00     0.211 C 
BRANCH  29  30
HETATM   30  O   UNK N   1      28.133  18.974   5.512  0.00  0.00    -0.332 OA
BRANCH  30  31
HETATM   31  C   UNK N   1      27.407  19.957   6.087  0.00  0.00     0.164 A 
HETATM   32  N   UNK N   1      26.955  19.946   7.351  0.00  0.00    -0.240 N 
HETATM   33  O   UNK N   1      26.312  21.062   7.528  0.00  0.00    -0.248 OA
ATOM     34  HN  UNK N   1      27.091  19.206   8.040  1.00  0.00     0.197 HD
HETATM   35  C   UNK N   1      26.316  21.798   6.434  0.00  0.00     0.172 A 
HETATM   36  C   UNK N   1      27.022  21.115   5.459  0.00  0.00     0.084 A 
ENDBRANCH  30  31
ENDBRANCH  29  30
ENDBRANCH  25  29
ENDBRANCH   4  23
TORSDOF 9
ENDMDL
