MODEL 1
REMARK VINA RESULT:      -7.9      0.000      0.000
REMARK  10 active torsions:
REMARK  status: ('A' for Active; 'I' for Inactive)
REMARK    1  A    between atoms: O_1  and  C_16 
REMARK    2  A    between atoms: O_1  and  C_18 
REMARK    3  A    between atoms: O_3  and  C_17 
REMARK    4  A    between atoms: O_5  and  C_32 
REMARK    5  A    between atoms: N_8  and  C_31 
REMARK       I    between atoms: N_9  and  C_32 
REMARK    6  A    between atoms: C_11  and  C_15 
REMARK    7  A    between atoms: C_12  and  C_16 
REMARK    8  A    between atoms: C_15  and  C_17 
REMARK    9  A    between atoms: C_21  and  C_25 
REMARK   10  A    between atoms: C_28  and  C_31 
ROOT
HETATM    1  C   UNK N   1      29.297  17.461   6.981  0.00  0.00     0.068 C 
HETATM    2  C   UNK N   1      30.273  16.892   6.132  0.00  0.00     0.037 C 
HETATM    3  C   UNK N   1      29.666  18.032   8.182  0.00  0.00     0.037 C 
HETATM    4  C   UNK N   1      31.918  17.231   7.868  0.00  0.00    -0.026 C 
HETATM    5  C   UNK N   1      31.595  16.768   6.585  0.00  0.00     0.015 C 
HETATM    6  C   UNK N   1      30.956  17.914   8.625  0.00  0.00     0.015 C 
ENDROOT
BRANCH   4   7
HETATM    7  C   UNK N   1      32.950  16.531   8.627  0.00  0.00    -0.026 C 
HETATM    8  C   UNK N   1      32.773  15.318   9.322  0.00  0.00     0.013 C 
HETATM    9  C   UNK N   1      33.771  14.893  10.227  0.00  0.00     0.016 C 
HETATM   10  C   UNK N   1      34.832  15.767  10.539  0.00  0.00     0.008 C 
HETATM   11  C   UNK N   1      34.971  16.955   9.848  0.00  0.00     0.016 C 
HETATM   12  C   UNK N   1      34.064  17.319   8.908  0.00  0.00     0.013 C 
BRANCH  10  13
HETATM   13  C   UNK N   1      36.029  15.410  11.257  0.00  0.00     0.113 C 
HETATM   14  N   UNK N   1      35.779  14.725  12.319  0.00  0.00    -0.288 N 
HETATM   15  C   UNK N   1      36.434  13.604  12.711  0.00  0.00     0.365 C 
ATOM     16  HN  UNK N   1      35.024  15.056  12.918  1.00  0.00     0.172 HD
HETATM   17  O   UNK N   1      37.229  13.046  11.957  0.00  0.00    -0.238 OA
BRANCH  13  18
HETATM   18  N   UNK N   1      37.176  15.114  10.466  0.00  0.00    -0.385 N 
HETATM   19  H   UNK N   1      37.759  14.437  10.052  0.00  0.00     0.157 HD
HETATM   20  H   UNK N   1      37.562  15.985  10.219  0.00  0.00     0.157 HD
ENDBRANCH  13  18
BRANCH  15  21
HETATM   21  O   UNK N   1      36.011  12.977  13.827  0.00  0.00    -0.309 OA
HETATM   22  C   UNK N   1      34.833  12.274  13.868  0.00  0.00     0.215 C 
ENDBRANCH  15  21
ENDBRANCH  10  13
ENDBRANCH   4   7
BRANCH   1  23
HETATM   23  O   UNK N   1      27.983  17.413   6.724  0.00  0.00    -0.349 OA
BRANCH  23  24
HETATM   24  C   UNK N   1      27.334  18.149   5.783  0.00  0.00     0.200 C 
BRANCH  24  25
HETATM   25  C   UNK N   1      26.595  17.145   4.930  0.00  0.00     0.109 C 
HETATM   26  N   UNK N   1      25.323  16.891   5.539  0.00  0.00    -0.354 N 
HETATM   27  C   UNK N   1      24.342  17.503   4.885  0.00  0.00     0.222 C 
HETATM   28  H   UNK N   1      25.193  16.332   6.339  0.00  0.00     0.162 HD
HETATM   29  O   UNK N   1      23.187  17.475   5.279  0.00  0.00    -0.273 OA
HETATM   30  C   UNK N   1      24.798  18.272   3.702  0.00  0.00     0.089 C 
HETATM   31  C   UNK N   1      26.255  17.784   3.592  0.00  0.00     0.041 C 
BRANCH  30  32
HETATM   32  C   UNK N   1      24.724  19.765   4.041  0.00  0.00     0.125 C 
BRANCH  32  33
HETATM   33  C   UNK N   1      24.238  20.593   2.890  0.00  0.00     0.259 C 
HETATM   34  O   UNK N   1      25.002  20.842   1.969  0.00  0.00    -0.265 OA
BRANCH  33  35
HETATM   35  O   UNK N   1      22.946  21.001   2.852  0.00  0.00    -0.326 OA
HETATM   36  C   UNK N   1      21.896  20.117   2.922  0.00  0.00     0.213 C 
ENDBRANCH  33  35
ENDBRANCH  32  33
ENDBRANCH  30  32
ENDBRANCH  24  25
ENDBRANCH  23  24
ENDBRANCH   1  23
TORSDOF 10
ENDMDL
MODEL 2
REMARK VINA RESULT:      -7.8      2.760     12.604
REMARK  10 active torsions:
REMARK  status: ('A' for Active; 'I' for Inactive)
REMARK    1  A    between atoms: O_1  and  C_16 
REMARK    2  A    between atoms: O_1  and  C_18 
REMARK    3  A    between atoms: O_3  and  C_17 
REMARK    4  A    between atoms: O_5  and  C_32 
REMARK    5  A    between atoms: N_8  and  C_31 
REMARK       I    between atoms: N_9  and  C_32 
REMARK    6  A    between atoms: C_11  and  C_15 
REMARK    7  A    between atoms: C_12  and  C_16 
REMARK    8  A    between atoms: C_15  and  C_17 
REMARK    9  A    between atoms: C_21  and  C_25 
REMARK   10  A    between atoms: C_28  and  C_31 
ROOT
HETATM    1  C   UNK N   1      34.423  15.566  10.586  0.00  0.00     0.068 C 
HETATM    2  C   UNK N   1      34.759  16.772   9.932  0.00  0.00     0.037 C 
HETATM    3  C   UNK N   1      33.385  14.786  10.119  0.00  0.00     0.037 C 
HETATM    4  C   UNK N   1      32.803  16.511   8.538  0.00  0.00    -0.026 C 
HETATM    5  C   UNK N   1      33.933  17.253   8.903  0.00  0.00     0.015 C 
HETATM    6  C   UNK N   1      32.580  15.252   9.114  0.00  0.00     0.015 C 
ENDROOT
BRANCH   4   7
HETATM    7  C   UNK N   1      31.613  17.223   8.079  0.00  0.00    -0.026 C 
HETATM    8  C   UNK N   1      30.789  18.039   8.879  0.00  0.00     0.013 C 
HETATM    9  C   UNK N   1      29.534  18.449   8.377  0.00  0.00     0.016 C 
HETATM   10  C   UNK N   1      29.065  17.896   7.167  0.00  0.00     0.008 C 
HETATM   11  C   UNK N   1      29.893  17.089   6.412  0.00  0.00     0.016 C 
HETATM   12  C   UNK N   1      31.138  16.774   6.849  0.00  0.00     0.013 C 
BRANCH  10  13
HETATM   13  C   UNK N   1      27.928  18.365   6.417  0.00  0.00     0.113 C 
HETATM   14  N   UNK N   1      27.471  19.483   6.865  0.00  0.00    -0.288 N 
HETATM   15  C   UNK N   1      27.121  20.554   6.111  0.00  0.00     0.365 C 
ATOM     16  HN  UNK N   1      27.361  19.570   7.875  1.00  0.00     0.172 HD
HETATM   17  O   UNK N   1      27.390  20.593   4.911  0.00  0.00    -0.238 OA
BRANCH  13  18
HETATM   18  N   UNK N   1      27.944  18.106   5.017  0.00  0.00    -0.385 N 
HETATM   19  H   UNK N   1      28.173  18.410   4.109  0.00  0.00     0.157 HD
HETATM   20  H   UNK N   1      27.543  17.213   4.906  0.00  0.00     0.157 HD
ENDBRANCH  13  18
BRANCH  15  21
HETATM   21  O   UNK N   1      26.707  21.671   6.742  0.00  0.00    -0.309 OA
HETATM   22  C   UNK N   1      25.877  21.627   7.836  0.00  0.00     0.215 C 
ENDBRANCH  15  21
ENDBRANCH  10  13
ENDBRANCH   4   7
BRANCH   1  23
HETATM   23  O   UNK N   1      35.016  15.153  11.714  0.00  0.00    -0.349 OA
BRANCH  23  24
HETATM   24  C   UNK N   1      35.074  13.867  12.151  0.00  0.00     0.200 C 
BRANCH  24  25
HETATM   25  C   UNK N   1      36.498  13.668  12.617  0.00  0.00     0.109 C 
HETATM   26  N   UNK N   1      36.861  14.785  13.438  0.00  0.00    -0.354 N 
HETATM   27  C   UNK N   1      36.863  14.459  14.726  0.00  0.00     0.222 C 
HETATM   28  H   UNK N   1      37.082  15.680  13.092  0.00  0.00     0.162 HD
HETATM   29  O   UNK N   1      37.076  15.283  15.601  0.00  0.00    -0.273 OA
HETATM   30  C   UNK N   1      36.509  13.043  14.986  0.00  0.00     0.089 C 
HETATM   31  C   UNK N   1      36.551  12.473  13.556  0.00  0.00     0.041 C 
BRANCH  30  32
HETATM   32  C   UNK N   1      35.093  13.000  15.573  0.00  0.00     0.125 C 
BRANCH  32  33
HETATM   33  C   UNK N   1      35.092  12.858  17.065  0.00  0.00     0.259 C 
HETATM   34  O   UNK N   1      35.118  13.864  17.760  0.00  0.00    -0.265 OA
BRANCH  33  35
HETATM   35  O   UNK N   1      34.999  11.628  17.625  0.00  0.00    -0.326 OA
HETATM   36  C   UNK N   1      35.801  10.582  17.232  0.00  0.00     0.213 C 
ENDBRANCH  33  35
ENDBRANCH  32  33
ENDBRANCH  30  32
ENDBRANCH  24  25
ENDBRANCH  23  24
ENDBRANCH   1  23
TORSDOF 10
ENDMDL
MODEL 3
REMARK VINA RESULT:      -7.8      6.691     10.647
REMARK  10 active torsions:
REMARK  status: ('A' for Active; 'I' for Inactive)
REMARK    1  A    between atoms: O_1  and  C_16 
REMARK    2  A    between atoms: O_1  and  C_18 
REMARK    3  A    between atoms: O_3  and  C_17 
REMARK    4  A    between atoms: O_5  and  C_32 
REMARK    5  A    between atoms: N_8  and  C_31 
REMARK       I    between atoms: N_9  and  C_32 
REMARK    6  A    between atoms: C_11  and  C_15 
REMARK    7  A    between atoms: C_12  and  C_16 
REMARK    8  A    between atoms: C_15  and  C_17 
REMARK    9  A    between atoms: C_21  and  C_25 
REMARK   10  A    between atoms: C_28  and  C_31 
ROOT
HETATM    1  C   UNK N   1      36.592  13.566  12.753  0.00  0.00     0.068 C 
HETATM    2  C   UNK N   1      36.932  12.207  12.930  0.00  0.00     0.037 C 
HETATM    3  C   UNK N   1      36.463  14.400  13.845  0.00  0.00     0.037 C 
HETATM    4  C   UNK N   1      36.711  12.507  15.317  0.00  0.00    -0.026 C 
HETATM    5  C   UNK N   1      36.983  11.671  14.227  0.00  0.00     0.015 C 
HETATM    6  C   UNK N   1      36.515  13.880  15.111  0.00  0.00     0.015 C 
ENDROOT
BRANCH   4   7
HETATM    7  C   UNK N   1      36.058  11.938  16.493  0.00  0.00    -0.026 C 
HETATM    8  C   UNK N   1      35.426  12.675  17.514  0.00  0.00     0.013 C 
HETATM    9  C   UNK N   1      35.073  12.020  18.715  0.00  0.00     0.016 C 
HETATM   10  C   UNK N   1      35.511  10.697  18.930  0.00  0.00     0.008 C 
HETATM   11  C   UNK N   1      36.140  10.006  17.913  0.00  0.00     0.016 C 
HETATM   12  C   UNK N   1      36.392  10.605  16.723  0.00  0.00     0.013 C 
BRANCH  10  13
HETATM   13  C   UNK N   1      35.058   9.825  19.984  0.00  0.00     0.113 C 
HETATM   14  N   UNK N   1      34.567  10.475  20.982  0.00  0.00    -0.288 N 
HETATM   15  C   UNK N   1      33.414  10.177  21.631  0.00  0.00     0.365 C 
ATOM     16  HN  UNK N   1      35.092  11.283  21.315  1.00  0.00     0.172 HD
HETATM   17  O   UNK N   1      32.639   9.334  21.180  0.00  0.00    -0.238 OA
BRANCH  13  18
HETATM   18  N   UNK N   1      34.477   8.590  19.576  0.00  0.00    -0.385 N 
HETATM   19  H   UNK N   1      33.957   8.086  18.910  0.00  0.00     0.157 HD
HETATM   20  H   UNK N   1      34.698   7.944  20.286  0.00  0.00     0.157 HD
ENDBRANCH  13  18
BRANCH  15  21
HETATM   21  O   UNK N   1      33.014  10.992  22.627  0.00  0.00    -0.309 OA
HETATM   22  C   UNK N   1      32.726  10.522  23.885  0.00  0.00     0.215 C 
ENDBRANCH  15  21
ENDBRANCH  10  13
ENDBRANCH   4   7
BRANCH   1  23
HETATM   23  O   UNK N   1      36.301  14.100  11.559  0.00  0.00    -0.349 OA
BRANCH  23  24
HETATM   24  C   UNK N   1      35.221  13.787  10.795  0.00  0.00     0.200 C 
BRANCH  24  25
HETATM   25  C   UNK N   1      34.231  14.904  11.030  0.00  0.00     0.109 C 
HETATM   26  N   UNK N   1      34.954  16.138  11.096  0.00  0.00    -0.354 N 
HETATM   27  C   UNK N   1      34.811  16.845   9.980  0.00  0.00     0.222 C 
HETATM   28  H   UNK N   1      35.488  16.428  11.871  0.00  0.00     0.162 HD
HETATM   29  O   UNK N   1      35.403  17.897   9.801  0.00  0.00    -0.273 OA
HETATM   30  C   UNK N   1      33.944  16.196   8.967  0.00  0.00     0.089 C 
HETATM   31  C   UNK N   1      33.345  15.048   9.801  0.00  0.00     0.041 C 
BRANCH  30  32
HETATM   32  C   UNK N   1      34.834  15.671   7.835  0.00  0.00     0.125 C 
BRANCH  32  33
HETATM   33  C   UNK N   1      34.669  16.449   6.565  0.00  0.00     0.259 C 
HETATM   34  O   UNK N   1      34.427  17.646   6.625  0.00  0.00    -0.265 OA
BRANCH  33  35
HETATM   35  O   UNK N   1      34.850  15.836   5.370  0.00  0.00    -0.326 OA
HETATM   36  C   UNK N   1      33.813  15.612   4.497  0.00  0.00     0.213 C 
ENDBRANCH  33  35
ENDBRANCH  32  33
ENDBRANCH  30  32
ENDBRANCH  24  25
ENDBRANCH  23  24
ENDBRANCH   1  23
TORSDOF 10
ENDMDL
MODEL 4
REMARK VINA RESULT:      -7.8      6.239     10.799
REMARK  10 active torsions:
REMARK  status: ('A' for Active; 'I' for Inactive)
REMARK    1  A    between atoms: O_1  and  C_16 
REMARK    2  A    between atoms: O_1  and  C_18 
REMARK    3  A    between atoms: O_3  and  C_17 
REMARK    4  A    between atoms: O_5  and  C_32 
REMARK    5  A    between atoms: N_8  and  C_31 
REMARK       I    between atoms: N_9  and  C_32 
REMARK    6  A    between atoms: C_11  and  C_15 
REMARK    7  A    between atoms: C_12  and  C_16 
REMARK    8  A    between atoms: C_15  and  C_17 
REMARK    9  A    between atoms: C_21  and  C_25 
REMARK   10  A    between atoms: C_28  and  C_31 
ROOT
HETATM    1  C   UNK N   1      35.250  13.328  13.496  0.00  0.00     0.068 C 
HETATM    2  C   UNK N   1      34.754  12.011  13.622  0.00  0.00     0.037 C 
HETATM    3  C   UNK N   1      36.131  13.832  14.432  0.00  0.00     0.037 C 
HETATM    4  C   UNK N   1      35.819  11.862  15.785  0.00  0.00    -0.026 C 
HETATM    5  C   UNK N   1      35.035  11.275  14.784  0.00  0.00     0.015 C 
HETATM    6  C   UNK N   1      36.408  13.115  15.565  0.00  0.00     0.015 C 
ENDROOT
BRANCH   4   7
HETATM    7  C   UNK N   1      35.550  11.519  17.179  0.00  0.00    -0.026 C 
HETATM    8  C   UNK N   1      35.285  12.441  18.211  0.00  0.00     0.013 C 
HETATM    9  C   UNK N   1      35.306  11.995  19.552  0.00  0.00     0.016 C 
HETATM   10  C   UNK N   1      35.756  10.688  19.833  0.00  0.00     0.008 C 
HETATM   11  C   UNK N   1      36.020   9.813  18.798  0.00  0.00     0.016 C 
HETATM   12  C   UNK N   1      35.905  10.213  17.508  0.00  0.00     0.013 C 
BRANCH  10  13
HETATM   13  C   UNK N   1      35.631  10.014  21.101  0.00  0.00     0.113 C 
HETATM   14  N   UNK N   1      34.689  10.506  21.829  0.00  0.00    -0.288 N 
HETATM   15  C   UNK N   1      33.763   9.792  22.514  0.00  0.00     0.365 C 
ATOM     16  HN  UNK N   1      34.637  11.522  21.897  1.00  0.00     0.172 HD
HETATM   17  O   UNK N   1      33.649   8.580  22.340  0.00  0.00    -0.238 OA
BRANCH  13  18
HETATM   18  N   UNK N   1      35.875   8.611  21.096  0.00  0.00    -0.385 N 
HETATM   19  H   UNK N   1      35.514   7.695  21.117  0.00  0.00     0.157 HD
HETATM   20  H   UNK N   1      36.854   8.510  21.051  0.00  0.00     0.157 HD
ENDBRANCH  13  18
BRANCH  15  21
HETATM   21  O   UNK N   1      32.810  10.466  23.189  0.00  0.00    -0.309 OA
HETATM   22  C   UNK N   1      32.785  10.517  24.561  0.00  0.00     0.215 C 
ENDBRANCH  15  21
ENDBRANCH  10  13
ENDBRANCH   4   7
BRANCH   1  23
HETATM   23  O   UNK N   1      34.850  14.175  12.538  0.00  0.00    -0.349 OA
BRANCH  23  24
HETATM   24  C   UNK N   1      35.585  14.550  11.458  0.00  0.00     0.200 C 
BRANCH  24  25
HETATM   25  C   UNK N   1      34.920  13.887  10.274  0.00  0.00     0.109 C 
HETATM   26  N   UNK N   1      33.521  14.196  10.316  0.00  0.00    -0.354 N 
HETATM   27  C   UNK N   1      33.201  15.119   9.415  0.00  0.00     0.222 C 
HETATM   28  H   UNK N   1      32.878  13.776  10.932  0.00  0.00     0.162 HD
HETATM   29  O   UNK N   1      32.073  15.576   9.331  0.00  0.00    -0.273 OA
HETATM   30  C   UNK N   1      34.348  15.581   8.598  0.00  0.00     0.089 C 
HETATM   31  C   UNK N   1      35.415  14.544   8.994  0.00  0.00     0.041 C 
BRANCH  30  32
HETATM   32  C   UNK N   1      34.730  16.993   9.058  0.00  0.00     0.125 C 
BRANCH  32  33
HETATM   33  C   UNK N   1      34.617  18.006   7.960  0.00  0.00     0.259 C 
HETATM   34  O   UNK N   1      34.672  19.196   8.238  0.00  0.00    -0.265 OA
BRANCH  33  35
HETATM   35  O   UNK N   1      34.519  17.597   6.672  0.00  0.00    -0.326 OA
HETATM   36  C   UNK N   1      33.337  17.656   5.972  0.00  0.00     0.213 C 
ENDBRANCH  33  35
ENDBRANCH  32  33
ENDBRANCH  30  32
ENDBRANCH  24  25
ENDBRANCH  23  24
ENDBRANCH   1  23
TORSDOF 10
ENDMDL
MODEL 5
REMARK VINA RESULT:      -7.7      6.148      9.526
REMARK  10 active torsions:
REMARK  status: ('A' for Active; 'I' for Inactive)
REMARK    1  A    between atoms: O_1  and  C_16 
REMARK    2  A    between atoms: O_1  and  C_18 
REMARK    3  A    between atoms: O_3  and  C_17 
REMARK    4  A    between atoms: O_5  and  C_32 
REMARK    5  A    between atoms: N_8  and  C_31 
REMARK       I    between atoms: N_9  and  C_32 
REMARK    6  A    between atoms: C_11  and  C_15 
REMARK    7  A    between atoms: C_12  and  C_16 
REMARK    8  A    between atoms: C_15  and  C_17 
REMARK    9  A    between atoms: C_21  and  C_25 
REMARK   10  A    between atoms: C_28  and  C_31 
ROOT
HETATM    1  C   UNK N   1      35.675  13.605  11.662  0.00  0.00     0.068 C 
HETATM    2  C   UNK N   1      36.228  12.318  11.849  0.00  0.00     0.037 C 
HETATM    3  C   UNK N   1      35.762  14.552  12.663  0.00  0.00     0.037 C 
HETATM    4  C   UNK N   1      36.674  12.891  14.153  0.00  0.00    -0.026 C 
HETATM    5  C   UNK N   1      36.724  11.956  13.112  0.00  0.00     0.015 C 
HETATM    6  C   UNK N   1      36.248  14.202  13.894  0.00  0.00     0.015 C 
ENDROOT
BRANCH   4   7
HETATM    7  C   UNK N   1      36.473  12.412  15.518  0.00  0.00    -0.026 C 
HETATM    8  C   UNK N   1      36.542  11.067  15.931  0.00  0.00     0.013 C 
HETATM    9  C   UNK N   1      36.068  10.718  17.215  0.00  0.00     0.016 C 
HETATM   10  C   UNK N   1      35.385  11.685  17.981  0.00  0.00     0.008 C 
HETATM   11  C   UNK N   1      35.323  12.993  17.542  0.00  0.00     0.016 C 
HETATM   12  C   UNK N   1      35.865  13.349  16.351  0.00  0.00     0.013 C 
BRANCH  10  13
HETATM   13  C   UNK N   1      35.040  11.559  19.374  0.00  0.00     0.113 C 
HETATM   14  N   UNK N   1      34.685  10.361  19.687  0.00  0.00    -0.288 N 
HETATM   15  C   UNK N   1      35.098   9.673  20.779  0.00  0.00     0.365 C 
ATOM     16  HN  UNK N   1      34.035   9.890  19.059  1.00  0.00     0.172 HD
HETATM   17  O   UNK N   1      36.012  10.099  21.482  0.00  0.00    -0.238 OA
BRANCH  13  18
HETATM   18  N   UNK N   1      35.803  12.343  20.287  0.00  0.00    -0.385 N 
HETATM   19  H   UNK N   1      35.848  13.111  20.900  0.00  0.00     0.157 HD
HETATM   20  H   UNK N   1      36.693  11.922  20.321  0.00  0.00     0.157 HD
ENDBRANCH  13  18
BRANCH  15  21
HETATM   21  O   UNK N   1      34.670   8.403  20.932  0.00  0.00    -0.309 OA
HETATM   22  C   UNK N   1      34.247   7.642  19.871  0.00  0.00     0.215 C 
ENDBRANCH  15  21
ENDBRANCH  10  13
ENDBRANCH   4   7
BRANCH   1  23
HETATM   23  O   UNK N   1      34.982  13.954  10.570  0.00  0.00    -0.349 OA
BRANCH  23  24
HETATM   24  C   UNK N   1      35.292  14.979   9.732  0.00  0.00     0.200 C 
BRANCH  24  25
HETATM   25  C   UNK N   1      34.220  16.018   9.960  0.00  0.00     0.109 C 
HETATM   26  N   UNK N   1      34.816  17.314   9.824  0.00  0.00    -0.354 N 
HETATM   27  C   UNK N   1      34.493  17.878   8.665  0.00  0.00     0.222 C 
HETATM   28  H   UNK N   1      35.390  17.734  10.505  0.00  0.00     0.162 HD
HETATM   29  O   UNK N   1      34.954  18.954   8.319  0.00  0.00    -0.273 OA
HETATM   30  C   UNK N   1      33.603  17.045   7.822  0.00  0.00     0.089 C 
HETATM   31  C   UNK N   1      33.208  15.946   8.825  0.00  0.00     0.041 C 
BRANCH  30  32
HETATM   32  C   UNK N   1      34.427  16.483   6.658  0.00  0.00     0.125 C 
BRANCH  32  33
HETATM   33  C   UNK N   1      33.851  16.836   5.321  0.00  0.00     0.259 C 
HETATM   34  O   UNK N   1      33.488  17.985   5.112  0.00  0.00    -0.265 OA
BRANCH  33  35
HETATM   35  O   UNK N   1      33.797  15.901   4.342  0.00  0.00    -0.326 OA
HETATM   36  C   UNK N   1      33.099  16.102   3.174  0.00  0.00     0.213 C 
ENDBRANCH  33  35
ENDBRANCH  32  33
ENDBRANCH  30  32
ENDBRANCH  24  25
ENDBRANCH  23  24
ENDBRANCH   1  23
TORSDOF 10
ENDMDL
MODEL 6
REMARK VINA RESULT:      -7.6      6.647     12.549
REMARK  10 active torsions:
REMARK  status: ('A' for Active; 'I' for Inactive)
REMARK    1  A    between atoms: O_1  and  C_16 
REMARK    2  A    between atoms: O_1  and  C_18 
REMARK    3  A    between atoms: O_3  and  C_17 
REMARK    4  A    between atoms: O_5  and  C_32 
REMARK    5  A    between atoms: N_8  and  C_31 
REMARK       I    between atoms: N_9  and  C_32 
REMARK    6  A    between atoms: C_11  and  C_15 
REMARK    7  A    between atoms: C_12  and  C_16 
REMARK    8  A    between atoms: C_15  and  C_17 
REMARK    9  A    between atoms: C_21  and  C_25 
REMARK   10  A    between atoms: C_28  and  C_31 
ROOT
HETATM    1  C   UNK N   1      35.107  12.634  15.044  0.00  0.00     0.068 C 
HETATM    2  C   UNK N   1      35.754  11.378  15.029  0.00  0.00     0.037 C 
HETATM    3  C   UNK N   1      34.815  13.252  16.243  0.00  0.00     0.037 C 
HETATM    4  C   UNK N   1      35.522  11.277  17.432  0.00  0.00    -0.026 C 
HETATM    5  C   UNK N   1      35.954  10.689  16.236  0.00  0.00     0.015 C 
HETATM    6  C   UNK N   1      35.012  12.584  17.422  0.00  0.00     0.015 C 
ENDROOT
BRANCH   4   7
HETATM    7  C   UNK N   1      35.042  10.412  18.506  0.00  0.00    -0.026 C 
HETATM    8  C   UNK N   1      34.277   9.242  18.334  0.00  0.00     0.013 C 
HETATM    9  C   UNK N   1      33.661   8.653  19.460  0.00  0.00     0.016 C 
HETATM   10  C   UNK N   1      33.682   9.339  20.692  0.00  0.00     0.008 C 
HETATM   11  C   UNK N   1      34.431  10.492  20.825  0.00  0.00     0.016 C 
HETATM   12  C   UNK N   1      35.104  11.005  19.765  0.00  0.00     0.013 C 
BRANCH  10  13
HETATM   13  C   UNK N   1      33.300   8.786  21.966  0.00  0.00     0.113 C 
HETATM   14  N   UNK N   1      33.834   9.415  22.955  0.00  0.00    -0.288 N 
HETATM   15  C   UNK N   1      33.193   9.808  24.083  0.00  0.00     0.365 C 
ATOM     16  HN  UNK N   1      34.827   9.636  22.884  1.00  0.00     0.172 HD
HETATM   17  O   UNK N   1      31.968   9.739  24.166  0.00  0.00    -0.238 OA
BRANCH  13  18
HETATM   18  N   UNK N   1      31.969   8.291  22.067  0.00  0.00    -0.385 N 
HETATM   19  H   UNK N   1      31.079   8.184  21.659  0.00  0.00     0.157 HD
HETATM   20  H   UNK N   1      31.913   7.853  22.947  0.00  0.00     0.157 HD
ENDBRANCH  13  18
BRANCH  15  21
HETATM   21  O   UNK N   1      33.890  10.505  25.003  0.00  0.00    -0.309 OA
HETATM   22  C   UNK N   1      33.291  11.061  26.107  0.00  0.00     0.215 C 
ENDBRANCH  15  21
ENDBRANCH  10  13
ENDBRANCH   4   7
BRANCH   1  23
HETATM   23  O   UNK N   1      34.676  13.251  13.936  0.00  0.00    -0.349 OA
BRANCH  23  24
HETATM   24  C   UNK N   1      35.214  13.114  12.695  0.00  0.00     0.200 C 
BRANCH  24  25
HETATM   25  C   UNK N   1      36.465  13.961  12.708  0.00  0.00     0.109 C 
HETATM   26  N   UNK N   1      37.276  13.579  11.590  0.00  0.00    -0.354 N 
HETATM   27  C   UNK N   1      37.211  14.478  10.613  0.00  0.00     0.222 C 
HETATM   28  H   UNK N   1      37.815  12.756  11.551  0.00  0.00     0.162 HD
HETATM   29  O   UNK N   1      37.772  14.311   9.543  0.00  0.00    -0.273 OA
HETATM   30  C   UNK N   1      36.341  15.637  10.924  0.00  0.00     0.089 C 
HETATM   31  C   UNK N   1      36.088  15.408  12.425  0.00  0.00     0.041 C 
BRANCH  30  32
HETATM   32  C   UNK N   1      35.052  15.505  10.104  0.00  0.00     0.125 C 
BRANCH  32  33
HETATM   33  C   UNK N   1      34.565  16.822   9.581  0.00  0.00     0.259 C 
HETATM   34  O   UNK N   1      35.281  17.808   9.686  0.00  0.00    -0.265 OA
BRANCH  33  35
HETATM   35  O   UNK N   1      33.371  16.895   8.944  0.00  0.00    -0.326 OA
HETATM   36  C   UNK N   1      33.183  17.675   7.828  0.00  0.00     0.213 C 
ENDBRANCH  33  35
ENDBRANCH  32  33
ENDBRANCH  30  32
ENDBRANCH  24  25
ENDBRANCH  23  24
ENDBRANCH   1  23
TORSDOF 10
ENDMDL
MODEL 7
REMARK VINA RESULT:      -7.5      2.112      3.732
REMARK  10 active torsions:
REMARK  status: ('A' for Active; 'I' for Inactive)
REMARK    1  A    between atoms: O_1  and  C_16 
REMARK    2  A    between atoms: O_1  and  C_18 
REMARK    3  A    between atoms: O_3  and  C_17 
REMARK    4  A    between atoms: O_5  and  C_32 
REMARK    5  A    between atoms: N_8  and  C_31 
REMARK       I    between atoms: N_9  and  C_32 
REMARK    6  A    between atoms: C_11  and  C_15 
REMARK    7  A    between atoms: C_12  and  C_16 
REMARK    8  A    between atoms: C_15  and  C_17 
REMARK    9  A    between atoms: C_21  and  C_25 
REMARK   10  A    between atoms: C_28  and  C_31 
ROOT
HETATM    1  C   UNK N   1      26.063  16.498   4.910  0.00  0.00     0.068 C 
HETATM    2  C   UNK N   1      27.097  15.610   4.536  0.00  0.00     0.037 C 
HETATM    3  C   UNK N   1      26.366  17.719   5.477  0.00  0.00     0.037 C 
HETATM    4  C   UNK N   1      28.690  17.089   5.591  0.00  0.00    -0.026 C 
HETATM    5  C   UNK N   1      28.423  15.906   4.890  0.00  0.00     0.015 C 
HETATM    6  C   UNK N   1      27.658  18.011   5.821  0.00  0.00     0.015 C 
ENDROOT
BRANCH   4   7
HETATM    7  C   UNK N   1      29.784  17.100   6.559  0.00  0.00    -0.026 C 
HETATM    8  C   UNK N   1      29.719  17.637   7.860  0.00  0.00     0.013 C 
HETATM    9  C   UNK N   1      30.916  17.820   8.587  0.00  0.00     0.016 C 
HETATM   10  C   UNK N   1      32.152  17.623   7.936  0.00  0.00     0.008 C 
HETATM   11  C   UNK N   1      32.181  17.108   6.655  0.00  0.00     0.016 C 
HETATM   12  C   UNK N   1      31.029  16.840   5.991  0.00  0.00     0.013 C 
BRANCH  10  13
HETATM   13  C   UNK N   1      33.438  17.553   8.582  0.00  0.00     0.113 C 
HETATM   14  N   UNK N   1      33.435  16.760   9.597  0.00  0.00    -0.288 N 
HETATM   15  C   UNK N   1      34.382  15.831   9.878  0.00  0.00     0.365 C 
ATOM     16  HN  UNK N   1      32.653  16.838  10.246  1.00  0.00     0.172 HD
HETATM   17  O   UNK N   1      35.255  15.555   9.057  0.00  0.00    -0.238 OA
BRANCH  13  18
HETATM   18  N   UNK N   1      34.577  17.625   7.730  0.00  0.00    -0.385 N 
HETATM   19  H   UNK N   1      35.515  17.380   7.560  0.00  0.00     0.157 HD
HETATM   20  H   UNK N   1      34.299  18.168   6.957  0.00  0.00     0.157 HD
ENDBRANCH  13  18
BRANCH  15  21
HETATM   21  O   UNK N   1      34.201  15.043  10.957  0.00  0.00    -0.309 OA
HETATM   22  C   UNK N   1      35.110  14.079  11.319  0.00  0.00     0.215 C 
ENDBRANCH  15  21
ENDBRANCH  10  13
ENDBRANCH   4   7
BRANCH   1  23
HETATM   23  O   UNK N   1      24.762  16.191   4.815  0.00  0.00    -0.349 OA
BRANCH  23  24
HETATM   24  C   UNK N   1      23.839  16.353   5.799  0.00  0.00     0.200 C 
BRANCH  24  25
HETATM   25  C   UNK N   1      22.503  16.364   5.094  0.00  0.00     0.109 C 
HETATM   26  N   UNK N   1      21.669  17.340   5.730  0.00  0.00    -0.354 N 
HETATM   27  C   UNK N   1      21.566  18.443   4.995  0.00  0.00     0.222 C 
HETATM   28  H   UNK N   1      21.226  17.210   6.600  0.00  0.00     0.162 HD
HETATM   29  O   UNK N   1      20.959  19.426   5.387  0.00  0.00    -0.273 OA
HETATM   30  C   UNK N   1      22.317  18.384   3.718  0.00  0.00     0.089 C 
HETATM   31  C   UNK N   1      22.692  16.891   3.679  0.00  0.00     0.041 C 
BRANCH  30  32
HETATM   32  C   UNK N   1      23.555  19.278   3.845  0.00  0.00     0.125 C 
BRANCH  32  33
HETATM   33  C   UNK N   1      23.506  20.463   2.929  0.00  0.00     0.259 C 
HETATM   34  O   UNK N   1      22.437  21.026   2.738  0.00  0.00    -0.265 OA
BRANCH  33  35
HETATM   35  O   UNK N   1      24.649  20.935   2.375  0.00  0.00    -0.326 OA
HETATM   36  C   UNK N   1      25.891  20.526   2.798  0.00  0.00     0.213 C 
ENDBRANCH  33  35
ENDBRANCH  32  33
ENDBRANCH  30  32
ENDBRANCH  24  25
ENDBRANCH  23  24
ENDBRANCH   1  23
TORSDOF 10
ENDMDL
MODEL 8
REMARK VINA RESULT:      -7.5      1.606      2.176
REMARK  10 active torsions:
REMARK  status: ('A' for Active; 'I' for Inactive)
REMARK    1  A    between atoms: O_1  and  C_16 
REMARK    2  A    between atoms: O_1  and  C_18 
REMARK    3  A    between atoms: O_3  and  C_17 
REMARK    4  A    between atoms: O_5  and  C_32 
REMARK    5  A    between atoms: N_8  and  C_31 
REMARK       I    between atoms: N_9  and  C_32 
REMARK    6  A    between atoms: C_11  and  C_15 
REMARK    7  A    between atoms: C_12  and  C_16 
REMARK    8  A    between atoms: C_15  and  C_17 
REMARK    9  A    between atoms: C_21  and  C_25 
REMARK   10  A    between atoms: C_28  and  C_31 
ROOT
HETATM    1  C   UNK N   1      30.412  17.129   6.118  0.00  0.00     0.068 C 
HETATM    2  C   UNK N   1      31.621  16.555   5.664  0.00  0.00     0.037 C 
HETATM    3  C   UNK N   1      30.366  17.790   7.329  0.00  0.00     0.037 C 
HETATM    4  C   UNK N   1      32.620  17.076   7.801  0.00  0.00    -0.026 C 
HETATM    5  C   UNK N   1      32.733  16.520   6.520  0.00  0.00     0.015 C 
HETATM    6  C   UNK N   1      31.451  17.759   8.164  0.00  0.00     0.015 C 
ENDROOT
BRANCH   4   7
HETATM    7  C   UNK N   1      33.373  16.471   8.897  0.00  0.00    -0.026 C 
HETATM    8  C   UNK N   1      34.549  16.997   9.468  0.00  0.00     0.013 C 
HETATM    9  C   UNK N   1      35.315  16.184  10.332  0.00  0.00     0.016 C 
HETATM   10  C   UNK N   1      34.981  14.820  10.467  0.00  0.00     0.008 C 
HETATM   11  C   UNK N   1      33.828  14.333   9.884  0.00  0.00     0.016 C 
HETATM   12  C   UNK N   1      33.038  15.140   9.133  0.00  0.00     0.013 C 
BRANCH  10  13
HETATM   13  C   UNK N   1      35.513  13.921  11.460  0.00  0.00     0.113 C 
HETATM   14  N   UNK N   1      36.200  14.534  12.360  0.00  0.00    -0.288 N 
HETATM   15  C   UNK N   1      36.114  14.331  13.698  0.00  0.00     0.365 C 
ATOM     16  HN  UNK N   1      36.869  15.233  12.038  1.00  0.00     0.172 HD
HETATM   17  O   UNK N   1      35.213  13.641  14.171  0.00  0.00    -0.238 OA
BRANCH  13  18
HETATM   18  N   UNK N   1      34.689  12.815  11.816  0.00  0.00    -0.385 N 
HETATM   19  H   UNK N   1      34.355  11.914  11.604  0.00  0.00     0.157 HD
HETATM   20  H   UNK N   1      34.256  13.067  12.664  0.00  0.00     0.157 HD
ENDBRANCH  13  18
BRANCH  15  21
HETATM   21  O   UNK N   1      36.872  15.096  14.509  0.00  0.00    -0.309 OA
HETATM   22  C   UNK N   1      37.149  14.735  15.805  0.00  0.00     0.215 C 
ENDBRANCH  15  21
ENDBRANCH  10  13
ENDBRANCH   4   7
BRANCH   1  23
HETATM   23  O   UNK N   1      29.250  17.006   5.463  0.00  0.00    -0.349 OA
BRANCH  23  24
HETATM   24  C   UNK N   1      28.473  18.034   5.030  0.00  0.00     0.200 C 
BRANCH  24  25
HETATM   25  C   UNK N   1      27.336  18.120   6.021  0.00  0.00     0.109 C 
HETATM   26  N   UNK N   1      27.377  19.411   6.639  0.00  0.00    -0.354 N 
HETATM   27  C   UNK N   1      26.429  20.209   6.158  0.00  0.00     0.222 C 
HETATM   28  H   UNK N   1      28.023  19.674   7.334  0.00  0.00     0.162 HD
HETATM   29  O   UNK N   1      26.333  21.377   6.499  0.00  0.00    -0.273 OA
HETATM   30  C   UNK N   1      25.574  19.571   5.129  0.00  0.00     0.089 C 
HETATM   31  C   UNK N   1      26.016  18.102   5.266  0.00  0.00     0.041 C 
BRANCH  30  32
HETATM   32  C   UNK N   1      25.951  20.152   3.761  0.00  0.00     0.125 C 
BRANCH  32  33
HETATM   33  C   UNK N   1      24.753  20.424   2.902  0.00  0.00     0.259 C 
HETATM   34  O   UNK N   1      24.917  20.714   1.726  0.00  0.00    -0.265 OA
BRANCH  33  35
HETATM   35  O   UNK N   1      23.508  20.285   3.417  0.00  0.00    -0.326 OA
HETATM   36  C   UNK N   1      22.376  20.487   2.663  0.00  0.00     0.213 C 
ENDBRANCH  33  35
ENDBRANCH  32  33
ENDBRANCH  30  32
ENDBRANCH  24  25
ENDBRANCH  23  24
ENDBRANCH   1  23
TORSDOF 10
ENDMDL
MODEL 9
REMARK VINA RESULT:      -7.3      4.913      9.722
REMARK  10 active torsions:
REMARK  status: ('A' for Active; 'I' for Inactive)
REMARK    1  A    between atoms: O_1  and  C_16 
REMARK    2  A    between atoms: O_1  and  C_18 
REMARK    3  A    between atoms: O_3  and  C_17 
REMARK    4  A    between atoms: O_5  and  C_32 
REMARK    5  A    between atoms: N_8  and  C_31 
REMARK       I    between atoms: N_9  and  C_32 
REMARK    6  A    between atoms: C_11  and  C_15 
REMARK    7  A    between atoms: C_12  and  C_16 
REMARK    8  A    between atoms: C_15  and  C_17 
REMARK    9  A    between atoms: C_21  and  C_25 
REMARK   10  A    between atoms: C_28  and  C_31 
ROOT
HETATM    1  C   UNK N   1      35.639  14.228  12.832  0.00  0.00     0.068 C 
HETATM    2  C   UNK N   1      35.039  12.951  12.910  0.00  0.00     0.037 C 
HETATM    3  C   UNK N   1      36.476  14.666  13.838  0.00  0.00     0.037 C 
HETATM    4  C   UNK N   1      35.912  12.724  15.151  0.00  0.00    -0.026 C 
HETATM    5  C   UNK N   1      35.171  12.197  14.086  0.00  0.00     0.015 C 
HETATM    6  C   UNK N   1      36.608  13.931  14.986  0.00  0.00     0.015 C 
ENDROOT
BRANCH   4   7
HETATM    7  C   UNK N   1      35.507  12.402  16.517  0.00  0.00    -0.026 C 
HETATM    8  C   UNK N   1      35.239  13.340  17.532  0.00  0.00     0.013 C 
HETATM    9  C   UNK N   1      35.117  12.892  18.866  0.00  0.00     0.016 C 
HETATM   10  C   UNK N   1      35.436  11.553  19.172  0.00  0.00     0.008 C 
HETATM   11  C   UNK N   1      35.708  10.660  18.153  0.00  0.00     0.016 C 
HETATM   12  C   UNK N   1      35.728  11.071  16.861  0.00  0.00     0.013 C 
BRANCH  10  13
HETATM   13  C   UNK N   1      35.157  10.889  20.420  0.00  0.00     0.113 C 
HETATM   14  N   UNK N   1      34.195  10.039  20.320  0.00  0.00    -0.288 N 
HETATM   15  C   UNK N   1      34.194   8.780  20.825  0.00  0.00     0.365 C 
ATOM     16  HN  UNK N   1      33.359  10.339  19.820  1.00  0.00     0.172 HD
HETATM   17  O   UNK N   1      35.224   8.286  21.281  0.00  0.00    -0.238 OA
BRANCH  13  18
HETATM   18  N   UNK N   1      36.280  10.607  21.250  0.00  0.00    -0.385 N 
HETATM   19  H   UNK N   1      37.201  10.268  21.331  0.00  0.00     0.157 HD
HETATM   20  H   UNK N   1      36.014  10.875  22.159  0.00  0.00     0.157 HD
ENDBRANCH  13  18
BRANCH  15  21
HETATM   21  O   UNK N   1      33.122   7.998  20.587  0.00  0.00    -0.309 OA
HETATM   22  C   UNK N   1      31.963   8.493  20.042  0.00  0.00     0.215 C 
ENDBRANCH  15  21
ENDBRANCH  10  13
ENDBRANCH   4   7
BRANCH   1  23
HETATM   23  O   UNK N   1      35.381  15.102  11.850  0.00  0.00    -0.349 OA
BRANCH  23  24
HETATM   24  C   UNK N   1      34.685  14.832  10.714  0.00  0.00     0.200 C 
BRANCH  24  25
HETATM   25  C   UNK N   1      35.360  15.640   9.631  0.00  0.00     0.109 C 
HETATM   26  N   UNK N   1      35.189  14.953   8.386  0.00  0.00    -0.354 N 
HETATM   27  C   UNK N   1      34.266  15.539   7.631  0.00  0.00     0.222 C 
HETATM   28  H   UNK N   1      35.694  14.149   8.123  0.00  0.00     0.162 HD
HETATM   29  O   UNK N   1      33.916  15.071   6.559  0.00  0.00    -0.273 OA
HETATM   30  C   UNK N   1      33.663  16.743   8.250  0.00  0.00     0.089 C 
HETATM   31  C   UNK N   1      34.608  16.950   9.447  0.00  0.00     0.041 C 
BRANCH  30  32
HETATM   32  C   UNK N   1      32.241  16.392   8.702  0.00  0.00     0.125 C 
BRANCH  32  33
HETATM   33  C   UNK N   1      31.216  17.349   8.173  0.00  0.00     0.259 C 
HETATM   34  O   UNK N   1      30.957  17.346   6.978  0.00  0.00    -0.265 OA
BRANCH  33  35
HETATM   35  O   UNK N   1      30.544  18.158   9.028  0.00  0.00    -0.326 OA
HETATM   36  C   UNK N   1      29.257  18.575   8.783  0.00  0.00     0.213 C 
ENDBRANCH  33  35
ENDBRANCH  32  33
ENDBRANCH  30  32
ENDBRANCH  24  25
ENDBRANCH  23  24
ENDBRANCH   1  23
TORSDOF 10
ENDMDL
