MODEL 1
REMARK VINA RESULT:      -8.2      0.000      0.000
REMARK  30 active torsions:
REMARK  status: ('A' for Active; 'I' for Inactive)
REMARK    1  A    between atoms: C_43  and  O_5 
REMARK    2  A    between atoms: C_46  and  O_5 
REMARK    3  A    between atoms: C_41  and  O_6 
REMARK    4  A    between atoms: C_47  and  O_8 
REMARK    5  A    between atoms: C_48  and  O_9 
REMARK    6  A    between atoms: O_9  and  C_61 
REMARK    7  A    between atoms: C_50  and  O_10 
REMARK    8  A    between atoms: C_59  and  O_12 
REMARK    9  A    between atoms: C_65  and  O_12 
REMARK   10  A    between atoms: C_54  and  O_13 
REMARK   11  A    between atoms: O_14  and  C_55 
REMARK   12  A    between atoms: O_21  and  C_103 
REMARK   13  A    between atoms: O_23  and  C_107 
REMARK   14  A    between atoms: C_111  and  O_24 
REMARK   15  A    between atoms: O_25  and  C_112 
REMARK   16  A    between atoms: O_26  and  C_115 
REMARK   17  A    between atoms: C_40  and  N_30 
REMARK   18  A    between atoms: N_30  and  C_52 
REMARK   19  A    between atoms: C_53  and  N_31 
REMARK   20  A    between atoms: C_113  and  N_37 
REMARK       I    between atoms: N_37  and  C_119 
REMARK       I    between atoms: N_38  and  C_118 
REMARK   21  A    between atoms: C_120  and  N_39 
REMARK   22  A    between atoms: C_51  and  C_55 
REMARK   23  A    between atoms: C_52  and  C_56 
REMARK   24  A    between atoms: C_71  and  C_78 
REMARK   25  A    between atoms: C_87  and  C_103 
REMARK   26  A    between atoms: C_99  and  C_114 
REMARK   27  A    between atoms: C_114  and  C_118 
REMARK   28  A    between atoms: C_119  and  C_120 
REMARK   29  A    between atoms: C_120  and  C_121 
REMARK   30  A    between atoms: C_121  and  C_122 
ROOT
HETATM    1 Cl   UNK N   1      24.249  13.033   6.595  0.00  0.00    -0.114 Cl
HETATM    2 Cl   UNK N   1      22.656   5.773  -0.108  0.00  0.00    -0.081 Cl
HETATM    3  O   UNK N   1      23.909  10.963   3.644  0.00  0.00    -0.310 OA
HETATM    4  O   UNK N   1      23.140   8.737  -0.518  0.00  0.00    -0.306 OA
HETATM    5  O   UNK N   1      30.362  15.946   5.102  0.00  0.00    -0.271 OA
HETATM    6  O   UNK N   1      28.940  14.300   1.768  0.00  0.00    -0.271 OA
HETATM    7  O   UNK N   1      28.694   8.817   2.939  0.00  0.00    -0.271 OA
HETATM    8  O   UNK N   1      26.826   6.980  -0.342  0.00  0.00    -0.271 OA
HETATM    9  O   UNK N   1      26.419   5.157  -2.246  0.00  0.00    -0.271 OA
HETATM   10  N   UNK N   1      29.248  12.951   3.544  0.00  0.00    -0.343 N 
HETATM   11  N   UNK N   1      31.693  14.381   4.254  0.00  0.00    -0.341 N 
HETATM   12  N   UNK N   1      29.167  10.796   2.113  0.00  0.00    -0.342 N 
HETATM   13  N   UNK N   1      28.028   8.885  -0.269  0.00  0.00    -0.342 N 
HETATM   14  N   UNK N   1      27.578   6.840  -3.188  0.00  0.00    -0.345 N 
HETATM   15  C   UNK N   1      23.489   9.776   1.567  0.00  0.00     0.139 A 
HETATM   16  C   UNK N   1      27.801  14.591   4.543  0.00  0.00     0.189 C 
HETATM   17  C   UNK N   1      29.213  13.947   4.598  0.00  0.00     0.210 C 
HETATM   18  C   UNK N   1      24.345  10.461   2.444  0.00  0.00     0.112 A 
HETATM   19  C   UNK N   1      23.953   9.389   0.300  0.00  0.00     0.113 A 
HETATM   20  C   UNK N   1      26.710  13.562   4.699  0.00  0.00    -0.029 C 
HETATM   21  C   UNK N   1      25.697  10.594   2.069  0.00  0.00     0.050 A 
HETATM   22  C   UNK N   1      26.190  10.088   0.879  0.00  0.00    -0.021 A 
HETATM   23  C   UNK N   1      25.297   9.549  -0.029  0.00  0.00     0.050 A 
HETATM   24  C   UNK N   1      30.449  14.834   4.607  0.00  0.00     0.244 C 
HETATM   25  C   UNK N   1      27.454   9.295   1.004  0.00  0.00     0.210 C 
HETATM   26  C   UNK N   1      25.374  13.947   4.626  0.00  0.00     0.010 C 
HETATM   27  C   UNK N   1      27.017  12.198   4.897  0.00  0.00     0.012 C 
HETATM   28  C   UNK N   1      24.725  11.676   4.474  0.00  0.00     0.075 C 
HETATM   29  C   UNK N   1      24.387  12.989   4.838  0.00  0.00     0.163 C 
HETATM   30  C   UNK N   1      26.035  11.244   4.706  0.00  0.00     0.035 C 
HETATM   31  C   UNK N   1      29.068  13.166   2.208  0.00  0.00     0.245 C 
HETATM   32  C   UNK N   1      29.092  11.964   1.267  0.00  0.00     0.210 C 
HETATM   33  C   UNK N   1      28.473   9.644   2.065  0.00  0.00     0.246 C 
HETATM   34  C   UNK N   1      32.028  13.071   3.699  0.00  0.00     0.217 C 
HETATM   35  C   UNK N   1      23.447   8.002  -1.586  0.00  0.00     0.098 A 
HETATM   36  C   UNK N   1      30.373  11.899   0.503  0.00  0.00    -0.025 A 
HETATM   37  C   UNK N   1      33.456  13.020   3.180  0.00  0.00    -0.009 A 
HETATM   38  C   UNK N   1      27.687   7.686  -0.848  0.00  0.00     0.241 C 
HETATM   39  C   UNK N   1      31.493  12.312   1.193  0.00  0.00     0.025 A 
HETATM   40  C   UNK N   1      33.839  12.423   1.911  0.00  0.00     0.019 A 
HETATM   41  C   UNK N   1      32.777  11.868   0.963  0.00  0.00     0.011 A 
HETATM   42  C   UNK N   1      28.416   7.166  -2.056  0.00  0.00     0.185 C 
HETATM   43  C   UNK N   1      23.199   6.621  -1.546  0.00  0.00     0.068 A 
HETATM   44  C   UNK N   1      23.970   8.601  -2.737  0.00  0.00     0.040 A 
HETATM   45  C   UNK N   1      30.531  10.949  -0.504  0.00  0.00     0.012 A 
HETATM   46  C   UNK N   1      34.438  13.529   4.036  0.00  0.00     0.047 A 
HETATM   47  C   UNK N   1      23.994   6.435  -3.791  0.00  0.00    -0.025 A 
HETATM   48  C   UNK N   1      32.928  10.894  -0.074  0.00  0.00     0.076 A 
HETATM   49  C   UNK N   1      31.808  10.481  -0.816  0.00  0.00     0.038 A 
HETATM   50  C   UNK N   1      23.471   5.858  -2.643  0.00  0.00     0.036 A 
HETATM   51  C   UNK N   1      24.266   7.808  -3.840  0.00  0.00     0.012 A 
HETATM   52  C   UNK N   1      24.559   5.524  -4.800  0.00  0.00     0.183 C 
HETATM   53  C   UNK N   1      35.230  12.397   1.601  0.00  0.00     0.080 A 
HETATM   54  C   UNK N   1      26.079   5.439  -4.581  0.00  0.00     0.210 C 
HETATM   55  C   UNK N   1      35.775  13.495   3.691  0.00  0.00     0.069 A 
HETATM   56  C   UNK N   1      26.679   5.820  -3.239  0.00  0.00     0.244 C 
HETATM   57  C   UNK N   1      36.166  12.930   2.487  0.00  0.00     0.074 A 
HETATM   58  H   UNK N   1      29.421  12.023   3.820  0.00  0.00     0.163 HD
HETATM   59  H   UNK N   1      32.442  15.004   4.388  0.00  0.00     0.163 HD
HETATM   60  H   UNK N   1      29.830  10.851   2.838  0.00  0.00     0.163 HD
HETATM   61  H   UNK N   1      28.672   9.476  -0.723  0.00  0.00     0.163 HD
HETATM   62  H   UNK N   1      27.665   7.404  -3.990  0.00  0.00     0.163 HD
ENDROOT
BRANCH  15  63
HETATM   63  O   UNK N   1      22.223   9.446   1.998  0.00  0.00    -0.312 OA
BRANCH  63  64
HETATM   64  C   UNK N   1      21.757   9.157   3.277  0.00  0.00     0.298 C 
HETATM   65  O   UNK N   1      21.863   7.800   3.657  0.00  0.00    -0.348 OA
HETATM   66  C   UNK N   1      21.195   7.473   4.867  0.00  0.00     0.179 C 
HETATM   67  C   UNK N   1      19.775   8.066   5.016  0.00  0.00     0.180 C 
HETATM   68  C   UNK N   1      19.790   9.559   4.809  0.00  0.00     0.183 C 
HETATM   69  C   UNK N   1      20.365   9.779   3.424  0.00  0.00     0.211 C 
BRANCH  66  70
HETATM   70  C   UNK N   1      22.115   7.625   6.063  0.00  0.00     0.198 C 
BRANCH  70  71
HETATM   71  O   UNK N   1      22.096   6.448   6.813  0.00  0.00    -0.398 OA
HETATM   72  H   UNK N   1      22.227   6.463   7.774  0.00  0.00     0.209 HD
ENDBRANCH  70  71
ENDBRANCH  66  70
BRANCH  67  73
HETATM   73  O   UNK N   1      19.205   7.760   6.253  0.00  0.00    -0.390 OA
HETATM   74  H   UNK N   1      19.656   7.262   6.952  0.00  0.00     0.210 HD
ENDBRANCH  67  73
BRANCH  68  75
HETATM   75  O   UNK N   1      20.575  10.175   5.791  0.00  0.00    -0.390 OA
HETATM   76  H   UNK N   1      20.363  10.368   6.718  0.00  0.00     0.210 HD
ENDBRANCH  68  75
BRANCH  69  77
HETATM   77  O   UNK N   1      20.367  11.139   3.068  0.00  0.00    -0.348 OA
BRANCH  77  78
HETATM   78  C   UNK N   1      19.064  11.489   2.681  0.00  0.00     0.263 C 
HETATM   79  O   UNK N   1      18.796  10.915   1.418  0.00  0.00    -0.354 OA
HETATM   80  C   UNK N   1      17.688  11.579   0.891  0.00  0.00     0.151 C 
HETATM   81  C   UNK N   1      18.094  12.984   0.428  0.00  0.00     0.174 C 
HETATM   82  C   UNK N   1      17.050  10.769  -0.212  0.00  0.00     0.042 C 
HETATM   83  C   UNK N   1      19.199  13.570   1.371  0.00  0.00     0.055 C 
HETATM   84  C   UNK N   1      18.943  13.024   2.747  0.00  0.00     0.093 C 
HETATM   85  C   UNK N   1      20.608  13.143   0.943  0.00  0.00     0.041 C 
BRANCH  81  86
HETATM   86  O   UNK N   1      16.940  13.772   0.418  0.00  0.00    -0.391 OA
HETATM   87  H   UNK N   1      16.391  14.548   0.222  0.00  0.00     0.210 HD
ENDBRANCH  81  86
BRANCH  83  88
HETATM   88  N   UNK N   1      19.190  15.015   1.483  0.00  0.00    -0.406 N 
HETATM   89  H   UNK N   1      18.360  15.553   1.730  0.00  0.00     0.154 HD
BRANCH  88  90
HETATM   90  C   UNK N   1      20.476  15.622   1.208  0.00  0.00     0.153 C 
BRANCH  90  91
HETATM   91  C   UNK N   1      21.062  16.486   2.266  0.00  0.00    -0.041 C 
HETATM   92  C   UNK N   1      22.191  15.929   2.864  0.00  0.00     0.009 C 
HETATM   93  C   UNK N   1      22.214  15.751   4.239  0.00  0.00     0.013 C 
HETATM   94  C   UNK N   1      21.108  16.148   5.001  0.00  0.00    -0.026 C 
HETATM   95  C   UNK N   1      20.105  16.924   4.418  0.00  0.00     0.013 C 
HETATM   96  C   UNK N   1      20.094  17.100   3.053  0.00  0.00     0.009 C 
BRANCH  94  97
HETATM   97  C   UNK N   1      20.831  15.488   6.281  0.00  0.00    -0.026 A 
HETATM   98  C   UNK N   1      20.781  16.234   7.467  0.00  0.00     0.014 A 
HETATM   99  C   UNK N   1      20.694  15.585   8.699  0.00  0.00     0.024 A 
HETATM  100  C   UNK N   1      20.688  14.188   8.754  0.00  0.00     0.034 A 
HETATM  101 Cl   UNK N   1      20.564  13.377  10.294  0.00  0.00    -0.084 Cl
HETATM  102  C   UNK N   1      20.764  13.438   7.580  0.00  0.00     0.024 A 
HETATM  103  C   UNK N   1      20.843  14.085   6.350  0.00  0.00     0.014 A 
ENDBRANCH  94  97
ENDBRANCH  90  91
ENDBRANCH  88  90
ENDBRANCH  83  88
ENDBRANCH  77  78
ENDBRANCH  69  77
ENDBRANCH  63  64
ENDBRANCH  15  63
BRANCH  16 104
HETATM  104  O   UNK N   1      27.539  15.796   5.231  0.00  0.00    -0.349 OA
BRANCH 104 105
HETATM  105  C   UNK N   1      26.906  16.731   4.406  0.00  0.00     0.263 C 
HETATM  106  O   UNK N   1      25.810  17.239   5.139  0.00  0.00    -0.354 OA
HETATM  107  C   UNK N   1      25.337  18.377   4.486  0.00  0.00     0.151 C 
HETATM  108  C   UNK N   1      26.246  19.569   4.808  0.00  0.00     0.174 C 
HETATM  109  C   UNK N   1      23.898  18.643   4.874  0.00  0.00     0.042 C 
HETATM  110  C   UNK N   1      27.739  19.141   4.776  0.00  0.00     0.052 C 
HETATM  111  C   UNK N   1      27.919  17.839   3.978  0.00  0.00     0.093 C 
HETATM  112  C   UNK N   1      28.220  18.913   6.200  0.00  0.00     0.041 C 
BRANCH 108 113
HETATM  113  O   UNK N   1      25.971  20.596   3.901  0.00  0.00    -0.391 OA
HETATM  114  H   UNK N   1      25.445  20.839   3.124  0.00  0.00     0.210 HD
ENDBRANCH 108 113
BRANCH 110 115
HETATM  115  N   UNK N   1      28.562  20.185   4.188  0.00  0.00    -0.420 N 
HETATM  116  H   UNK N   1      29.400  20.069   3.617  0.00  0.00     0.150 HD
HETATM  117  H   UNK N   1      28.269  21.145   4.366  0.00  0.00     0.150 HD
ENDBRANCH 110 115
ENDBRANCH 104 105
ENDBRANCH  16 104
BRANCH  42 118
HETATM  118  C   UNK N   1      29.518   8.099  -2.518  0.00  0.00     0.137 C 
BRANCH 118 119
HETATM  119  C   UNK N   1      29.387   8.325  -3.983  0.00  0.00     0.217 C 
HETATM  120  O   UNK N   1      29.681   7.442  -4.772  0.00  0.00    -0.274 OA
HETATM  121  N   UNK N   1      28.936   9.510  -4.437  0.00  0.00    -0.370 N 
HETATM  122  H   UNK N   1      29.462  10.051  -5.070  0.00  0.00     0.159 HD
HETATM  123  H   UNK N   1      28.063   9.842  -4.129  0.00  0.00     0.159 HD
ENDBRANCH 118 119
ENDBRANCH  42 118
BRANCH  52 124
HETATM  124  O   UNK N   1      24.009   4.249  -4.646  0.00  0.00    -0.388 OA
HETATM  125  H   UNK N   1      23.880   3.586  -3.949  0.00  0.00     0.210 HD
ENDBRANCH  52 124
BRANCH  54 126
HETATM  126  N   UNK N   1      26.779   6.079  -5.652  0.00  0.00    -0.343 N 
HETATM  127  C   UNK N   1      27.522   5.356  -6.523  0.00  0.00     0.240 C 
HETATM  128  O   UNK N   1      28.118   5.937  -7.413  0.00  0.00    -0.271 OA
HETATM  129  H   UNK N   1      26.720   7.056  -5.757  0.00  0.00     0.163 HD
BRANCH 127 130
HETATM  130  C   UNK N   1      27.665   3.846  -6.411  0.00  0.00     0.169 C 
BRANCH 130 131
HETATM  131  N   UNK N   1      27.192   3.196  -7.621  0.00  0.00    -0.413 N 
HETATM  132  C   UNK N   1      25.760   3.013  -7.457  0.00  0.00     0.140 C 
HETATM  133  H   UNK N   1      27.754   2.922  -8.428  0.00  0.00     0.153 HD
ENDBRANCH 130 131
BRANCH 130 134
HETATM  134  C   UNK N   1      29.078   3.335  -6.078  0.00  0.00     0.038 C 
BRANCH 134 135
HETATM  135  C   UNK N   1      29.248   2.829  -4.651  0.00  0.00    -0.020 C 
HETATM  136  C   UNK N   1      27.908   2.355  -4.122  0.00  0.00     0.009 C 
HETATM  137  C   UNK N   1      29.750   3.938  -3.756  0.00  0.00     0.009 C 
ENDBRANCH 134 135
ENDBRANCH 130 134
ENDBRANCH 127 130
ENDBRANCH  54 126
BRANCH  34 138
HETATM  138  C   UNK N   1      31.757  11.895   4.603  0.00  0.00     0.168 C 
HETATM  139  O   UNK N   1      31.309  10.865   4.123  0.00  0.00    -0.648 OA
BRANCH 138 140
HETATM  140  O   UNK N   1      31.970  11.970   5.928  0.00  0.00    -0.775 OA
HETATM  141  H   UNK N   1      31.651  11.423   6.618  0.00  0.00     0.167 HD
ENDBRANCH 138 140
ENDBRANCH  34 138
BRANCH  48 142
HETATM  142  O   UNK N   1      34.094  10.290  -0.332  0.00  0.00    -0.360 OA
HETATM  143  H   UNK N   1      34.921  10.689  -0.147  0.00  0.00     0.217 HD
ENDBRANCH  48 142
BRANCH  53 144
HETATM  144  O   UNK N   1      35.695  11.911   0.445  0.00  0.00    -0.360 OA
HETATM  145  H   UNK N   1      36.193  12.427  -0.159  0.00  0.00     0.217 HD
ENDBRANCH  53 144
BRANCH  55 146
HETATM  146  O   UNK N   1      36.692  14.015   4.520  0.00  0.00    -0.361 OA
HETATM  147  H   UNK N   1      36.463  14.673   5.147  0.00  0.00     0.217 HD
ENDBRANCH  55 146
TORSDOF 30
ENDMDL
MODEL 2
REMARK VINA RESULT:      -8.2      1.533      2.094
REMARK  30 active torsions:
REMARK  status: ('A' for Active; 'I' for Inactive)
REMARK    1  A    between atoms: C_43  and  O_5 
REMARK    2  A    between atoms: C_46  and  O_5 
REMARK    3  A    between atoms: C_41  and  O_6 
REMARK    4  A    between atoms: C_47  and  O_8 
REMARK    5  A    between atoms: C_48  and  O_9 
REMARK    6  A    between atoms: O_9  and  C_61 
REMARK    7  A    between atoms: C_50  and  O_10 
REMARK    8  A    between atoms: C_59  and  O_12 
REMARK    9  A    between atoms: C_65  and  O_12 
REMARK   10  A    between atoms: C_54  and  O_13 
REMARK   11  A    between atoms: O_14  and  C_55 
REMARK   12  A    between atoms: O_21  and  C_103 
REMARK   13  A    between atoms: O_23  and  C_107 
REMARK   14  A    between atoms: C_111  and  O_24 
REMARK   15  A    between atoms: O_25  and  C_112 
REMARK   16  A    between atoms: O_26  and  C_115 
REMARK   17  A    between atoms: C_40  and  N_30 
REMARK   18  A    between atoms: N_30  and  C_52 
REMARK   19  A    between atoms: C_53  and  N_31 
REMARK   20  A    between atoms: C_113  and  N_37 
REMARK       I    between atoms: N_37  and  C_119 
REMARK       I    between atoms: N_38  and  C_118 
REMARK   21  A    between atoms: C_120  and  N_39 
REMARK   22  A    between atoms: C_51  and  C_55 
REMARK   23  A    between atoms: C_52  and  C_56 
REMARK   24  A    between atoms: C_71  and  C_78 
REMARK   25  A    between atoms: C_87  and  C_103 
REMARK   26  A    between atoms: C_99  and  C_114 
REMARK   27  A    between atoms: C_114  and  C_118 
REMARK   28  A    between atoms: C_119  and  C_120 
REMARK   29  A    between atoms: C_120  and  C_121 
REMARK   30  A    between atoms: C_121  and  C_122 
ROOT
HETATM    1 Cl   UNK N   1      25.576  14.672   7.032  0.00  0.00    -0.114 Cl
HETATM    2 Cl   UNK N   1      22.118   7.552   0.907  0.00  0.00    -0.081 Cl
HETATM    3  O   UNK N   1      24.614  12.575   4.242  0.00  0.00    -0.310 OA
HETATM    4  O   UNK N   1      23.099  10.352   0.287  0.00  0.00    -0.306 OA
HETATM    5  O   UNK N   1      31.969  16.324   4.912  0.00  0.00    -0.271 OA
HETATM    6  O   UNK N   1      29.991  14.829   1.797  0.00  0.00    -0.271 OA
HETATM    7  O   UNK N   1      28.849   9.544   3.303  0.00  0.00    -0.271 OA
HETATM    8  O   UNK N   1      26.403   7.948   0.286  0.00  0.00    -0.271 OA
HETATM    9  O   UNK N   1      25.509   6.151  -1.471  0.00  0.00    -0.271 OA
HETATM   10  N   UNK N   1      30.198  13.525   3.621  0.00  0.00    -0.343 N 
HETATM   11  N   UNK N   1      32.914  14.502   4.058  0.00  0.00    -0.341 N 
HETATM   12  N   UNK N   1      29.603  11.362   2.329  0.00  0.00    -0.342 N 
HETATM   13  N   UNK N   1      27.935   9.596   0.156  0.00  0.00    -0.342 N 
HETATM   14  N   UNK N   1      26.871   7.546  -2.596  0.00  0.00    -0.345 N 
HETATM   15  C   UNK N   1      23.809  11.397   2.275  0.00  0.00     0.139 A 
HETATM   16  C   UNK N   1      29.165  15.449   4.629  0.00  0.00     0.189 C 
HETATM   17  C   UNK N   1      30.435  14.555   4.614  0.00  0.00     0.210 C 
HETATM   18  C   UNK N   1      24.847  11.949   3.043  0.00  0.00     0.112 A 
HETATM   19  C   UNK N   1      24.084  10.877   1.002  0.00  0.00     0.113 A 
HETATM   20  C   UNK N   1      27.921  14.649   4.927  0.00  0.00    -0.029 C 
HETATM   21  C   UNK N   1      26.164  11.810   2.560  0.00  0.00     0.050 A 
HETATM   22  C   UNK N   1      26.452  11.170   1.368  0.00  0.00    -0.021 A 
HETATM   23  C   UNK N   1      25.402  10.768   0.563  0.00  0.00     0.050 A 
HETATM   24  C   UNK N   1      31.808  15.195   4.477  0.00  0.00     0.244 C 
HETATM   25  C   UNK N   1      27.556  10.161   1.443  0.00  0.00     0.210 C 
HETATM   26  C   UNK N   1      26.677  15.273   4.933  0.00  0.00     0.010 C 
HETATM   27  C   UNK N   1      27.990  13.262   5.181  0.00  0.00     0.012 C 
HETATM   28  C   UNK N   1      25.614  13.159   4.964  0.00  0.00     0.075 C 
HETATM   29  C   UNK N   1      25.554  14.527   5.275  0.00  0.00     0.163 C 
HETATM   30  C   UNK N   1      26.838  12.500   5.121  0.00  0.00     0.035 C 
HETATM   31  C   UNK N   1      29.946  13.711   2.292  0.00  0.00     0.245 C 
HETATM   32  C   UNK N   1      29.670  12.486   1.424  0.00  0.00     0.210 C 
HETATM   33  C   UNK N   1      28.709  10.359   2.402  0.00  0.00     0.246 C 
HETATM   34  C   UNK N   1      32.956  13.130   3.557  0.00  0.00     0.217 C 
HETATM   35  C   UNK N   1      23.174   9.527  -0.755  0.00  0.00     0.098 A 
HETATM   36  C   UNK N   1      30.848  12.150   0.570  0.00  0.00    -0.025 A 
HETATM   37  C   UNK N   1      34.301  12.791   2.936  0.00  0.00    -0.009 A 
HETATM   38  C   UNK N   1      27.333   8.457  -0.324  0.00  0.00     0.241 C 
HETATM   39  C   UNK N   1      32.079  12.376   1.148  0.00  0.00     0.025 A 
HETATM   40  C   UNK N   1      34.458  12.078   1.678  0.00  0.00     0.019 A 
HETATM   41  C   UNK N   1      33.236  11.691   0.848  0.00  0.00     0.011 A 
HETATM   42  C   UNK N   1      27.849   7.758  -1.551  0.00  0.00     0.185 C 
HETATM   43  C   UNK N   1      22.682   8.220  -0.616  0.00  0.00     0.068 A 
HETATM   44  C   UNK N   1      23.697   9.967  -1.976  0.00  0.00     0.040 A 
HETATM   45  C   UNK N   1      30.743  11.143  -0.388  0.00  0.00     0.012 A 
HETATM   46  C   UNK N   1      35.428  13.144   3.683  0.00  0.00     0.047 A 
HETATM   47  C   UNK N   1      23.235   7.790  -2.900  0.00  0.00    -0.025 A 
HETATM   48  C   UNK N   1      33.118  10.661  -0.139  0.00  0.00     0.076 A 
HETATM   49  C   UNK N   1      31.882  10.433  -0.768  0.00  0.00     0.038 A 
HETATM   50  C   UNK N   1      22.716   7.372  -1.684  0.00  0.00     0.036 A 
HETATM   51  C   UNK N   1      23.749   9.085  -3.050  0.00  0.00     0.012 A 
HETATM   52  C   UNK N   1      23.536   6.748  -3.893  0.00  0.00     0.183 C 
HETATM   53  C   UNK N   1      35.790  11.779   1.266  0.00  0.00     0.080 A 
HETATM   54  C   UNK N   1      25.028   6.389  -3.786  0.00  0.00     0.210 C 
HETATM   55  C   UNK N   1      36.702  12.847   3.240  0.00  0.00     0.069 A 
HETATM   56  C   UNK N   1      25.800   6.710  -2.518  0.00  0.00     0.244 C 
HETATM   57  C   UNK N   1      36.880  12.166   2.046  0.00  0.00     0.074 A 
HETATM   58  H   UNK N   1      30.221  12.593   3.937  0.00  0.00     0.163 HD
HETATM   59  H   UNK N   1      33.773  14.980   4.099  0.00  0.00     0.163 HD
HETATM   60  H   UNK N   1      30.324  11.324   2.997  0.00  0.00     0.163 HD
HETATM   61  H   UNK N   1      28.635  10.036  -0.379  0.00  0.00     0.163 HD
HETATM   62  H   UNK N   1      26.991   8.048  -3.434  0.00  0.00     0.163 HD
ENDROOT
BRANCH  15  63
HETATM   63  O   UNK N   1      22.545  11.329   2.820  0.00  0.00    -0.312 OA
BRANCH  63  64
HETATM   64  C   UNK N   1      22.066  10.574   3.886  0.00  0.00     0.298 C 
HETATM   65  O   UNK N   1      22.367   9.194   3.821  0.00  0.00    -0.348 OA
HETATM   66  C   UNK N   1      21.699   8.400   4.790  0.00  0.00     0.179 C 
HETATM   67  C   UNK N   1      20.196   8.715   4.977  0.00  0.00     0.180 C 
HETATM   68  C   UNK N   1      19.984  10.180   5.261  0.00  0.00     0.183 C 
HETATM   69  C   UNK N   1      20.587  10.921   4.084  0.00  0.00     0.211 C 
BRANCH  66  70
HETATM   70  C   UNK N   1      22.520   8.269   6.059  0.00  0.00     0.198 C 
BRANCH  70  71
HETATM   71  O   UNK N   1      22.188   7.077   6.702  0.00  0.00    -0.398 OA
HETATM   72  H   UNK N   1      22.660   6.788   7.500  0.00  0.00     0.209 HD
ENDBRANCH  70  71
ENDBRANCH  66  70
BRANCH  67  73
HETATM   73  O   UNK N   1      19.619   7.944   5.988  0.00  0.00    -0.390 OA
HETATM   74  H   UNK N   1      19.733   6.985   6.073  0.00  0.00     0.210 HD
ENDBRANCH  67  73
BRANCH  68  75
HETATM   75  O   UNK N   1      20.610  10.535   6.461  0.00  0.00    -0.390 OA
HETATM   76  H   UNK N   1      21.276  11.220   6.630  0.00  0.00     0.210 HD
ENDBRANCH  68  75
BRANCH  69  77
HETATM   77  O   UNK N   1      20.391  12.309   4.182  0.00  0.00    -0.348 OA
BRANCH  77  78
HETATM   78  C   UNK N   1      19.291  12.650   3.379  0.00  0.00     0.263 C 
HETATM   79  O   UNK N   1      19.435  12.024   2.121  0.00  0.00    -0.354 OA
HETATM   80  C   UNK N   1      18.571  12.671   1.238  0.00  0.00     0.151 C 
HETATM   81  C   UNK N   1      19.135  14.051   0.876  0.00  0.00     0.174 C 
HETATM   82  C   UNK N   1      18.309  11.818   0.020  0.00  0.00     0.042 C 
HETATM   83  C   UNK N   1      19.887  14.671   2.103  0.00  0.00     0.055 C 
HETATM   84  C   UNK N   1      19.187  14.188   3.342  0.00  0.00     0.093 C 
HETATM   85  C   UNK N   1      21.349  14.216   2.173  0.00  0.00     0.041 C 
BRANCH  81  86
HETATM   86  O   UNK N   1      18.063  14.846   0.461  0.00  0.00    -0.391 OA
HETATM   87  H   UNK N   1      17.148  15.170   0.438  0.00  0.00     0.210 HD
ENDBRANCH  81  86
BRANCH  83  88
HETATM   88  N   UNK N   1      19.872  16.120   2.149  0.00  0.00    -0.406 N 
HETATM   89  H   UNK N   1      19.022  16.675   2.053  0.00  0.00     0.154 HD
BRANCH  88  90
HETATM   90  C   UNK N   1      21.183  16.703   2.343  0.00  0.00     0.153 C 
BRANCH  90  91
HETATM   91  C   UNK N   1      21.447  17.367   3.647  0.00  0.00    -0.041 C 
HETATM   92  C   UNK N   1      22.663  16.991   4.216  0.00  0.00     0.009 C 
HETATM   93  C   UNK N   1      22.678  16.455   5.495  0.00  0.00     0.013 C 
HETATM   94  C   UNK N   1      21.472  16.316   6.194  0.00  0.00    -0.026 C 
HETATM   95  C   UNK N   1      20.312  16.923   5.710  0.00  0.00     0.013 C 
HETATM   96  C   UNK N   1      20.309  17.458   4.442  0.00  0.00     0.009 C 
BRANCH  94  97
HETATM   97  C   UNK N   1      21.345  15.280   7.225  0.00  0.00    -0.026 A 
HETATM   98  C   UNK N   1      20.593  15.521   8.384  0.00  0.00     0.014 A 
HETATM   99  C   UNK N   1      20.619  14.607   9.437  0.00  0.00     0.024 A 
HETATM  100  C   UNK N   1      21.417  13.464   9.351  0.00  0.00     0.034 A 
HETATM  101 Cl   UNK N   1      21.437  12.313  10.663  0.00  0.00    -0.084 Cl
HETATM  102  C   UNK N   1      22.188  13.228   8.212  0.00  0.00     0.024 A 
HETATM  103  C   UNK N   1      22.158  14.136   7.158  0.00  0.00     0.014 A 
ENDBRANCH  94  97
ENDBRANCH  90  91
ENDBRANCH  88  90
ENDBRANCH  83  88
ENDBRANCH  77  78
ENDBRANCH  69  77
ENDBRANCH  63  64
ENDBRANCH  15  63
BRANCH  16 104
HETATM  104  O   UNK N   1      29.187  16.710   5.263  0.00  0.00    -0.349 OA
BRANCH 104 105
HETATM  105  C   UNK N   1      29.528  16.599   6.614  0.00  0.00     0.263 C 
HETATM  106  O   UNK N   1      30.671  17.409   6.809  0.00  0.00    -0.354 OA
HETATM  107  C   UNK N   1      30.864  17.569   8.181  0.00  0.00     0.151 C 
HETATM  108  C   UNK N   1      29.888  18.624   8.717  0.00  0.00     0.174 C 
HETATM  109  C   UNK N   1      32.304  17.934   8.467  0.00  0.00     0.042 C 
HETATM  110  C   UNK N   1      28.482  18.441   8.081  0.00  0.00     0.052 C 
HETATM  111  C   UNK N   1      28.321  17.024   7.508  0.00  0.00     0.093 C 
HETATM  112  C   UNK N   1      28.313  19.447   6.955  0.00  0.00     0.041 C 
BRANCH 108 113
HETATM  113  O   UNK N   1      29.855  18.532  10.110  0.00  0.00    -0.391 OA
HETATM  114  H   UNK N   1      29.294  18.649  10.893  0.00  0.00     0.210 HD
ENDBRANCH 108 113
BRANCH 110 115
HETATM  115  N   UNK N   1      27.438  18.687   9.062  0.00  0.00    -0.420 N 
HETATM  116  H   UNK N   1      27.391  18.340  10.020  0.00  0.00     0.150 HD
HETATM  117  H   UNK N   1      26.662  19.274   8.758  0.00  0.00     0.150 HD
ENDBRANCH 110 115
ENDBRANCH 104 105
ENDBRANCH  16 104
BRANCH  42 118
HETATM  118  C   UNK N   1      29.059   8.448  -2.149  0.00  0.00     0.137 C 
BRANCH 118 119
HETATM  119  C   UNK N   1      29.057   8.251  -3.624  0.00  0.00     0.217 C 
HETATM  120  O   UNK N   1      29.193   7.134  -4.097  0.00  0.00    -0.274 OA
HETATM  121  N   UNK N   1      28.900   9.312  -4.438  0.00  0.00    -0.370 N 
HETATM  122  H   UNK N   1      29.562   9.529  -5.132  0.00  0.00     0.159 HD
HETATM  123  H   UNK N   1      28.104   9.882  -4.336  0.00  0.00     0.159 HD
ENDBRANCH 118 119
ENDBRANCH  42 118
BRANCH  52 124
HETATM  124  O   UNK N   1      22.778   5.605  -3.624  0.00  0.00    -0.388 OA
HETATM  125  H   UNK N   1      22.854   4.641  -3.704  0.00  0.00     0.210 HD
ENDBRANCH  52 124
BRANCH  54 126
HETATM  126  N   UNK N   1      25.740   6.840  -4.943  0.00  0.00    -0.343 N 
HETATM  127  C   UNK N   1      26.168   5.960  -5.879  0.00  0.00     0.240 C 
HETATM  128  O   UNK N   1      26.785   6.379  -6.842  0.00  0.00    -0.271 OA
HETATM  129  H   UNK N   1      25.920   7.801  -5.060  0.00  0.00     0.163 HD
BRANCH 127 130
HETATM  130  C   UNK N   1      25.934   4.463  -5.753  0.00  0.00     0.169 C 
BRANCH 130 131
HETATM  131  N   UNK N   1      25.248   3.952  -6.927  0.00  0.00    -0.413 N 
HETATM  132  C   UNK N   1      23.831   4.199  -6.716  0.00  0.00     0.140 C 
HETATM  133  H   UNK N   1      25.675   3.508  -7.741  0.00  0.00     0.153 HD
ENDBRANCH 130 131
BRANCH 130 134
HETATM  134  C   UNK N   1      27.190   3.613  -5.488  0.00  0.00     0.038 C 
BRANCH 134 135
HETATM  135  C   UNK N   1      27.268   3.020  -4.087  0.00  0.00    -0.020 C 
HETATM  136  C   UNK N   1      25.867   2.854  -3.531  0.00  0.00     0.009 C 
HETATM  137  C   UNK N   1      28.041   3.939  -3.170  0.00  0.00     0.009 C 
ENDBRANCH 134 135
ENDBRANCH 130 134
ENDBRANCH 127 130
ENDBRANCH  54 126
BRANCH  34 138
HETATM  138  C   UNK N   1      32.552  12.066   4.546  0.00  0.00     0.168 C 
HETATM  139  O   UNK N   1      32.890  12.178   5.715  0.00  0.00    -0.648 OA
BRANCH 138 140
HETATM  140  O   UNK N   1      31.855  10.983   4.159  0.00  0.00    -0.775 OA
HETATM  141  H   UNK N   1      31.529  10.267   4.669  0.00  0.00     0.167 HD
ENDBRANCH 138 140
ENDBRANCH  34 138
BRANCH  48 142
HETATM  142  O   UNK N   1      34.128   9.839  -0.448  0.00  0.00    -0.360 OA
HETATM  143  H   UNK N   1      34.675   9.972  -1.197  0.00  0.00     0.217 HD
ENDBRANCH  48 142
BRANCH  53 144
HETATM  144  O   UNK N   1      36.058  11.165   0.108  0.00  0.00    -0.360 OA
HETATM  145  H   UNK N   1      35.643  10.365  -0.151  0.00  0.00     0.217 HD
ENDBRANCH  53 144
BRANCH  55 146
HETATM  146  O   UNK N   1      37.767  13.221   3.966  0.00  0.00    -0.361 OA
HETATM  147  H   UNK N   1      38.111  14.090   3.908  0.00  0.00     0.217 HD
ENDBRANCH  55 146
TORSDOF 30
ENDMDL
MODEL 3
REMARK VINA RESULT:      -7.6      8.661     16.834
REMARK  30 active torsions:
REMARK  status: ('A' for Active; 'I' for Inactive)
REMARK    1  A    between atoms: C_43  and  O_5 
REMARK    2  A    between atoms: C_46  and  O_5 
REMARK    3  A    between atoms: C_41  and  O_6 
REMARK    4  A    between atoms: C_47  and  O_8 
REMARK    5  A    between atoms: C_48  and  O_9 
REMARK    6  A    between atoms: O_9  and  C_61 
REMARK    7  A    between atoms: C_50  and  O_10 
REMARK    8  A    between atoms: C_59  and  O_12 
REMARK    9  A    between atoms: C_65  and  O_12 
REMARK   10  A    between atoms: C_54  and  O_13 
REMARK   11  A    between atoms: O_14  and  C_55 
REMARK   12  A    between atoms: O_21  and  C_103 
REMARK   13  A    between atoms: O_23  and  C_107 
REMARK   14  A    between atoms: C_111  and  O_24 
REMARK   15  A    between atoms: O_25  and  C_112 
REMARK   16  A    between atoms: O_26  and  C_115 
REMARK   17  A    between atoms: C_40  and  N_30 
REMARK   18  A    between atoms: N_30  and  C_52 
REMARK   19  A    between atoms: C_53  and  N_31 
REMARK   20  A    between atoms: C_113  and  N_37 
REMARK       I    between atoms: N_37  and  C_119 
REMARK       I    between atoms: N_38  and  C_118 
REMARK   21  A    between atoms: C_120  and  N_39 
REMARK   22  A    between atoms: C_51  and  C_55 
REMARK   23  A    between atoms: C_52  and  C_56 
REMARK   24  A    between atoms: C_71  and  C_78 
REMARK   25  A    between atoms: C_87  and  C_103 
REMARK   26  A    between atoms: C_99  and  C_114 
REMARK   27  A    between atoms: C_114  and  C_118 
REMARK   28  A    between atoms: C_119  and  C_120 
REMARK   29  A    between atoms: C_120  and  C_121 
REMARK   30  A    between atoms: C_121  and  C_122 
ROOT
HETATM    1 Cl   UNK N   1      36.266   9.430   0.893  0.00  0.00    -0.114 Cl
HETATM    2 Cl   UNK N   1      37.363   5.119   9.859  0.00  0.00    -0.081 Cl
HETATM    3  O   UNK N   1      37.001   8.570   4.333  0.00  0.00    -0.310 OA
HETATM    4  O   UNK N   1      38.574   7.670   8.759  0.00  0.00    -0.306 OA
HETATM    5  O   UNK N   1      33.814  15.831   1.941  0.00  0.00    -0.271 OA
HETATM    6  O   UNK N   1      35.734  14.697   5.239  0.00  0.00    -0.271 OA
HETATM    7  O   UNK N   1      32.811  10.273   7.078  0.00  0.00    -0.271 OA
HETATM    8  O   UNK N   1      34.948   8.703  10.334  0.00  0.00    -0.271 OA
HETATM    9  O   UNK N   1      35.336   7.679  12.767  0.00  0.00    -0.271 OA
HETATM   10  N   UNK N   1      34.016  13.418   4.545  0.00  0.00    -0.343 N 
HETATM   11  N   UNK N   1      32.520  15.796   3.749  0.00  0.00    -0.341 N 
HETATM   12  N   UNK N   1      33.779  12.229   6.832  0.00  0.00    -0.342 N 
HETATM   13  N   UNK N   1      34.902  10.813   9.544  0.00  0.00    -0.342 N 
HETATM   14  N   UNK N   1      35.716   9.892  12.919  0.00  0.00    -0.345 N 
HETATM   15  C   UNK N   1      37.778   8.043   6.573  0.00  0.00     0.139 A 
HETATM   16  C   UNK N   1      35.358  13.390   2.549  0.00  0.00     0.189 C 
HETATM   17  C   UNK N   1      33.988  13.810   3.148  0.00  0.00     0.210 C 
HETATM   18  C   UNK N   1      37.033   8.829   5.679  0.00  0.00     0.112 A 
HETATM   19  C   UNK N   1      37.875   8.422   7.921  0.00  0.00     0.113 A 
HETATM   20  C   UNK N   1      35.614  11.914   2.719  0.00  0.00    -0.029 C 
HETATM   21  C   UNK N   1      36.276   9.891   6.215  0.00  0.00     0.050 A 
HETATM   22  C   UNK N   1      36.258  10.180   7.568  0.00  0.00    -0.021 A 
HETATM   23  C   UNK N   1      37.114   9.485   8.403  0.00  0.00     0.050 A 
HETATM   24  C   UNK N   1      33.478  15.229   2.949  0.00  0.00     0.244 C 
HETATM   25  C   UNK N   1      34.895  10.379   8.154  0.00  0.00     0.210 C 
HETATM   26  C   UNK N   1      36.816  11.362   2.287  0.00  0.00     0.010 C 
HETATM   27  C   UNK N   1      34.660  11.074   3.334  0.00  0.00     0.012 C 
HETATM   28  C   UNK N   1      36.322   9.363   3.454  0.00  0.00     0.075 C 
HETATM   29  C   UNK N   1      37.001   9.987   2.395  0.00  0.00     0.163 C 
HETATM   30  C   UNK N   1      35.039   9.820   3.774  0.00  0.00     0.035 C 
HETATM   31  C   UNK N   1      34.901  13.839   5.496  0.00  0.00     0.245 C 
HETATM   32  C   UNK N   1      34.787  13.260   6.904  0.00  0.00     0.210 C 
HETATM   33  C   UNK N   1      33.783  10.975   7.320  0.00  0.00     0.246 C 
HETATM   34  C   UNK N   1      31.938  15.227   4.962  0.00  0.00     0.217 C 
HETATM   35  C   UNK N   1      38.529   7.642  10.089  0.00  0.00     0.098 A 
HETATM   36  C   UNK N   1      34.182  14.246   7.847  0.00  0.00    -0.025 A 
HETATM   37  C   UNK N   1      31.110  16.247   5.728  0.00  0.00    -0.009 A 
HETATM   38  C   UNK N   1      34.883   9.901  10.572  0.00  0.00     0.241 C 
HETATM   39  C   UNK N   1      33.207  15.058   7.308  0.00  0.00     0.025 A 
HETATM   40  C   UNK N   1      31.171  16.424   7.171  0.00  0.00     0.019 A 
HETATM   41  C   UNK N   1      32.163  15.620   8.009  0.00  0.00     0.011 A 
HETATM   42  C   UNK N   1      34.693  10.336  11.999  0.00  0.00     0.185 C 
HETATM   43  C   UNK N   1      38.055   6.483  10.722  0.00  0.00     0.068 A 
HETATM   44  C   UNK N   1      38.981   8.733  10.841  0.00  0.00     0.040 A 
HETATM   45  C   UNK N   1      34.117  13.951   9.208  0.00  0.00     0.012 A 
HETATM   46  C   UNK N   1      30.201  16.992   4.972  0.00  0.00     0.047 A 
HETATM   47  C   UNK N   1      38.476   7.494  12.845  0.00  0.00    -0.025 A 
HETATM   48  C   UNK N   1      32.107  15.314   9.406  0.00  0.00     0.076 A 
HETATM   49  C   UNK N   1      33.108  14.517   9.988  0.00  0.00     0.038 A 
HETATM   50  C   UNK N   1      38.036   6.421  12.084  0.00  0.00     0.036 A 
HETATM   51  C   UNK N   1      38.933   8.667  12.229  0.00  0.00     0.012 A 
HETATM   52  C   UNK N   1      38.130   7.488  14.275  0.00  0.00     0.183 C 
HETATM   53  C   UNK N   1      30.279  17.377   7.744  0.00  0.00     0.080 A 
HETATM   54  C   UNK N   1      36.858   8.331  14.471  0.00  0.00     0.210 C 
HETATM   55  C   UNK N   1      29.363  17.916   5.566  0.00  0.00     0.069 A 
HETATM   56  C   UNK N   1      35.935   8.603  13.297  0.00  0.00     0.244 C 
HETATM   57  C   UNK N   1      29.400  18.102   6.939  0.00  0.00     0.074 A 
HETATM   58  H   UNK N   1      33.324  12.784   4.839  0.00  0.00     0.163 HD
HETATM   59  H   UNK N   1      32.188  16.681   3.476  0.00  0.00     0.163 HD
HETATM   60  H   UNK N   1      32.959  12.483   6.350  0.00  0.00     0.163 HD
HETATM   61  H   UNK N   1      34.920  11.776   9.750  0.00  0.00     0.163 HD
HETATM   62  H   UNK N   1      36.304  10.581  13.306  0.00  0.00     0.163 HD
ENDROOT
BRANCH  15  63
HETATM   63  O   UNK N   1      38.352   6.879   6.113  0.00  0.00    -0.312 OA
BRANCH  63  64
HETATM   64  C   UNK N   1      38.016   6.081   5.023  0.00  0.00     0.298 C 
HETATM   65  O   UNK N   1      37.294   4.909   5.344  0.00  0.00    -0.348 OA
HETATM   66  C   UNK N   1      37.142   3.998   4.265  0.00  0.00     0.179 C 
HETATM   67  C   UNK N   1      38.418   3.751   3.426  0.00  0.00     0.180 C 
HETATM   68  C   UNK N   1      39.003   5.052   2.938  0.00  0.00     0.183 C 
HETATM   69  C   UNK N   1      39.279   5.873   4.182  0.00  0.00     0.211 C 
BRANCH  66  70
HETATM   70  C   UNK N   1      35.870   4.274   3.486  0.00  0.00     0.198 C 
BRANCH  70  71
HETATM   71  O   UNK N   1      35.374   3.074   2.973  0.00  0.00    -0.398 OA
HETATM   72  H   UNK N   1      34.420   2.911   2.911  0.00  0.00     0.209 HD
ENDBRANCH  70  71
ENDBRANCH  66  70
BRANCH  67  73
HETATM   73  O   UNK N   1      38.180   2.899   2.347  0.00  0.00    -0.390 OA
HETATM   74  H   UNK N   1      37.315   2.785   1.923  0.00  0.00     0.210 HD
ENDBRANCH  67  73
BRANCH  68  75
HETATM   75  O   UNK N   1      38.097   5.700   2.090  0.00  0.00    -0.390 OA
HETATM   76  H   UNK N   1      37.197   6.013   2.273  0.00  0.00     0.210 HD
ENDBRANCH  68  75
BRANCH  69  77
HETATM   77  O   UNK N   1      39.902   7.095   3.875  0.00  0.00    -0.348 OA
BRANCH  77  78
HETATM   78  C   UNK N   1      41.286   6.871   3.803  0.00  0.00     0.263 C 
HETATM   79  O   UNK N   1      41.710   6.259   5.004  0.00  0.00    -0.354 OA
HETATM   80  C   UNK N   1      43.096   6.404   5.072  0.00  0.00     0.151 C 
HETATM   81  C   UNK N   1      43.452   7.857   5.412  0.00  0.00     0.174 C 
HETATM   82  C   UNK N   1      43.692   5.420   6.050  0.00  0.00     0.042 C 
HETATM   83  C   UNK N   1      42.420   8.837   4.757  0.00  0.00     0.055 C 
HETATM   84  C   UNK N   1      41.969   8.212   3.468  0.00  0.00     0.093 C 
HETATM   85  C   UNK N   1      41.186   9.050   5.642  0.00  0.00     0.041 C 
BRANCH  81  86
HETATM   86  O   UNK N   1      44.754   8.086   4.961  0.00  0.00    -0.391 OA
HETATM   87  H   UNK N   1      45.459   8.242   4.312  0.00  0.00     0.210 HD
ENDBRANCH  81  86
BRANCH  83  88
HETATM   88  N   UNK N   1      42.957  10.143   4.427  0.00  0.00    -0.406 N 
HETATM   89  H   UNK N   1      43.739  10.569   4.923  0.00  0.00     0.154 HD
BRANCH  88  90
HETATM   90  C   UNK N   1      42.273  10.784   3.323  0.00  0.00     0.153 C 
BRANCH  90  91
HETATM   91  C   UNK N   1      41.570  12.063   3.608  0.00  0.00    -0.041 C 
HETATM   92  C   UNK N   1      42.185  12.814   4.608  0.00  0.00     0.009 C 
HETATM   93  C   UNK N   1      41.451  13.191   5.723  0.00  0.00     0.013 C 
HETATM   94  C   UNK N   1      40.103  12.822   5.813  0.00  0.00    -0.026 C 
HETATM   95  C   UNK N   1      39.450  12.294   4.700  0.00  0.00     0.013 C 
HETATM   96  C   UNK N   1      40.186  11.928   3.595  0.00  0.00     0.009 C 
BRANCH  94  97
HETATM   97  C   UNK N   1      39.477  12.672   7.132  0.00  0.00    -0.026 A 
HETATM   98  C   UNK N   1      38.350  13.432   7.472  0.00  0.00     0.014 A 
HETATM   99  C   UNK N   1      37.865  13.418   8.780  0.00  0.00     0.024 A 
HETATM  100  C   UNK N   1      38.521  12.670   9.761  0.00  0.00     0.034 A 
HETATM  101 Cl   UNK N   1      37.906  12.640  11.394  0.00  0.00    -0.084 Cl
HETATM  102  C   UNK N   1      39.660  11.931   9.437  0.00  0.00     0.024 A 
HETATM  103  C   UNK N   1      40.140  11.938   8.130  0.00  0.00     0.014 A 
ENDBRANCH  94  97
ENDBRANCH  90  91
ENDBRANCH  88  90
ENDBRANCH  83  88
ENDBRANCH  77  78
ENDBRANCH  69  77
ENDBRANCH  63  64
ENDBRANCH  15  63
BRANCH  16 104
HETATM  104  O   UNK N   1      35.772  13.892   1.297  0.00  0.00    -0.349 OA
BRANCH 104 105
HETATM  105  C   UNK N   1      35.558  12.961   0.274  0.00  0.00     0.263 C 
HETATM  106  O   UNK N   1      34.268  13.220  -0.243  0.00  0.00    -0.354 OA
HETATM  107  C   UNK N   1      34.134  12.528  -1.446  0.00  0.00     0.151 C 
HETATM  108  C   UNK N   1      34.856  13.293  -2.562  0.00  0.00     0.174 C 
HETATM  109  C   UNK N   1      32.670  12.313  -1.764  0.00  0.00     0.042 C 
HETATM  110  C   UNK N   1      36.218  13.841  -2.055  0.00  0.00     0.052 C 
HETATM  111  C   UNK N   1      36.682  13.081  -0.802  0.00  0.00     0.093 C 
HETATM  112  C   UNK N   1      36.062  15.312  -1.707  0.00  0.00     0.041 C 
BRANCH 108 113
HETATM  113  O   UNK N   1      35.003  12.444  -3.661  0.00  0.00    -0.391 OA
HETATM  114  H   UNK N   1      35.293  12.396  -4.585  0.00  0.00     0.210 HD
ENDBRANCH 108 113
BRANCH 110 115
HETATM  115  N   UNK N   1      37.234  13.732  -3.090  0.00  0.00    -0.420 N 
HETATM  116  H   UNK N   1      37.582  14.473  -3.699  0.00  0.00     0.150 HD
HETATM  117  H   UNK N   1      37.646  12.809  -3.223  0.00  0.00     0.150 HD
ENDBRANCH 110 115
ENDBRANCH 104 105
ENDBRANCH  16 104
BRANCH  42 118
HETATM  118  C   UNK N   1      34.534  11.837  12.133  0.00  0.00     0.137 C 
BRANCH 118 119
HETATM  119  C   UNK N   1      34.698  12.221  13.562  0.00  0.00     0.217 C 
HETATM  120  O   UNK N   1      34.101  11.615  14.436  0.00  0.00    -0.274 OA
HETATM  121  N   UNK N   1      35.513  13.242  13.888  0.00  0.00    -0.370 N 
HETATM  122  H   UNK N   1      35.188  14.014  14.404  0.00  0.00     0.159 HD
HETATM  123  H   UNK N   1      36.455  13.213  13.605  0.00  0.00     0.159 HD
ENDBRANCH 118 119
ENDBRANCH  42 118
BRANCH  52 124
HETATM  124  O   UNK N   1      37.872   6.180  14.693  0.00  0.00    -0.388 OA
HETATM  125  H   UNK N   1      37.174   5.511  14.616  0.00  0.00     0.210 HD
ENDBRANCH  52 124
BRANCH  54 126
HETATM  126  N   UNK N   1      37.158   9.540  15.174  0.00  0.00    -0.343 N 
HETATM  127  C   UNK N   1      36.544   9.832  16.345  0.00  0.00     0.240 C 
HETATM  128  O   UNK N   1      36.813  10.879  16.907  0.00  0.00    -0.271 OA
HETATM  129  H   UNK N   1      37.819  10.168  14.802  0.00  0.00     0.163 HD
BRANCH 127 130
HETATM  130  C   UNK N   1      35.506   8.912  16.969  0.00  0.00     0.169 C 
BRANCH 130 131
HETATM  131  N   UNK N   1      36.148   7.880  17.764  0.00  0.00    -0.413 N 
HETATM  132  C   UNK N   1      35.544   6.619  17.369  0.00  0.00     0.140 C 
HETATM  133  H   UNK N   1      36.879   8.014  18.464  0.00  0.00     0.153 HD
ENDBRANCH 130 131
BRANCH 130 134
HETATM  134  C   UNK N   1      34.423   9.607  17.813  0.00  0.00     0.038 C 
BRANCH 134 135
HETATM  135  C   UNK N   1      34.580   9.426  19.317  0.00  0.00    -0.020 C 
HETATM  136  C   UNK N   1      33.270   8.937  19.905  0.00  0.00     0.009 C 
HETATM  137  C   UNK N   1      34.936  10.741  19.970  0.00  0.00     0.009 C 
ENDBRANCH 134 135
ENDBRANCH 130 134
ENDBRANCH 127 130
ENDBRANCH  54 126
BRANCH  34 138
HETATM  138  C   UNK N   1      31.154  13.954   4.771  0.00  0.00     0.168 C 
HETATM  139  O   UNK N   1      30.453  13.827   3.778  0.00  0.00    -0.648 OA
BRANCH 138 140
HETATM  140  O   UNK N   1      31.189  12.970   5.687  0.00  0.00    -0.775 OA
HETATM  141  H   UNK N   1      31.659  12.159   5.677  0.00  0.00     0.167 HD
ENDBRANCH 138 140
ENDBRANCH  34 138
BRANCH  48 142
HETATM  142  O   UNK N   1      31.090  15.694  10.189  0.00  0.00    -0.360 OA
HETATM  143  H   UNK N   1      30.194  15.572   9.946  0.00  0.00     0.217 HD
ENDBRANCH  48 142
BRANCH  53 144
HETATM  144  O   UNK N   1      30.276  17.654   9.052  0.00  0.00    -0.360 OA
HETATM  145  H   UNK N   1      29.501  17.613   9.578  0.00  0.00     0.217 HD
ENDBRANCH  53 144
BRANCH  55 146
HETATM  146  O   UNK N   1      28.519  18.635   4.812  0.00  0.00    -0.361 OA
HETATM  147  H   UNK N   1      27.977  19.300   5.190  0.00  0.00     0.217 HD
ENDBRANCH  55 146
TORSDOF 30
ENDMDL
MODEL 4
REMARK VINA RESULT:      -7.5      5.516     13.868
REMARK  30 active torsions:
REMARK  status: ('A' for Active; 'I' for Inactive)
REMARK    1  A    between atoms: C_43  and  O_5 
REMARK    2  A    between atoms: C_46  and  O_5 
REMARK    3  A    between atoms: C_41  and  O_6 
REMARK    4  A    between atoms: C_47  and  O_8 
REMARK    5  A    between atoms: C_48  and  O_9 
REMARK    6  A    between atoms: O_9  and  C_61 
REMARK    7  A    between atoms: C_50  and  O_10 
REMARK    8  A    between atoms: C_59  and  O_12 
REMARK    9  A    between atoms: C_65  and  O_12 
REMARK   10  A    between atoms: C_54  and  O_13 
REMARK   11  A    between atoms: O_14  and  C_55 
REMARK   12  A    between atoms: O_21  and  C_103 
REMARK   13  A    between atoms: O_23  and  C_107 
REMARK   14  A    between atoms: C_111  and  O_24 
REMARK   15  A    between atoms: O_25  and  C_112 
REMARK   16  A    between atoms: O_26  and  C_115 
REMARK   17  A    between atoms: C_40  and  N_30 
REMARK   18  A    between atoms: N_30  and  C_52 
REMARK   19  A    between atoms: C_53  and  N_31 
REMARK   20  A    between atoms: C_113  and  N_37 
REMARK       I    between atoms: N_37  and  C_119 
REMARK       I    between atoms: N_38  and  C_118 
REMARK   21  A    between atoms: C_120  and  N_39 
REMARK   22  A    between atoms: C_51  and  C_55 
REMARK   23  A    between atoms: C_52  and  C_56 
REMARK   24  A    between atoms: C_71  and  C_78 
REMARK   25  A    between atoms: C_87  and  C_103 
REMARK   26  A    between atoms: C_99  and  C_114 
REMARK   27  A    between atoms: C_114  and  C_118 
REMARK   28  A    between atoms: C_119  and  C_120 
REMARK   29  A    between atoms: C_120  and  C_121 
REMARK   30  A    between atoms: C_121  and  C_122 
ROOT
HETATM    1 Cl   UNK N   1      39.479  12.430   2.660  0.00  0.00    -0.114 Cl
HETATM    2 Cl   UNK N   1      31.432  15.439   7.795  0.00  0.00    -0.081 Cl
HETATM    3  O   UNK N   1      36.359  13.855   3.821  0.00  0.00    -0.310 OA
HETATM    4  O   UNK N   1      32.437  16.292   5.066  0.00  0.00    -0.306 OA
HETATM    5  O   UNK N   1      37.262   9.924  -3.414  0.00  0.00    -0.271 OA
HETATM    6  O   UNK N   1      34.533  12.496  -2.077  0.00  0.00    -0.271 OA
HETATM    7  O   UNK N   1      32.703  10.196   2.705  0.00  0.00    -0.271 OA
HETATM    8  O   UNK N   1      30.105  12.993   4.454  0.00  0.00    -0.271 OA
HETATM    9  O   UNK N   1      27.922  13.891   5.697  0.00  0.00    -0.271 OA
HETATM   10  N   UNK N   1      35.037  10.739  -0.763  0.00  0.00    -0.343 N 
HETATM   11  N   UNK N   1      35.262   9.006  -3.102  0.00  0.00    -0.341 N 
HETATM   12  N   UNK N   1      32.899  11.004   0.672  0.00  0.00    -0.342 N 
HETATM   13  N   UNK N   1      30.625  12.695   2.282  0.00  0.00    -0.342 N 
HETATM   14  N   UNK N   1      27.589  14.187   3.491  0.00  0.00    -0.345 N 
HETATM   15  C   UNK N   1      34.378  15.073   4.523  0.00  0.00     0.139 A 
HETATM   16  C   UNK N   1      37.238  11.670  -1.034  0.00  0.00     0.189 C 
HETATM   17  C   UNK N   1      36.350  10.423  -1.294  0.00  0.00     0.210 C 
HETATM   18  C   UNK N   1      35.022  14.133   3.702  0.00  0.00     0.112 A 
HETATM   19  C   UNK N   1      33.038  15.409   4.281  0.00  0.00     0.113 A 
HETATM   20  C   UNK N   1      37.290  12.025   0.430  0.00  0.00    -0.029 C 
HETATM   21  C   UNK N   1      34.235  13.443   2.756  0.00  0.00     0.050 A 
HETATM   22  C   UNK N   1      32.879  13.673   2.611  0.00  0.00    -0.021 A 
HETATM   23  C   UNK N   1      32.303  14.706   3.329  0.00  0.00     0.050 A 
HETATM   24  C   UNK N   1      36.286   9.818  -2.689  0.00  0.00     0.244 C 
HETATM   25  C   UNK N   1      32.029  12.441   2.569  0.00  0.00     0.210 C 
HETATM   26  C   UNK N   1      37.999  13.146   0.851  0.00  0.00     0.010 C 
HETATM   27  C   UNK N   1      36.609  11.248   1.393  0.00  0.00     0.012 C 
HETATM   28  C   UNK N   1      36.998  12.982   2.989  0.00  0.00     0.075 C 
HETATM   29  C   UNK N   1      38.086  13.414   2.213  0.00  0.00     0.163 C 
HETATM   30  C   UNK N   1      36.395  11.764   2.657  0.00  0.00     0.035 C 
HETATM   31  C   UNK N   1      34.226  11.770  -1.142  0.00  0.00     0.245 C 
HETATM   32  C   UNK N   1      32.898  11.957  -0.413  0.00  0.00     0.210 C 
HETATM   33  C   UNK N   1      32.568  11.162   1.967  0.00  0.00     0.246 C 
HETATM   34  C   UNK N   1      34.035   8.696  -2.372  0.00  0.00     0.217 C 
HETATM   35  C   UNK N   1      31.134  16.506   5.236  0.00  0.00     0.098 A 
HETATM   36  C   UNK N   1      31.750  11.498  -1.251  0.00  0.00    -0.025 A 
HETATM   37  C   UNK N   1      33.015   7.984  -3.246  0.00  0.00    -0.009 A 
HETATM   38  C   UNK N   1      29.724  12.918   3.295  0.00  0.00     0.241 C 
HETATM   39  C   UNK N   1      32.002  10.400  -2.046  0.00  0.00     0.025 A 
HETATM   40  C   UNK N   1      31.599   8.313  -3.276  0.00  0.00     0.019 A 
HETATM   41  C   UNK N   1      31.058   9.486  -2.460  0.00  0.00     0.011 A 
HETATM   42  C   UNK N   1      28.245  12.986   3.025  0.00  0.00     0.185 C 
HETATM   43  C   UNK N   1      30.562  16.218   6.485  0.00  0.00     0.068 A 
HETATM   44  C   UNK N   1      30.359  17.042   4.201  0.00  0.00     0.040 A 
HETATM   45  C   UNK N   1      30.445  11.712  -0.813  0.00  0.00     0.012 A 
HETATM   46  C   UNK N   1      33.498   6.912  -4.002  0.00  0.00     0.047 A 
HETATM   47  C   UNK N   1      28.452  16.992   5.673  0.00  0.00    -0.025 A 
HETATM   48  C   UNK N   1      29.720   9.715  -2.006  0.00  0.00     0.076 A 
HETATM   49  C   UNK N   1      29.430  10.846  -1.224  0.00  0.00     0.038 A 
HETATM   50  C   UNK N   1      29.236  16.465   6.689  0.00  0.00     0.036 A 
HETATM   51  C   UNK N   1      29.004  17.265   4.414  0.00  0.00     0.012 A 
HETATM   52  C   UNK N   1      26.993  16.929   5.852  0.00  0.00     0.183 C 
HETATM   53  C   UNK N   1      30.764   7.505  -4.101  0.00  0.00     0.080 A 
HETATM   54  C   UNK N   1      26.468  15.680   5.124  0.00  0.00     0.210 C 
HETATM   55  C   UNK N   1      32.656   6.162  -4.799  0.00  0.00     0.069 A 
HETATM   56  C   UNK N   1      27.410  14.536   4.795  0.00  0.00     0.244 C 
HETATM   57  C   UNK N   1      31.301   6.453  -4.844  0.00  0.00     0.074 A 
HETATM   58  H   UNK N   1      34.695  10.147  -0.055  0.00  0.00     0.163 HD
HETATM   59  H   UNK N   1      35.364   8.586  -3.985  0.00  0.00     0.163 HD
HETATM   60  H   UNK N   1      33.187  10.095   0.426  0.00  0.00     0.163 HD
HETATM   61  H   UNK N   1      30.316  12.706   1.347  0.00  0.00     0.163 HD
HETATM   62  H   UNK N   1      27.242  14.805   2.808  0.00  0.00     0.163 HD
ENDROOT
BRANCH  15  63
HETATM   63  O   UNK N   1      35.069  15.602   5.591  0.00  0.00    -0.312 OA
BRANCH  63  64
HETATM   64  C   UNK N   1      34.653  15.850   6.896  0.00  0.00     0.298 C 
HETATM   65  O   UNK N   1      34.604  17.215   7.257  0.00  0.00    -0.348 OA
HETATM   66  C   UNK N   1      34.389  17.452   8.641  0.00  0.00     0.179 C 
HETATM   67  C   UNK N   1      35.228  16.571   9.596  0.00  0.00     0.180 C 
HETATM   68  C   UNK N   1      35.049  15.108   9.278  0.00  0.00     0.183 C 
HETATM   69  C   UNK N   1      35.466  14.947   7.830  0.00  0.00     0.211 C 
BRANCH  66  70
HETATM   70  C   UNK N   1      32.910  17.567   8.958  0.00  0.00     0.198 C 
BRANCH  70  71
HETATM   71  O   UNK N   1      32.387  18.687   8.311  0.00  0.00    -0.398 OA
HETATM   72  H   UNK N   1      32.040  18.629   7.407  0.00  0.00     0.209 HD
ENDBRANCH  70  71
ENDBRANCH  66  70
BRANCH  67  73
HETATM   73  O   UNK N   1      34.919  16.810  10.937  0.00  0.00    -0.390 OA
HETATM   74  H   UNK N   1      34.904  16.124  11.623  0.00  0.00     0.210 HD
ENDBRANCH  67  73
BRANCH  68  75
HETATM   75  O   UNK N   1      33.715  14.732   9.470  0.00  0.00    -0.390 OA
HETATM   76  H   UNK N   1      32.918  15.024   8.999  0.00  0.00     0.210 HD
ENDBRANCH  68  75
BRANCH  69  77
HETATM   77  O   UNK N   1      35.420  13.604   7.418  0.00  0.00    -0.348 OA
BRANCH  77  78
HETATM   78  C   UNK N   1      36.619  12.988   7.809  0.00  0.00     0.263 C 
HETATM   79  O   UNK N   1      37.245  12.447   6.664  0.00  0.00    -0.354 OA
HETATM   80  C   UNK N   1      38.196  11.529   7.110  0.00  0.00     0.151 C 
HETATM   81  C   UNK N   1      37.499  10.260   7.616  0.00  0.00     0.174 C 
HETATM   82  C   UNK N   1      39.211  11.238   6.030  0.00  0.00     0.042 C 
HETATM   83  C   UNK N   1      36.131  10.623   8.289  0.00  0.00     0.055 C 
HETATM   84  C   UNK N   1      36.293  11.974   8.924  0.00  0.00     0.093 C 
HETATM   85  C   UNK N   1      34.991  10.708   7.269  0.00  0.00     0.041 C 
BRANCH  81  86
HETATM   86  O   UNK N   1      38.372   9.628   8.505  0.00  0.00    -0.391 OA
HETATM   87  H   UNK N   1      38.889   8.898   8.880  0.00  0.00     0.210 HD
ENDBRANCH  81  86
BRANCH  83  88
HETATM   88  N   UNK N   1      35.717   9.712   9.339  0.00  0.00    -0.406 N 
HETATM   89  H   UNK N   1      35.494   8.731   9.173  0.00  0.00     0.154 HD
BRANCH  88  90
HETATM   90  C   UNK N   1      35.651  10.332  10.646  0.00  0.00     0.153 C 
BRANCH  90  91
HETATM   91  C   UNK N   1      35.011   9.552  11.738  0.00  0.00    -0.041 C 
HETATM   92  C   UNK N   1      33.875  10.170  12.258  0.00  0.00     0.009 C 
HETATM   93  C   UNK N   1      33.810  10.440  13.617  0.00  0.00     0.013 C 
HETATM   94  C   UNK N   1      34.882  10.072  14.441  0.00  0.00    -0.026 C 
HETATM   95  C   UNK N   1      35.887   9.239  13.946  0.00  0.00     0.013 C 
HETATM   96  C   UNK N   1      35.939   8.972  12.597  0.00  0.00     0.009 C 
BRANCH  94  97
HETATM   97  C   UNK N   1      35.130  10.811  15.684  0.00  0.00    -0.026 A 
HETATM   98  C   UNK N   1      35.386  10.123  16.878  0.00  0.00     0.014 A 
HETATM   99  C   UNK N   1      35.446  10.817  18.087  0.00  0.00     0.024 A 
HETATM  100  C   UNK N   1      35.221  12.196  18.112  0.00  0.00     0.034 A 
HETATM  101 Cl   UNK N   1      35.311  13.067  19.622  0.00  0.00    -0.084 Cl
HETATM  102  C   UNK N   1      34.940  12.885  16.931  0.00  0.00     0.024 A 
HETATM  103  C   UNK N   1      34.887  12.194  15.724  0.00  0.00     0.014 A 
ENDBRANCH  94  97
ENDBRANCH  90  91
ENDBRANCH  88  90
ENDBRANCH  83  88
ENDBRANCH  77  78
ENDBRANCH  69  77
ENDBRANCH  63  64
ENDBRANCH  15  63
BRANCH  16 104
HETATM  104  O   UNK N   1      38.479  11.812  -1.691  0.00  0.00    -0.349 OA
BRANCH 104 105
HETATM  105  C   UNK N   1      38.378  12.647  -2.808  0.00  0.00     0.263 C 
HETATM  106  O   UNK N   1      37.540  13.722  -2.432  0.00  0.00    -0.354 OA
HETATM  107  C   UNK N   1      37.654  14.722  -3.397  0.00  0.00     0.151 C 
HETATM  108  C   UNK N   1      38.951  15.509  -3.172  0.00  0.00     0.174 C 
HETATM  109  C   UNK N   1      36.436  15.620  -3.366  0.00  0.00     0.042 C 
HETATM  110  C   UNK N   1      40.118  14.547  -2.817  0.00  0.00     0.052 C 
HETATM  111  C   UNK N   1      39.798  13.110  -3.260  0.00  0.00     0.093 C 
HETATM  112  C   UNK N   1      40.330  14.560  -1.312  0.00  0.00     0.041 C 
BRANCH 108 113
HETATM  113  O   UNK N   1      39.217  16.264  -4.317  0.00  0.00    -0.391 OA
HETATM  114  H   UNK N   1      39.824  16.369  -5.067  0.00  0.00     0.210 HD
ENDBRANCH 108 113
BRANCH 110 115
HETATM  115  N   UNK N   1      41.354  14.983  -3.447  0.00  0.00    -0.420 N 
HETATM  116  H   UNK N   1      41.861  14.524  -4.204  0.00  0.00     0.150 HD
HETATM  117  H   UNK N   1      41.762  15.847  -3.091  0.00  0.00     0.150 HD
ENDBRANCH 110 115
ENDBRANCH 104 105
ENDBRANCH  16 104
BRANCH  42 118
HETATM  118  C   UNK N   1      27.912  12.785   1.561  0.00  0.00     0.137 C 
BRANCH 118 119
HETATM  119  C   UNK N   1      26.598  12.094   1.447  0.00  0.00     0.217 C 
HETATM  120  O   UNK N   1      25.566  12.682   1.724  0.00  0.00    -0.274 OA
HETATM  121  N   UNK N   1      26.553  10.813   1.032  0.00  0.00    -0.370 N 
HETATM  122  H   UNK N   1      26.128  10.112   1.577  0.00  0.00     0.159 HD
HETATM  123  H   UNK N   1      26.952  10.575   0.166  0.00  0.00     0.159 HD
ENDBRANCH 118 119
ENDBRANCH  42 118
BRANCH  52 124
HETATM  124  O   UNK N   1      26.688  16.819   7.211  0.00  0.00    -0.388 OA
HETATM  125  H   UNK N   1      25.906  16.770   7.784  0.00  0.00     0.210 HD
ENDBRANCH  52 124
BRANCH  54 126
HETATM  126  N   UNK N   1      25.698  16.052   3.976  0.00  0.00    -0.343 N 
HETATM  127  C   UNK N   1      24.350  16.144   4.046  0.00  0.00     0.240 C 
HETATM  128  O   UNK N   1      23.726  16.447   3.044  0.00  0.00    -0.271 OA
HETATM  129  H   UNK N   1      26.155  16.244   3.125  0.00  0.00     0.163 HD
BRANCH 127 130
HETATM  130  C   UNK N   1      23.581  15.849   5.325  0.00  0.00     0.169 C 
BRANCH 130 131
HETATM  131  N   UNK N   1      22.217  16.340   5.227  0.00  0.00    -0.413 N 
HETATM  132  C   UNK N   1      22.145  17.527   6.062  0.00  0.00     0.140 C 
HETATM  133  H   UNK N   1      21.459  15.932   4.679  0.00  0.00     0.153 HD
ENDBRANCH 130 131
BRANCH 130 134
HETATM  134  C   UNK N   1      23.562  14.375   5.765  0.00  0.00     0.038 C 
BRANCH 134 135
HETATM  135  C   UNK N   1      23.675  14.162   7.269  0.00  0.00    -0.020 C 
HETATM  136  C   UNK N   1      24.895  13.310   7.566  0.00  0.00     0.009 C 
HETATM  137  C   UNK N   1      22.452  13.445   7.792  0.00  0.00     0.009 C 
ENDBRANCH 134 135
ENDBRANCH 130 134
ENDBRANCH 127 130
ENDBRANCH  54 126
BRANCH  34 138
HETATM  138  C   UNK N   1      34.222   7.952  -1.074  0.00  0.00     0.168 C 
HETATM  139  O   UNK N   1      35.067   7.072  -1.007  0.00  0.00    -0.648 OA
BRANCH 138 140
HETATM  140  O   UNK N   1      33.457   8.218  -0.001  0.00  0.00    -0.775 OA
HETATM  141  H   UNK N   1      32.907   7.647   0.500  0.00  0.00     0.167 HD
ENDBRANCH 138 140
ENDBRANCH  34 138
BRANCH  48 142
HETATM  142  O   UNK N   1      28.723   8.851  -2.233  0.00  0.00    -0.360 OA
HETATM  143  H   UNK N   1      28.197   8.496  -1.544  0.00  0.00     0.217 HD
ENDBRANCH  48 142
BRANCH  53 144
HETATM  144  O   UNK N   1      29.454   7.741  -4.239  0.00  0.00    -0.360 OA
HETATM  145  H   UNK N   1      28.831   7.062  -4.412  0.00  0.00     0.217 HD
ENDBRANCH  53 144
BRANCH  55 146
HETATM  146  O   UNK N   1      33.151   5.155  -5.534  0.00  0.00    -0.361 OA
HETATM  147  H   UNK N   1      32.714   4.858  -6.307  0.00  0.00     0.217 HD
ENDBRANCH  55 146
TORSDOF 30
ENDMDL
MODEL 5
REMARK VINA RESULT:      -7.4     12.014     20.156
REMARK  30 active torsions:
REMARK  status: ('A' for Active; 'I' for Inactive)
REMARK    1  A    between atoms: C_43  and  O_5 
REMARK    2  A    between atoms: C_46  and  O_5 
REMARK    3  A    between atoms: C_41  and  O_6 
REMARK    4  A    between atoms: C_47  and  O_8 
REMARK    5  A    between atoms: C_48  and  O_9 
REMARK    6  A    between atoms: O_9  and  C_61 
REMARK    7  A    between atoms: C_50  and  O_10 
REMARK    8  A    between atoms: C_59  and  O_12 
REMARK    9  A    between atoms: C_65  and  O_12 
REMARK   10  A    between atoms: C_54  and  O_13 
REMARK   11  A    between atoms: O_14  and  C_55 
REMARK   12  A    between atoms: O_21  and  C_103 
REMARK   13  A    between atoms: O_23  and  C_107 
REMARK   14  A    between atoms: C_111  and  O_24 
REMARK   15  A    between atoms: O_25  and  C_112 
REMARK   16  A    between atoms: O_26  and  C_115 
REMARK   17  A    between atoms: C_40  and  N_30 
REMARK   18  A    between atoms: N_30  and  C_52 
REMARK   19  A    between atoms: C_53  and  N_31 
REMARK   20  A    between atoms: C_113  and  N_37 
REMARK       I    between atoms: N_37  and  C_119 
REMARK       I    between atoms: N_38  and  C_118 
REMARK   21  A    between atoms: C_120  and  N_39 
REMARK   22  A    between atoms: C_51  and  C_55 
REMARK   23  A    between atoms: C_52  and  C_56 
REMARK   24  A    between atoms: C_71  and  C_78 
REMARK   25  A    between atoms: C_87  and  C_103 
REMARK   26  A    between atoms: C_99  and  C_114 
REMARK   27  A    between atoms: C_114  and  C_118 
REMARK   28  A    between atoms: C_119  and  C_120 
REMARK   29  A    between atoms: C_120  and  C_121 
REMARK   30  A    between atoms: C_121  and  C_122 
ROOT
HETATM    1 Cl   UNK N   1      40.542   7.613   4.800  0.00  0.00    -0.114 Cl
HETATM    2 Cl   UNK N   1      38.153   4.561  14.029  0.00  0.00    -0.081 Cl
HETATM    3  O   UNK N   1      39.987   7.215   8.356  0.00  0.00    -0.310 OA
HETATM    4  O   UNK N   1      39.878   6.884  13.126  0.00  0.00    -0.306 OA
HETATM    5  O   UNK N   1      38.432  14.188   4.165  0.00  0.00    -0.271 OA
HETATM    6  O   UNK N   1      39.011  13.453   8.035  0.00  0.00    -0.271 OA
HETATM    7  O   UNK N   1      35.273   9.446   9.248  0.00  0.00    -0.271 OA
HETATM    8  O   UNK N   1      36.033   8.267  13.205  0.00  0.00    -0.271 OA
HETATM    9  O   UNK N   1      35.482   7.579  15.723  0.00  0.00    -0.271 OA
HETATM   10  N   UNK N   1      37.531  12.157   6.941  0.00  0.00    -0.343 N 
HETATM   11  N   UNK N   1      36.602  14.456   5.398  0.00  0.00    -0.341 N 
HETATM   12  N   UNK N   1      36.429  11.310   9.125  0.00  0.00    -0.342 N 
HETATM   13  N   UNK N   1      36.438  10.245  12.205  0.00  0.00    -0.342 N 
HETATM   14  N   UNK N   1      35.973   9.775  15.736  0.00  0.00    -0.345 N 
HETATM   15  C   UNK N   1      39.907   6.978  10.773  0.00  0.00     0.139 A 
HETATM   16  C   UNK N   1      39.464  11.798   5.556  0.00  0.00     0.189 C 
HETATM   17  C   UNK N   1      38.012  12.350   5.586  0.00  0.00     0.210 C 
HETATM   18  C   UNK N   1      39.581   7.659   9.589  0.00  0.00     0.112 A 
HETATM   19  C   UNK N   1      39.571   7.537  12.015  0.00  0.00     0.113 A 
HETATM   20  C   UNK N   1      39.521  10.351   5.978  0.00  0.00    -0.029 C 
HETATM   21  C   UNK N   1      38.779   8.813   9.698  0.00  0.00     0.050 A 
HETATM   22  C   UNK N   1      38.327   9.290  10.915  0.00  0.00    -0.021 A 
HETATM   23  C   UNK N   1      38.785   8.686  12.072  0.00  0.00     0.050 A 
HETATM   24  C   UNK N   1      37.723  13.746   5.056  0.00  0.00     0.244 C 
HETATM   25  C   UNK N   1      36.868   9.621  10.962  0.00  0.00     0.210 C 
HETATM   26  C   UNK N   1      40.747   9.698   6.060  0.00  0.00     0.010 C 
HETATM   27  C   UNK N   1      38.347   9.644   6.316  0.00  0.00     0.012 C 
HETATM   28  C   UNK N   1      39.718   7.903   7.209  0.00  0.00     0.075 C 
HETATM   29  C   UNK N   1      40.767   8.346   6.388  0.00  0.00     0.163 C 
HETATM   30  C   UNK N   1      38.446   8.449   7.006  0.00  0.00     0.035 C 
HETATM   31  C   UNK N   1      38.071  12.672   8.084  0.00  0.00     0.245 C 
HETATM   32  C   UNK N   1      37.436  12.301   9.422  0.00  0.00     0.210 C 
HETATM   33  C   UNK N   1      36.161  10.137   9.728  0.00  0.00     0.246 C 
HETATM   34  C   UNK N   1      35.595  14.086   6.390  0.00  0.00     0.217 C 
HETATM   35  C   UNK N   1      39.380   7.045  14.351  0.00  0.00     0.098 A 
HETATM   36  C   UNK N   1      36.631  13.432   9.972  0.00  0.00    -0.025 A 
HETATM   37  C   UNK N   1      34.646  15.234   6.695  0.00  0.00    -0.009 A 
HETATM   38  C   UNK N   1      35.993   9.488  13.262  0.00  0.00     0.241 C 
HETATM   39  C   UNK N   1      35.971  14.197   9.034  0.00  0.00     0.025 A 
HETATM   40  C   UNK N   1      34.227  15.608   8.036  0.00  0.00     0.019 A 
HETATM   41  C   UNK N   1      34.802  14.892   9.256  0.00  0.00     0.011 A 
HETATM   42  C   UNK N   1      35.365  10.125  14.472  0.00  0.00     0.185 C 
HETATM   43  C   UNK N   1      38.622   6.004  14.911  0.00  0.00     0.068 A 
HETATM   44  C   UNK N   1      39.640   8.212  15.079  0.00  0.00     0.040 A 
HETATM   45  C   UNK N   1      36.083  13.334  11.249  0.00  0.00     0.012 A 
HETATM   46  C   UNK N   1      34.115  15.900   5.586  0.00  0.00     0.047 A 
HETATM   47  C   UNK N   1      38.380   7.286  16.912  0.00  0.00    -0.025 A 
HETATM   48  C   UNK N   1      34.249  14.787  10.572  0.00  0.00     0.076 A 
HETATM   49  C   UNK N   1      34.920  14.041  11.556  0.00  0.00     0.038 A 
HETATM   50  C   UNK N   1      38.136   6.135  16.178  0.00  0.00     0.036 A 
HETATM   51  C   UNK N   1      39.117   8.342  16.360  0.00  0.00     0.012 A 
HETATM   52  C   UNK N   1      37.569   7.494  18.122  0.00  0.00     0.183 C 
HETATM   53  C   UNK N   1      33.278  16.667   8.145  0.00  0.00     0.080 A 
HETATM   54  C   UNK N   1      36.382   8.404  17.762  0.00  0.00     0.210 C 
HETATM   55  C   UNK N   1      33.207  16.930   5.738  0.00  0.00     0.069 A 
HETATM   56  C   UNK N   1      35.940   8.544  16.316  0.00  0.00     0.244 C 
HETATM   57  C   UNK N   1      32.789  17.305   7.005  0.00  0.00     0.074 A 
HETATM   58  H   UNK N   1      36.728  11.597   7.048  0.00  0.00     0.163 HD
HETATM   59  H   UNK N   1      36.459  15.306   4.925  0.00  0.00     0.163 HD
HETATM   60  H   UNK N   1      35.847  11.525   8.361  0.00  0.00     0.163 HD
HETATM   61  H   UNK N   1      36.466  11.226  12.290  0.00  0.00     0.163 HD
HETATM   62  H   UNK N   1      36.450  10.488  16.219  0.00  0.00     0.163 HD
ENDROOT
BRANCH  15  63
HETATM   63  O   UNK N   1      40.503   5.740  10.682  0.00  0.00    -0.312 OA
BRANCH  63  64
HETATM   64  C   UNK N   1      39.936   4.479  10.525  0.00  0.00     0.298 C 
HETATM   65  O   UNK N   1      38.523   4.459  10.510  0.00  0.00    -0.348 OA
HETATM   66  C   UNK N   1      37.951   3.160  10.566  0.00  0.00     0.179 C 
HETATM   67  C   UNK N   1      38.590   2.203  11.599  0.00  0.00     0.180 C 
HETATM   68  C   UNK N   1      40.082   2.114  11.402  0.00  0.00     0.183 C 
HETATM   69  C   UNK N   1      40.601   3.532  11.529  0.00  0.00     0.211 C 
BRANCH  66  70
HETATM   70  C   UNK N   1      37.730   2.595   9.175  0.00  0.00     0.198 C 
BRANCH  70  71
HETATM   71  O   UNK N   1      37.168   1.322   9.280  0.00  0.00    -0.398 OA
HETATM   72  H   UNK N   1      36.229   1.204   9.496  0.00  0.00     0.209 HD
ENDBRANCH  70  71
ENDBRANCH  66  70
BRANCH  67  73
HETATM   73  O   UNK N   1      38.025   0.928  11.554  0.00  0.00    -0.390 OA
HETATM   74  H   UNK N   1      38.495   0.134  11.254  0.00  0.00     0.210 HD
ENDBRANCH  67  73
BRANCH  68  75
HETATM   75  O   UNK N   1      40.371   1.577  10.142  0.00  0.00    -0.390 OA
HETATM   76  H   UNK N   1      41.205   1.214   9.803  0.00  0.00     0.210 HD
ENDBRANCH  68  75
BRANCH  69  77
HETATM   77  O   UNK N   1      42.003   3.587  11.440  0.00  0.00    -0.348 OA
BRANCH  77  78
HETATM   78  C   UNK N   1      42.528   3.398  12.727  0.00  0.00     0.263 C 
HETATM   79  O   UNK N   1      41.775   4.166  13.643  0.00  0.00    -0.354 OA
HETATM   80  C   UNK N   1      42.532   4.272  14.810  0.00  0.00     0.151 C 
HETATM   81  C   UNK N   1      43.695   5.248  14.590  0.00  0.00     0.174 C 
HETATM   82  C   UNK N   1      41.662   4.667  15.980  0.00  0.00     0.042 C 
HETATM   83  C   UNK N   1      44.220   5.144  13.117  0.00  0.00     0.055 C 
HETATM   84  C   UNK N   1      44.036   3.719  12.679  0.00  0.00     0.093 C 
HETATM   85  C   UNK N   1      43.432   6.044  12.159  0.00  0.00     0.041 C 
BRANCH  81  86
HETATM   86  O   UNK N   1      44.686   4.937  15.524  0.00  0.00    -0.391 OA
HETATM   87  H   UNK N   1      45.451   4.465  15.889  0.00  0.00     0.210 HD
ENDBRANCH  81  86
BRANCH  83  88
HETATM   88  N   UNK N   1      45.627   5.455  12.957  0.00  0.00    -0.406 N 
HETATM   89  H   UNK N   1      46.101   6.193  13.477  0.00  0.00     0.154 HD
BRANCH  88  90
HETATM   90  C   UNK N   1      46.295   4.616  11.984  0.00  0.00     0.153 C 
BRANCH  90  91
HETATM   91  C   UNK N   1      46.868   5.284  10.786  0.00  0.00    -0.041 C 
HETATM   92  C   UNK N   1      47.342   6.568  11.051  0.00  0.00     0.009 C 
HETATM   93  C   UNK N   1      46.854   7.638  10.317  0.00  0.00     0.013 C 
HETATM   94  C   UNK N   1      45.904   7.405   9.314  0.00  0.00    -0.026 C 
HETATM   95  C   UNK N   1      45.633   6.100   8.902  0.00  0.00     0.013 C 
HETATM   96  C   UNK N   1      46.128   5.044   9.633  0.00  0.00     0.009 C 
BRANCH  94  97
HETATM   97  C   UNK N   1      44.966   8.470   8.940  0.00  0.00    -0.026 A 
HETATM   98  C   UNK N   1      45.443   9.711   8.498  0.00  0.00     0.014 A 
HETATM   99  C   UNK N   1      44.559  10.775   8.312  0.00  0.00     0.024 A 
HETATM  100  C   UNK N   1      43.201  10.612   8.597  0.00  0.00     0.034 A 
HETATM  101 Cl   UNK N   1      42.093  11.938   8.350  0.00  0.00    -0.084 Cl
HETATM  102  C   UNK N   1      42.721   9.387   9.063  0.00  0.00     0.024 A 
HETATM  103  C   UNK N   1      43.601   8.324   9.241  0.00  0.00     0.014 A 
ENDBRANCH  94  97
ENDBRANCH  90  91
ENDBRANCH  88  90
ENDBRANCH  83  88
ENDBRANCH  77  78
ENDBRANCH  69  77
ENDBRANCH  63  64
ENDBRANCH  15  63
BRANCH  16 104
HETATM  104  O   UNK N   1      40.321  12.103   4.477  0.00  0.00    -0.349 OA
BRANCH 104 105
HETATM  105  C   UNK N   1      41.487  12.741   4.912  0.00  0.00     0.263 C 
HETATM  106  O   UNK N   1      42.570  12.029   4.348  0.00  0.00    -0.354 OA
HETATM  107  C   UNK N   1      43.724  12.797   4.501  0.00  0.00     0.151 C 
HETATM  108  C   UNK N   1      43.752  13.901   3.437  0.00  0.00     0.174 C 
HETATM  109  C   UNK N   1      44.952  11.915   4.432  0.00  0.00     0.042 C 
HETATM  110  C   UNK N   1      42.341  14.529   3.265  0.00  0.00     0.052 C 
HETATM  111  C   UNK N   1      41.461  14.244   4.494  0.00  0.00     0.093 C 
HETATM  112  C   UNK N   1      41.677  13.927   2.037  0.00  0.00     0.041 C 
BRANCH 108 113
HETATM  113  O   UNK N   1      44.711  14.848   3.804  0.00  0.00    -0.391 OA
HETATM  114  H   UNK N   1      45.261  15.169   4.536  0.00  0.00     0.210 HD
ENDBRANCH 108 113
BRANCH 110 115
HETATM  115  N   UNK N   1      42.438  15.966   3.062  0.00  0.00    -0.420 N 
HETATM  116  H   UNK N   1      42.390  16.698   3.772  0.00  0.00     0.150 HD
HETATM  117  H   UNK N   1      42.569  16.278   2.101  0.00  0.00     0.150 HD
ENDBRANCH 110 115
ENDBRANCH 104 105
ENDBRANCH  16 104
BRANCH  42 118
HETATM  118  C   UNK N   1      35.298  11.635  14.364  0.00  0.00     0.137 C 
BRANCH 118 119
HETATM  119  C   UNK N   1      36.353  12.236  15.226  0.00  0.00     0.217 C 
HETATM  120  O   UNK N   1      36.150  12.413  16.416  0.00  0.00    -0.274 OA
HETATM  121  N   UNK N   1      37.538  12.579  14.688  0.00  0.00    -0.370 N 
HETATM  122  H   UNK N   1      37.888  13.496  14.759  0.00  0.00     0.159 HD
HETATM  123  H   UNK N   1      38.066  11.898  14.213  0.00  0.00     0.159 HD
ENDBRANCH 118 119
ENDBRANCH  42 118
BRANCH  52 124
HETATM  124  O   UNK N   1      37.074   6.268  18.576  0.00  0.00    -0.388 OA
HETATM  125  H   UNK N   1      36.401   5.932  19.189  0.00  0.00     0.210 HD
ENDBRANCH  52 124
BRANCH  54 126
HETATM  126  N   UNK N   1      36.526   9.688  18.377  0.00  0.00    -0.343 N 
HETATM  127  C   UNK N   1      35.932   9.958  19.563  0.00  0.00     0.240 C 
HETATM  128  O   UNK N   1      36.063  11.068  20.049  0.00  0.00    -0.271 OA
HETATM  129  H   UNK N   1      37.065  10.382  17.934  0.00  0.00     0.163 HD
BRANCH 127 130
HETATM  130  C   UNK N   1      35.077   8.935  20.295  0.00  0.00     0.169 C 
BRANCH 130 131
HETATM  131  N   UNK N   1      35.666   8.604  21.582  0.00  0.00    -0.413 N 
HETATM  132  C   UNK N   1      34.723   9.051  22.593  0.00  0.00     0.140 C 
HETATM  133  H   UNK N   1      36.564   8.148  21.744  0.00  0.00     0.153 HD
ENDBRANCH 130 131
BRANCH 130 134
HETATM  134  C   UNK N   1      33.601   9.321  20.494  0.00  0.00     0.038 C 
BRANCH 134 135
HETATM  135  C   UNK N   1      32.618   8.518  19.653  0.00  0.00    -0.020 C 
HETATM  136  C   UNK N   1      31.247   8.562  20.301  0.00  0.00     0.009 C 
HETATM  137  C   UNK N   1      33.058   7.075  19.563  0.00  0.00     0.009 C 
ENDBRANCH 134 135
ENDBRANCH 130 134
ENDBRANCH 127 130
ENDBRANCH  54 126
BRANCH  34 138
HETATM  138  C   UNK N   1      34.818  12.829   6.090  0.00  0.00     0.168 C 
HETATM  139  O   UNK N   1      34.525  12.075   7.005  0.00  0.00    -0.648 OA
BRANCH 138 140
HETATM  140  O   UNK N   1      34.470  12.509   4.831  0.00  0.00    -0.775 OA
HETATM  141  H   UNK N   1      34.643  11.729   4.341  0.00  0.00     0.167 HD
ENDBRANCH 138 140
ENDBRANCH  34 138
BRANCH  48 142
HETATM  142  O   UNK N   1      33.062  15.313  10.900  0.00  0.00    -0.360 OA
HETATM  143  H   UNK N   1      32.592  15.890  10.332  0.00  0.00     0.217 HD
ENDBRANCH  48 142
BRANCH  53 144
HETATM  144  O   UNK N   1      32.852  17.124   9.328  0.00  0.00    -0.360 OA
HETATM  145  H   UNK N   1      33.133  17.943   9.687  0.00  0.00     0.217 HD
ENDBRANCH  53 144
BRANCH  55 146
HETATM  146  O   UNK N   1      32.734  17.568   4.657  0.00  0.00    -0.361 OA
HETATM  147  H   UNK N   1      32.624  17.123   3.840  0.00  0.00     0.217 HD
ENDBRANCH  55 146
TORSDOF 30
ENDMDL
MODEL 6
REMARK VINA RESULT:      -7.4      6.232     13.721
REMARK  30 active torsions:
REMARK  status: ('A' for Active; 'I' for Inactive)
REMARK    1  A    between atoms: C_43  and  O_5 
REMARK    2  A    between atoms: C_46  and  O_5 
REMARK    3  A    between atoms: C_41  and  O_6 
REMARK    4  A    between atoms: C_47  and  O_8 
REMARK    5  A    between atoms: C_48  and  O_9 
REMARK    6  A    between atoms: O_9  and  C_61 
REMARK    7  A    between atoms: C_50  and  O_10 
REMARK    8  A    between atoms: C_59  and  O_12 
REMARK    9  A    between atoms: C_65  and  O_12 
REMARK   10  A    between atoms: C_54  and  O_13 
REMARK   11  A    between atoms: O_14  and  C_55 
REMARK   12  A    between atoms: O_21  and  C_103 
REMARK   13  A    between atoms: O_23  and  C_107 
REMARK   14  A    between atoms: C_111  and  O_24 
REMARK   15  A    between atoms: O_25  and  C_112 
REMARK   16  A    between atoms: O_26  and  C_115 
REMARK   17  A    between atoms: C_40  and  N_30 
REMARK   18  A    between atoms: N_30  and  C_52 
REMARK   19  A    between atoms: C_53  and  N_31 
REMARK   20  A    between atoms: C_113  and  N_37 
REMARK       I    between atoms: N_37  and  C_119 
REMARK       I    between atoms: N_38  and  C_118 
REMARK   21  A    between atoms: C_120  and  N_39 
REMARK   22  A    between atoms: C_51  and  C_55 
REMARK   23  A    between atoms: C_52  and  C_56 
REMARK   24  A    between atoms: C_71  and  C_78 
REMARK   25  A    between atoms: C_87  and  C_103 
REMARK   26  A    between atoms: C_99  and  C_114 
REMARK   27  A    between atoms: C_114  and  C_118 
REMARK   28  A    between atoms: C_119  and  C_120 
REMARK   29  A    between atoms: C_120  and  C_121 
REMARK   30  A    between atoms: C_121  and  C_122 
ROOT
HETATM    1 Cl   UNK N   1      39.746  14.385   7.294  0.00  0.00    -0.114 Cl
HETATM    2 Cl   UNK N   1      38.625   8.844  -0.965  0.00  0.00    -0.081 Cl
HETATM    3  O   UNK N   1      38.792  11.996   4.745  0.00  0.00    -0.310 OA
HETATM    4  O   UNK N   1      37.595   8.384   1.848  0.00  0.00    -0.306 OA
HETATM    5  O   UNK N   1      33.409  16.028   9.580  0.00  0.00    -0.271 OA
HETATM    6  O   UNK N   1      33.112  12.688   7.434  0.00  0.00    -0.271 OA
HETATM    7  O   UNK N   1      34.682  14.228   2.271  0.00  0.00    -0.271 OA
HETATM    8  O   UNK N   1      34.816  10.718  -0.030  0.00  0.00    -0.271 OA
HETATM    9  O   UNK N   1      34.426   9.138  -2.144  0.00  0.00    -0.271 OA
HETATM   10  N   UNK N   1      33.957  14.507   6.413  0.00  0.00    -0.343 N 
HETATM   11  N   UNK N   1      32.062  16.224   7.823  0.00  0.00    -0.341 N 
HETATM   12  N   UNK N   1      33.582  13.539   4.042  0.00  0.00    -0.342 N 
HETATM   13  N   UNK N   1      33.575  11.180   1.794  0.00  0.00    -0.342 N 
HETATM   14  N   UNK N   1      32.728   8.755  -0.718  0.00  0.00    -0.345 N 
HETATM   15  C   UNK N   1      38.236  10.184   3.226  0.00  0.00     0.139 A 
HETATM   16  C   UNK N   1      35.470  14.365   8.277  0.00  0.00     0.189 C 
HETATM   17  C   UNK N   1      34.395  15.245   7.583  0.00  0.00     0.210 C 
HETATM   18  C   UNK N   1      37.873  11.288   4.015  0.00  0.00     0.112 A 
HETATM   19  C   UNK N   1      37.242   9.420   2.596  0.00  0.00     0.113 A 
HETATM   20  C   UNK N   1      36.614  14.044   7.349  0.00  0.00    -0.029 C 
HETATM   21  C   UNK N   1      36.518  11.678   4.010  0.00  0.00     0.050 A 
HETATM   22  C   UNK N   1      35.556  11.009   3.274  0.00  0.00    -0.021 A 
HETATM   23  C   UNK N   1      35.914   9.841   2.626  0.00  0.00     0.050 A 
HETATM   24  C   UNK N   1      33.233  15.799   8.394  0.00  0.00     0.244 C 
HETATM   25  C   UNK N   1      34.663  11.887   2.454  0.00  0.00     0.210 C 
HETATM   26  C   UNK N   1      37.651  13.222   7.780  0.00  0.00     0.010 C 
HETATM   27  C   UNK N   1      36.645  14.545   6.029  0.00  0.00     0.012 C 
HETATM   28  C   UNK N   1      38.434  13.035   5.555  0.00  0.00     0.075 C 
HETATM   29  C   UNK N   1      38.727  12.994   6.927  0.00  0.00     0.163 C 
HETATM   30  C   UNK N   1      37.508  13.982   5.107  0.00  0.00     0.035 C 
HETATM   31  C   UNK N   1      33.388  13.267   6.393  0.00  0.00     0.245 C 
HETATM   32  C   UNK N   1      33.047  12.644   5.042  0.00  0.00     0.210 C 
HETATM   33  C   UNK N   1      34.302  13.275   2.937  0.00  0.00     0.246 C 
HETATM   34  C   UNK N   1      31.673  16.104   6.420  0.00  0.00     0.217 C 
HETATM   35  C   UNK N   1      36.886   7.747   0.919  0.00  0.00     0.098 A 
HETATM   36  C   UNK N   1      31.579  12.696   4.776  0.00  0.00    -0.025 A 
HETATM   37  C   UNK N   1      30.205  16.438   6.205  0.00  0.00    -0.009 A 
HETATM   38  C   UNK N   1      33.729  10.665   0.529  0.00  0.00     0.241 C 
HETATM   39  C   UNK N   1      30.932  13.818   5.250  0.00  0.00     0.025 A 
HETATM   40  C   UNK N   1      29.307  15.655   5.371  0.00  0.00     0.019 A 
HETATM   41  C   UNK N   1      29.791  14.366   4.708  0.00  0.00     0.011 A 
HETATM   42  C   UNK N   1      32.560  10.108  -0.237  0.00  0.00     0.185 C 
HETATM   43  C   UNK N   1      37.306   7.823  -0.418  0.00  0.00     0.068 A 
HETATM   44  C   UNK N   1      35.766   6.987   1.274  0.00  0.00     0.040 A 
HETATM   45  C   UNK N   1      31.055  12.057   3.653  0.00  0.00     0.012 A 
HETATM   46  C   UNK N   1      29.749  17.612   6.809  0.00  0.00     0.047 A 
HETATM   47  C   UNK N   1      35.499   6.392  -1.045  0.00  0.00    -0.025 A 
HETATM   48  C   UNK N   1      29.260  13.702   3.557  0.00  0.00     0.076 A 
HETATM   49  C   UNK N   1      29.880  12.536   3.074  0.00  0.00     0.038 A 
HETATM   50  C   UNK N   1      36.614   7.147  -1.379  0.00  0.00     0.036 A 
HETATM   51  C   UNK N   1      35.054   6.323   0.281  0.00  0.00     0.012 A 
HETATM   52  C   UNK N   1      34.625   5.964  -2.149  0.00  0.00     0.183 C 
HETATM   53  C   UNK N   1      27.976  16.141   5.219  0.00  0.00     0.080 A 
HETATM   54  C   UNK N   1      33.466   6.968  -2.270  0.00  0.00     0.210 C 
HETATM   55  C   UNK N   1      28.445  18.041   6.647  0.00  0.00     0.069 A 
HETATM   56  C   UNK N   1      33.601   8.362  -1.684  0.00  0.00     0.244 C 
HETATM   57  C   UNK N   1      27.570  17.314   5.856  0.00  0.00     0.074 A 
HETATM   58  H   UNK N   1      34.082  14.948   5.542  0.00  0.00     0.163 HD
HETATM   59  H   UNK N   1      31.413  16.658   8.422  0.00  0.00     0.163 HD
HETATM   60  H   UNK N   1      33.390  14.492   4.194  0.00  0.00     0.163 HD
HETATM   61  H   UNK N   1      32.715  11.069   2.260  0.00  0.00     0.163 HD
HETATM   62  H   UNK N   1      32.161   8.059  -0.312  0.00  0.00     0.163 HD
ENDROOT
BRANCH  15  63
HETATM   63  O   UNK N   1      39.574   9.912   3.044  0.00  0.00    -0.312 OA
BRANCH  63  64
HETATM   64  C   UNK N   1      40.687  10.730   3.207  0.00  0.00     0.298 C 
HETATM   65  O   UNK N   1      41.307  11.140   2.005  0.00  0.00    -0.348 OA
HETATM   66  C   UNK N   1      42.557  11.791   2.179  0.00  0.00     0.179 C 
HETATM   67  C   UNK N   1      43.514  11.119   3.191  0.00  0.00     0.180 C 
HETATM   68  C   UNK N   1      42.836  10.916   4.522  0.00  0.00     0.183 C 
HETATM   69  C   UNK N   1      41.611  10.071   4.238  0.00  0.00     0.211 C 
BRANCH  66  70
HETATM   70  C   UNK N   1      42.383  13.292   2.315  0.00  0.00     0.198 C 
BRANCH  70  71
HETATM   71  O   UNK N   1      41.405  13.725   1.418  0.00  0.00    -0.398 OA
HETATM   72  H   UNK N   1      40.736  13.114   1.072  0.00  0.00     0.209 HD
ENDBRANCH  70  71
ENDBRANCH  66  70
BRANCH  67  73
HETATM   73  O   UNK N   1      44.694  11.845   3.361  0.00  0.00    -0.390 OA
HETATM   74  H   UNK N   1      45.133  11.979   4.216  0.00  0.00     0.210 HD
ENDBRANCH  67  73
BRANCH  68  75
HETATM   75  O   UNK N   1      42.485  12.152   5.078  0.00  0.00    -0.390 OA
HETATM   76  H   UNK N   1      42.887  13.025   4.942  0.00  0.00     0.210 HD
ENDBRANCH  68  75
BRANCH  69  77
HETATM   77  O   UNK N   1      40.917   9.740   5.414  0.00  0.00    -0.348 OA
BRANCH  77  78
HETATM   78  C   UNK N   1      41.575   8.656   6.015  0.00  0.00     0.263 C 
HETATM   79  O   UNK N   1      41.702   7.618   5.065  0.00  0.00    -0.354 OA
HETATM   80  C   UNK N   1      41.988   6.448   5.769  0.00  0.00     0.151 C 
HETATM   81  C   UNK N   1      40.728   5.951   6.488  0.00  0.00     0.174 C 
HETATM   82  C   UNK N   1      42.581   5.402   4.855  0.00  0.00     0.042 C 
HETATM   83  C   UNK N   1      39.860   7.166   6.966  0.00  0.00     0.055 C 
HETATM   84  C   UNK N   1      40.806   8.284   7.299  0.00  0.00     0.093 C 
HETATM   85  C   UNK N   1      38.906   7.658   5.872  0.00  0.00     0.041 C 
BRANCH  81  86
HETATM   86  O   UNK N   1      41.143   5.150   7.555  0.00  0.00    -0.391 OA
HETATM   87  H   UNK N   1      41.138   4.383   8.150  0.00  0.00     0.210 HD
ENDBRANCH  81  86
BRANCH  83  88
HETATM   88  N   UNK N   1      39.073   6.911   8.157  0.00  0.00    -0.406 N 
HETATM   89  H   UNK N   1      38.667   6.002   8.376  0.00  0.00     0.154 HD
BRANCH  88  90
HETATM   90  C   UNK N   1      38.920   8.075   9.005  0.00  0.00     0.153 C 
BRANCH  90  91
HETATM   91  C   UNK N   1      37.545   8.614   9.179  0.00  0.00    -0.041 C 
HETATM   92  C   UNK N   1      36.572   7.619   9.253  0.00  0.00     0.009 C 
HETATM   93  C   UNK N   1      35.510   7.639   8.362  0.00  0.00     0.013 C 
HETATM   94  C   UNK N   1      35.430   8.668   7.414  0.00  0.00    -0.026 C 
HETATM   95  C   UNK N   1      36.267   9.778   7.521  0.00  0.00     0.013 C 
HETATM   96  C   UNK N   1      37.315   9.752   8.413  0.00  0.00     0.009 C 
BRANCH  94  97
HETATM   97  C   UNK N   1      34.725   8.437   6.148  0.00  0.00    -0.026 A 
HETATM   98  C   UNK N   1      33.603   9.206   5.811  0.00  0.00     0.014 A 
HETATM   99  C   UNK N   1      32.833   8.869   4.697  0.00  0.00     0.024 A 
HETATM  100  C   UNK N   1      33.163   7.747   3.933  0.00  0.00     0.034 A 
HETATM  101 Cl   UNK N   1      32.209   7.335   2.531  0.00  0.00    -0.084 Cl
HETATM  102  C   UNK N   1      34.264   6.961   4.277  0.00  0.00     0.024 A 
HETATM  103  C   UNK N   1      35.036   7.300   5.384  0.00  0.00     0.014 A 
ENDBRANCH  94  97
ENDBRANCH  90  91
ENDBRANCH  88  90
ENDBRANCH  83  88
ENDBRANCH  77  78
ENDBRANCH  69  77
ENDBRANCH  63  64
ENDBRANCH  15  63
BRANCH  16 104
HETATM  104  O   UNK N   1      35.881  14.649   9.597  0.00  0.00    -0.349 OA
BRANCH 104 105
HETATM  105  C   UNK N   1      35.205  13.855  10.528  0.00  0.00     0.263 C 
HETATM  106  O   UNK N   1      35.131  12.557   9.972  0.00  0.00    -0.354 OA
HETATM  107  C   UNK N   1      34.741  11.673  10.977  0.00  0.00     0.151 C 
HETATM  108  C   UNK N   1      35.946  11.343  11.867  0.00  0.00     0.174 C 
HETATM  109  C   UNK N   1      34.129  10.428  10.371  0.00  0.00     0.042 C 
HETATM  110  C   UNK N   1      36.782  12.622  12.149  0.00  0.00     0.052 C 
HETATM  111  C   UNK N   1      35.947  13.888  11.900  0.00  0.00     0.093 C 
HETATM  112  C   UNK N   1      37.988  12.640  11.224  0.00  0.00     0.041 C 
BRANCH 108 113
HETATM  113  O   UNK N   1      35.482  10.744  13.041  0.00  0.00    -0.391 OA
HETATM  114  H   UNK N   1      35.230  10.911  13.963  0.00  0.00     0.210 HD
ENDBRANCH 108 113
BRANCH 110 115
HETATM  115  N   UNK N   1      37.270  12.626  13.519  0.00  0.00    -0.420 N 
HETATM  116  H   UNK N   1      38.225  12.465  13.839  0.00  0.00     0.150 HD
HETATM  117  H   UNK N   1      36.577  12.811  14.244  0.00  0.00     0.150 HD
ENDBRANCH 110 115
ENDBRANCH 104 105
ENDBRANCH  16 104
BRANCH  42 118
HETATM  118  C   UNK N   1      31.262  10.192   0.543  0.00  0.00     0.137 C 
BRANCH 118 119
HETATM  119  C   UNK N   1      30.250  10.923  -0.267  0.00  0.00     0.217 C 
HETATM  120  O   UNK N   1      29.128  10.467  -0.411  0.00  0.00    -0.274 OA
HETATM  121  N   UNK N   1      30.577  12.098  -0.839  0.00  0.00    -0.370 N 
HETATM  122  H   UNK N   1      30.487  12.239  -1.809  0.00  0.00     0.159 HD
HETATM  123  H   UNK N   1      30.913  12.830  -0.275  0.00  0.00     0.159 HD
ENDBRANCH 118 119
ENDBRANCH  42 118
BRANCH  52 124
HETATM  124  O   UNK N   1      35.345   5.960  -3.347  0.00  0.00    -0.388 OA
HETATM  125  H   UNK N   1      35.379   6.454  -4.182  0.00  0.00     0.210 HD
ENDBRANCH  52 124
BRANCH  54 126
HETATM  126  N   UNK N   1      32.232   6.364  -1.870  0.00  0.00    -0.343 N 
HETATM  127  C   UNK N   1      31.142   6.421  -2.669  0.00  0.00     0.240 C 
HETATM  128  O   UNK N   1      30.104   5.909  -2.288  0.00  0.00    -0.271 OA
HETATM  129  H   UNK N   1      32.176   5.902  -1.002  0.00  0.00     0.163 HD
BRANCH 127 130
HETATM  130  C   UNK N   1      31.157   7.128  -4.016  0.00  0.00     0.169 C 
BRANCH 130 131
HETATM  131  N   UNK N   1      30.759   6.219  -5.076  0.00  0.00    -0.413 N 
HETATM  132  C   UNK N   1      31.844   6.212  -6.043  0.00  0.00     0.140 C 
HETATM  133  H   UNK N   1      29.888   5.689  -5.132  0.00  0.00     0.153 HD
ENDBRANCH 130 131
BRANCH 130 134
HETATM  134  C   UNK N   1      30.314   8.413  -4.102  0.00  0.00     0.038 C 
BRANCH 134 135
HETATM  135  C   UNK N   1      31.086   9.696  -3.824  0.00  0.00    -0.020 C 
HETATM  136  C   UNK N   1      30.159  10.886  -3.989  0.00  0.00     0.009 C 
HETATM  137  C   UNK N   1      32.231   9.843  -4.799  0.00  0.00     0.009 C 
ENDBRANCH 134 135
ENDBRANCH 130 134
ENDBRANCH 127 130
ENDBRANCH  54 126
BRANCH  34 138
HETATM  138  C   UNK N   1      32.531  16.864   5.441  0.00  0.00     0.168 C 
HETATM  139  O   UNK N   1      32.595  16.483   4.282  0.00  0.00    -0.648 OA
BRANCH 138 140
HETATM  140  O   UNK N   1      33.251  17.932   5.827  0.00  0.00    -0.775 OA
HETATM  141  H   UNK N   1      33.951  18.374   5.387  0.00  0.00     0.167 HD
ENDBRANCH 138 140
ENDBRANCH  34 138
BRANCH  48 142
HETATM  142  O   UNK N   1      28.226  14.184   2.858  0.00  0.00    -0.360 OA
HETATM  143  H   UNK N   1      27.763  13.672   2.225  0.00  0.00     0.217 HD
ENDBRANCH  48 142
BRANCH  53 144
HETATM  144  O   UNK N   1      27.052  15.482   4.511  0.00  0.00    -0.360 OA
HETATM  145  H   UNK N   1      27.005  14.546   4.484  0.00  0.00     0.217 HD
ENDBRANCH  53 144
BRANCH  55 146
HETATM  146  O   UNK N   1      28.028  19.158   7.261  0.00  0.00    -0.361 OA
HETATM  147  H   UNK N   1      27.528  19.805   6.803  0.00  0.00     0.217 HD
ENDBRANCH  55 146
TORSDOF 30
ENDMDL
MODEL 7
REMARK VINA RESULT:      -7.3     12.256     20.220
REMARK  30 active torsions:
REMARK  status: ('A' for Active; 'I' for Inactive)
REMARK    1  A    between atoms: C_43  and  O_5 
REMARK    2  A    between atoms: C_46  and  O_5 
REMARK    3  A    between atoms: C_41  and  O_6 
REMARK    4  A    between atoms: C_47  and  O_8 
REMARK    5  A    between atoms: C_48  and  O_9 
REMARK    6  A    between atoms: O_9  and  C_61 
REMARK    7  A    between atoms: C_50  and  O_10 
REMARK    8  A    between atoms: C_59  and  O_12 
REMARK    9  A    between atoms: C_65  and  O_12 
REMARK   10  A    between atoms: C_54  and  O_13 
REMARK   11  A    between atoms: O_14  and  C_55 
REMARK   12  A    between atoms: O_21  and  C_103 
REMARK   13  A    between atoms: O_23  and  C_107 
REMARK   14  A    between atoms: C_111  and  O_24 
REMARK   15  A    between atoms: O_25  and  C_112 
REMARK   16  A    between atoms: O_26  and  C_115 
REMARK   17  A    between atoms: C_40  and  N_30 
REMARK   18  A    between atoms: N_30  and  C_52 
REMARK   19  A    between atoms: C_53  and  N_31 
REMARK   20  A    between atoms: C_113  and  N_37 
REMARK       I    between atoms: N_37  and  C_119 
REMARK       I    between atoms: N_38  and  C_118 
REMARK   21  A    between atoms: C_120  and  N_39 
REMARK   22  A    between atoms: C_51  and  C_55 
REMARK   23  A    between atoms: C_52  and  C_56 
REMARK   24  A    between atoms: C_71  and  C_78 
REMARK   25  A    between atoms: C_87  and  C_103 
REMARK   26  A    between atoms: C_99  and  C_114 
REMARK   27  A    between atoms: C_114  and  C_118 
REMARK   28  A    between atoms: C_119  and  C_120 
REMARK   29  A    between atoms: C_120  and  C_121 
REMARK   30  A    between atoms: C_121  and  C_122 
ROOT
HETATM    1 Cl   UNK N   1      40.679   7.506   4.866  0.00  0.00    -0.114 Cl
HETATM    2 Cl   UNK N   1      38.065   4.349  13.997  0.00  0.00    -0.081 Cl
HETATM    3  O   UNK N   1      40.056   7.058   8.405  0.00  0.00    -0.310 OA
HETATM    4  O   UNK N   1      39.860   6.645  13.166  0.00  0.00    -0.306 OA
HETATM    5  O   UNK N   1      38.739  14.141   4.318  0.00  0.00    -0.271 OA
HETATM    6  O   UNK N   1      39.237  13.323   8.182  0.00  0.00    -0.271 OA
HETATM    7  O   UNK N   1      35.383   9.388   9.262  0.00  0.00    -0.271 OA
HETATM    8  O   UNK N   1      36.050   8.119  13.209  0.00  0.00    -0.271 OA
HETATM    9  O   UNK N   1      35.440   7.400  15.704  0.00  0.00    -0.271 OA
HETATM   10  N   UNK N   1      37.743  12.084   7.041  0.00  0.00    -0.343 N 
HETATM   11  N   UNK N   1      36.896  14.431   5.527  0.00  0.00    -0.341 N 
HETATM   12  N   UNK N   1      36.586  11.224   9.191  0.00  0.00    -0.342 N 
HETATM   13  N   UNK N   1      36.518  10.105  12.251  0.00  0.00    -0.342 N 
HETATM   14  N   UNK N   1      35.985   9.583  15.765  0.00  0.00    -0.345 N 
HETATM   15  C   UNK N   1      39.931   6.780  10.815  0.00  0.00     0.139 A 
HETATM   16  C   UNK N   1      39.689  11.702   5.681  0.00  0.00     0.189 C 
HETATM   17  C   UNK N   1      38.252  12.289   5.698  0.00  0.00     0.210 C 
HETATM   18  C   UNK N   1      39.640   7.490   9.639  0.00  0.00     0.112 A 
HETATM   19  C   UNK N   1      39.588   7.325  12.061  0.00  0.00     0.113 A 
HETATM   20  C   UNK N   1      39.705  10.247   6.077  0.00  0.00    -0.029 C 
HETATM   21  C   UNK N   1      38.865   8.662   9.756  0.00  0.00     0.050 A 
HETATM   22  C   UNK N   1      38.404   9.127  10.975  0.00  0.00    -0.021 A 
HETATM   23  C   UNK N   1      38.829   8.492  12.127  0.00  0.00     0.050 A 
HETATM   24  C   UNK N   1      38.005  13.701   5.189  0.00  0.00     0.244 C 
HETATM   25  C   UNK N   1      36.953   9.493  11.004  0.00  0.00     0.210 C 
HETATM   26  C   UNK N   1      40.913   9.563   6.167  0.00  0.00     0.010 C 
HETATM   27  C   UNK N   1      38.509   9.563   6.383  0.00  0.00     0.012 C 
HETATM   28  C   UNK N   1      39.822   7.774   7.266  0.00  0.00     0.075 C 
HETATM   29  C   UNK N   1      40.895   8.205   6.470  0.00  0.00     0.163 C 
HETATM   30  C   UNK N   1      38.568   8.354   7.053  0.00  0.00     0.035 C 
HETATM   31  C   UNK N   1      38.277  12.565   8.202  0.00  0.00     0.245 C 
HETATM   32  C   UNK N   1      37.611  12.186   9.522  0.00  0.00     0.210 C 
HETATM   33  C   UNK N   1      36.279  10.048   9.769  0.00  0.00     0.246 C 
HETATM   34  C   UNK N   1      35.864  14.069   6.495  0.00  0.00     0.217 C 
HETATM   35  C   UNK N   1      39.347   6.795  14.385  0.00  0.00     0.098 A 
HETATM   36  C   UNK N   1      36.825  13.326  10.080  0.00  0.00    -0.025 A 
HETATM   37  C   UNK N   1      34.938  15.234   6.805  0.00  0.00    -0.009 A 
HETATM   38  C   UNK N   1      36.038   9.340  13.287  0.00  0.00     0.241 C 
HETATM   39  C   UNK N   1      36.199  14.124   9.147  0.00  0.00     0.025 A 
HETATM   40  C   UNK N   1      34.506  15.594   8.146  0.00  0.00     0.019 A 
HETATM   41  C   UNK N   1      35.044  14.843   9.362  0.00  0.00     0.011 A 
HETATM   42  C   UNK N   1      35.406   9.970  14.498  0.00  0.00     0.185 C 
HETATM   43  C   UNK N   1      38.555   5.764  14.914  0.00  0.00     0.068 A 
HETATM   44  C   UNK N   1      39.623   7.942  15.138  0.00  0.00     0.040 A 
HETATM   45  C   UNK N   1      36.254  13.218  11.347  0.00  0.00     0.012 A 
HETATM   46  C   UNK N   1      34.441  15.932   5.701  0.00  0.00     0.047 A 
HETATM   47  C   UNK N   1      38.311   7.015  16.934  0.00  0.00    -0.025 A 
HETATM   48  C   UNK N   1      34.467  14.727  10.667  0.00  0.00     0.076 A 
HETATM   49  C   UNK N   1      35.103  13.948  11.648  0.00  0.00     0.038 A 
HETATM   50  C   UNK N   1      38.051   5.884  16.175  0.00  0.00     0.036 A 
HETATM   51  C   UNK N   1      39.082   8.063  16.413  0.00  0.00     0.012 A 
HETATM   52  C   UNK N   1      37.485   7.221  18.134  0.00  0.00     0.183 C 
HETATM   53  C   UNK N   1      33.581  16.673   8.260  0.00  0.00     0.080 A 
HETATM   54  C   UNK N   1      36.327   8.166  17.772  0.00  0.00     0.210 C 
HETATM   55  C   UNK N   1      33.556  16.981   5.857  0.00  0.00     0.069 A 
HETATM   56  C   UNK N   1      35.913   8.343  16.322  0.00  0.00     0.244 C 
HETATM   57  C   UNK N   1      33.127  17.344   7.124  0.00  0.00     0.074 A 
HETATM   58  H   UNK N   1      36.926  11.542   7.125  0.00  0.00     0.163 HD
HETATM   59  H   UNK N   1      36.781  15.293   5.066  0.00  0.00     0.163 HD
HETATM   60  H   UNK N   1      36.022  11.468   8.422  0.00  0.00     0.163 HD
HETATM   61  H   UNK N   1      36.568  11.083  12.355  0.00  0.00     0.163 HD
HETATM   62  H   UNK N   1      36.471  10.275  16.269  0.00  0.00     0.163 HD
ENDROOT
BRANCH  15  63
HETATM   63  O   UNK N   1      40.498   5.529  10.711  0.00  0.00    -0.312 OA
BRANCH  63  64
HETATM   64  C   UNK N   1      39.931   4.313  10.342  0.00  0.00     0.298 C 
HETATM   65  O   UNK N   1      38.527   4.336  10.178  0.00  0.00    -0.348 OA
HETATM   66  C   UNK N   1      37.933   3.057  10.014  0.00  0.00     0.179 C 
HETATM   67  C   UNK N   1      38.443   1.965  10.984  0.00  0.00     0.180 C 
HETATM   68  C   UNK N   1      39.945   1.857  10.933  0.00  0.00     0.183 C 
HETATM   69  C   UNK N   1      40.470   3.234  11.287  0.00  0.00     0.211 C 
BRANCH  66  70
HETATM   70  C   UNK N   1      37.852   2.669   8.550  0.00  0.00     0.198 C 
BRANCH  70  71
HETATM   71  O   UNK N   1      36.717   1.884   8.343  0.00  0.00    -0.398 OA
HETATM   72  H   UNK N   1      35.837   2.285   8.263  0.00  0.00     0.209 HD
ENDBRANCH  70  71
ENDBRANCH  66  70
BRANCH  67  73
HETATM   73  O   UNK N   1      37.866   0.721  10.724  0.00  0.00    -0.390 OA
HETATM   74  H   UNK N   1      38.371  -0.084  10.529  0.00  0.00     0.210 HD
ENDBRANCH  67  73
BRANCH  68  75
HETATM   75  O   UNK N   1      40.359   1.467   9.654  0.00  0.00    -0.390 OA
HETATM   76  H   UNK N   1      39.825   1.249   8.874  0.00  0.00     0.210 HD
ENDBRANCH  68  75
BRANCH  69  77
HETATM   77  O   UNK N   1      41.874   3.260  11.351  0.00  0.00    -0.348 OA
BRANCH  77  78
HETATM   78  C   UNK N   1      42.261   2.753  12.601  0.00  0.00     0.263 C 
HETATM   79  O   UNK N   1      41.322   3.169  13.571  0.00  0.00    -0.354 OA
HETATM   80  C   UNK N   1      41.917   2.998  14.821  0.00  0.00     0.151 C 
HETATM   81  C   UNK N   1      42.979   4.082  15.045  0.00  0.00     0.174 C 
HETATM   82  C   UNK N   1      40.876   2.977  15.914  0.00  0.00     0.042 C 
HETATM   83  C   UNK N   1      43.684   4.441  13.692  0.00  0.00     0.055 C 
HETATM   84  C   UNK N   1      43.717   3.189  12.863  0.00  0.00     0.093 C 
HETATM   85  C   UNK N   1      42.918   5.512  12.909  0.00  0.00     0.041 C 
BRANCH  81  86
HETATM   86  O   UNK N   1      43.882   3.595  15.995  0.00  0.00    -0.391 OA
HETATM   87  H   UNK N   1      44.263   3.461  16.877  0.00  0.00     0.210 HD
ENDBRANCH  81  86
BRANCH  83  88
HETATM   88  N   UNK N   1      45.056   4.891  13.829  0.00  0.00    -0.406 N 
HETATM   89  H   UNK N   1      45.808   4.298  14.180  0.00  0.00     0.154 HD
BRANCH  88  90
HETATM   90  C   UNK N   1      45.254   6.266  13.421  0.00  0.00     0.153 C 
BRANCH  90  91
HETATM   91  C   UNK N   1      45.329   7.291  14.495  0.00  0.00    -0.041 C 
HETATM   92  C   UNK N   1      45.759   6.774  15.716  0.00  0.00     0.009 C 
HETATM   93  C   UNK N   1      44.965   6.936  16.841  0.00  0.00     0.013 C 
HETATM   94  C   UNK N   1      43.752   7.629  16.731  0.00  0.00    -0.026 C 
HETATM   95  C   UNK N   1      43.464   8.346  15.569  0.00  0.00     0.013 C 
HETATM   96  C   UNK N   1      44.262   8.184  14.459  0.00  0.00     0.009 C 
BRANCH  94  97
HETATM   97  C   UNK N   1      42.660   7.336  17.665  0.00  0.00    -0.026 A 
HETATM   98  C   UNK N   1      42.402   8.193  18.744  0.00  0.00     0.014 A 
HETATM   99  C   UNK N   1      41.484   7.824  19.727  0.00  0.00     0.024 A 
HETATM  100  C   UNK N   1      40.842   6.585  19.653  0.00  0.00     0.034 A 
HETATM  101 Cl   UNK N   1      39.681   6.129  20.875  0.00  0.00    -0.084 Cl
HETATM  102  C   UNK N   1      41.112   5.715  18.596  0.00  0.00     0.024 A 
HETATM  103  C   UNK N   1      42.023   6.086  17.612  0.00  0.00     0.014 A 
ENDBRANCH  94  97
ENDBRANCH  90  91
ENDBRANCH  88  90
ENDBRANCH  83  88
ENDBRANCH  77  78
ENDBRANCH  69  77
ENDBRANCH  63  64
ENDBRANCH  15  63
BRANCH  16 104
HETATM  104  O   UNK N   1      40.571  12.005   4.622  0.00  0.00    -0.349 OA
BRANCH 104 105
HETATM  105  C   UNK N   1      41.744  12.609   5.086  0.00  0.00     0.263 C 
HETATM  106  O   UNK N   1      42.819  11.846   4.576  0.00  0.00    -0.354 OA
HETATM  107  C   UNK N   1      43.995  12.573   4.757  0.00  0.00     0.151 C 
HETATM  108  C   UNK N   1      44.103  13.653   3.674  0.00  0.00     0.174 C 
HETATM  109  C   UNK N   1      45.191  11.645   4.750  0.00  0.00     0.042 C 
HETATM  110  C   UNK N   1      42.724  14.329   3.438  0.00  0.00     0.052 C 
HETATM  111  C   UNK N   1      41.791  14.103   4.638  0.00  0.00     0.093 C 
HETATM  112  C   UNK N   1      42.082  13.727   2.198  0.00  0.00     0.041 C 
BRANCH 108 113
HETATM  113  O   UNK N   1      45.083  14.572   4.057  0.00  0.00    -0.391 OA
HETATM  114  H   UNK N   1      45.978  14.662   4.421  0.00  0.00     0.210 HD
ENDBRANCH 108 113
BRANCH 110 115
HETATM  115  N   UNK N   1      42.882  15.757   3.211  0.00  0.00    -0.420 N 
HETATM  116  H   UNK N   1      42.904  16.245   2.315  0.00  0.00     0.150 HD
HETATM  117  H   UNK N   1      42.983  16.338   4.042  0.00  0.00     0.150 HD
ENDBRANCH 110 115
ENDBRANCH 104 105
ENDBRANCH  16 104
BRANCH  42 118
HETATM  118  C   UNK N   1      35.377  11.484  14.417  0.00  0.00     0.137 C 
BRANCH 118 119
HETATM  119  C   UNK N   1      36.444  12.042  15.292  0.00  0.00     0.217 C 
HETATM  120  O   UNK N   1      36.255  12.168  16.491  0.00  0.00    -0.274 OA
HETATM  121  N   UNK N   1      37.625  12.404  14.756  0.00  0.00    -0.370 N 
HETATM  122  H   UNK N   1      37.979  13.316  14.863  0.00  0.00     0.159 HD
HETATM  123  H   UNK N   1      38.144  11.741  14.247  0.00  0.00     0.159 HD
ENDBRANCH 118 119
ENDBRANCH  42 118
BRANCH  52 124
HETATM  124  O   UNK N   1      36.954   6.000  18.557  0.00  0.00    -0.388 OA
HETATM  125  H   UNK N   1      36.835   5.499  19.380  0.00  0.00     0.210 HD
ENDBRANCH  52 124
BRANCH  54 126
HETATM  126  N   UNK N   1      36.492   9.435  18.413  0.00  0.00    -0.343 N 
HETATM  127  C   UNK N   1      35.893   9.695  19.599  0.00  0.00     0.240 C 
HETATM  128  O   UNK N   1      36.043  10.792  20.107  0.00  0.00    -0.271 OA
HETATM  129  H   UNK N   1      37.048  10.127  17.987  0.00  0.00     0.163 HD
BRANCH 127 130
HETATM  130  C   UNK N   1      35.013   8.675  20.305  0.00  0.00     0.169 C 
BRANCH 130 131
HETATM  131  N   UNK N   1      35.551   8.354  21.615  0.00  0.00    -0.413 N 
HETATM  132  C   UNK N   1      34.558   8.783  22.585  0.00  0.00     0.140 C 
HETATM  133  H   UNK N   1      36.450   7.914  21.816  0.00  0.00     0.153 HD
ENDBRANCH 130 131
BRANCH 130 134
HETATM  134  C   UNK N   1      33.529   9.060  20.444  0.00  0.00     0.038 C 
BRANCH 134 135
HETATM  135  C   UNK N   1      32.584   8.277  19.541  0.00  0.00    -0.020 C 
HETATM  136  C   UNK N   1      31.184   8.319  20.122  0.00  0.00     0.009 C 
HETATM  137  C   UNK N   1      33.021   6.834  19.449  0.00  0.00     0.009 C 
ENDBRANCH 134 135
ENDBRANCH 130 134
ENDBRANCH 127 130
ENDBRANCH  54 126
BRANCH  34 138
HETATM  138  C   UNK N   1      35.062  12.837   6.159  0.00  0.00     0.168 C 
HETATM  139  O   UNK N   1      34.650  12.685   5.019  0.00  0.00    -0.648 OA
BRANCH 138 140
HETATM  140  O   UNK N   1      34.768  11.920   7.097  0.00  0.00    -0.775 OA
HETATM  141  H   UNK N   1      33.952  11.498   7.288  0.00  0.00     0.167 HD
ENDBRANCH 138 140
ENDBRANCH  34 138
BRANCH  48 142
HETATM  142  O   UNK N   1      33.288  15.276  10.986  0.00  0.00    -0.360 OA
HETATM  143  H   UNK N   1      32.478  14.813  10.905  0.00  0.00     0.217 HD
ENDBRANCH  48 142
BRANCH  53 144
HETATM  144  O   UNK N   1      33.148  17.119   9.444  0.00  0.00    -0.360 OA
HETATM  145  H   UNK N   1      32.381  17.651   9.537  0.00  0.00     0.217 HD
ENDBRANCH  53 144
BRANCH  55 146
HETATM  146  O   UNK N   1      33.117  17.651   4.781  0.00  0.00    -0.361 OA
HETATM  147  H   UNK N   1      32.676  18.473   4.868  0.00  0.00     0.217 HD
ENDBRANCH  55 146
TORSDOF 30
ENDMDL
MODEL 8
REMARK VINA RESULT:      -7.3      7.260     14.137
REMARK  30 active torsions:
REMARK  status: ('A' for Active; 'I' for Inactive)
REMARK    1  A    between atoms: C_43  and  O_5 
REMARK    2  A    between atoms: C_46  and  O_5 
REMARK    3  A    between atoms: C_41  and  O_6 
REMARK    4  A    between atoms: C_47  and  O_8 
REMARK    5  A    between atoms: C_48  and  O_9 
REMARK    6  A    between atoms: O_9  and  C_61 
REMARK    7  A    between atoms: C_50  and  O_10 
REMARK    8  A    between atoms: C_59  and  O_12 
REMARK    9  A    between atoms: C_65  and  O_12 
REMARK   10  A    between atoms: C_54  and  O_13 
REMARK   11  A    between atoms: O_14  and  C_55 
REMARK   12  A    between atoms: O_21  and  C_103 
REMARK   13  A    between atoms: O_23  and  C_107 
REMARK   14  A    between atoms: C_111  and  O_24 
REMARK   15  A    between atoms: O_25  and  C_112 
REMARK   16  A    between atoms: O_26  and  C_115 
REMARK   17  A    between atoms: C_40  and  N_30 
REMARK   18  A    between atoms: N_30  and  C_52 
REMARK   19  A    between atoms: C_53  and  N_31 
REMARK   20  A    between atoms: C_113  and  N_37 
REMARK       I    between atoms: N_37  and  C_119 
REMARK       I    between atoms: N_38  and  C_118 
REMARK   21  A    between atoms: C_120  and  N_39 
REMARK   22  A    between atoms: C_51  and  C_55 
REMARK   23  A    between atoms: C_52  and  C_56 
REMARK   24  A    between atoms: C_71  and  C_78 
REMARK   25  A    between atoms: C_87  and  C_103 
REMARK   26  A    between atoms: C_99  and  C_114 
REMARK   27  A    between atoms: C_114  and  C_118 
REMARK   28  A    between atoms: C_119  and  C_120 
REMARK   29  A    between atoms: C_120  and  C_121 
REMARK   30  A    between atoms: C_121  and  C_122 
ROOT
HETATM    1 Cl   UNK N   1      40.610  12.686   9.493  0.00  0.00    -0.114 Cl
HETATM    2 Cl   UNK N   1      39.606   9.043   0.225  0.00  0.00    -0.081 Cl
HETATM    3  O   UNK N   1      39.595  11.015   6.445  0.00  0.00    -0.310 OA
HETATM    4  O   UNK N   1      38.187   8.271   2.790  0.00  0.00    -0.306 OA
HETATM    5  O   UNK N   1      34.392  14.999  11.511  0.00  0.00    -0.271 OA
HETATM    6  O   UNK N   1      33.820  12.217   8.721  0.00  0.00    -0.271 OA
HETATM    7  O   UNK N   1      36.220  14.366   4.126  0.00  0.00    -0.271 OA
HETATM    8  O   UNK N   1      36.062  11.371   1.187  0.00  0.00    -0.271 OA
HETATM    9  O   UNK N   1      35.678  10.301  -1.227  0.00  0.00    -0.271 OA
HETATM   10  N   UNK N   1      35.062  14.010   8.162  0.00  0.00    -0.343 N 
HETATM   11  N   UNK N   1      33.313  15.753   9.720  0.00  0.00    -0.341 N 
HETATM   12  N   UNK N   1      34.821  13.575   5.622  0.00  0.00    -0.342 N 
HETATM   13  N   UNK N   1      34.703  11.708   2.953  0.00  0.00    -0.342 N 
HETATM   14  N   UNK N   1      33.783   9.977  -0.057  0.00  0.00    -0.345 N 
HETATM   15  C   UNK N   1      38.940   9.642   4.551  0.00  0.00     0.139 A 
HETATM   16  C   UNK N   1      36.300  13.259  10.082  0.00  0.00     0.189 C 
HETATM   17  C   UNK N   1      35.470  14.430   9.490  0.00  0.00     0.210 C 
HETATM   18  C   UNK N   1      38.667  10.630   5.511  0.00  0.00     0.112 A 
HETATM   19  C   UNK N   1      37.919   9.199   3.697  0.00  0.00     0.113 A 
HETATM   20  C   UNK N   1      37.480  12.911   9.210  0.00  0.00    -0.029 C 
HETATM   21  C   UNK N   1      37.403  11.253   5.468  0.00  0.00     0.050 A 
HETATM   22  C   UNK N   1      36.441  10.915   4.534  0.00  0.00    -0.021 A 
HETATM   23  C   UNK N   1      36.682   9.840   3.698  0.00  0.00     0.050 A 
HETATM   24  C   UNK N   1      34.324  15.027  10.293  0.00  0.00     0.244 C 
HETATM   25  C   UNK N   1      35.804  12.074   3.833  0.00  0.00     0.210 C 
HETATM   26  C   UNK N   1      38.313  11.851   9.555  0.00  0.00     0.010 C 
HETATM   27  C   UNK N   1      37.747  13.631   8.025  0.00  0.00     0.012 C 
HETATM   28  C   UNK N   1      39.315  11.936   7.413  0.00  0.00     0.075 C 
HETATM   29  C   UNK N   1      39.431  11.593   8.769  0.00  0.00     0.163 C 
HETATM   30  C   UNK N   1      38.612  13.101   7.086  0.00  0.00     0.035 C 
HETATM   31  C   UNK N   1      34.308  12.917   7.845  0.00  0.00     0.245 C 
HETATM   32  C   UNK N   1      34.034  12.624   6.371  0.00  0.00     0.210 C 
HETATM   33  C   UNK N   1      35.616  13.392   4.552  0.00  0.00     0.246 C 
HETATM   34  C   UNK N   1      33.079  15.964   8.293  0.00  0.00     0.217 C 
HETATM   35  C   UNK N   1      37.501   7.953   1.694  0.00  0.00     0.098 A 
HETATM   36  C   UNK N   1      32.635  12.988   5.997  0.00  0.00    -0.025 A 
HETATM   37  C   UNK N   1      31.720  16.590   8.025  0.00  0.00    -0.009 A 
HETATM   38  C   UNK N   1      34.922  11.414   1.629  0.00  0.00     0.241 C 
HETATM   39  C   UNK N   1      32.126  14.102   6.630  0.00  0.00     0.025 A 
HETATM   40  C   UNK N   1      30.814  16.148   6.977  0.00  0.00     0.019 A 
HETATM   41  C   UNK N   1      31.160  14.937   6.113  0.00  0.00     0.011 A 
HETATM   42  C   UNK N   1      33.778  11.227   0.670  0.00  0.00     0.185 C 
HETATM   43  C   UNK N   1      38.084   8.195   0.441  0.00  0.00     0.068 A 
HETATM   44  C   UNK N   1      36.239   7.356   1.793  0.00  0.00     0.040 A 
HETATM   45  C   UNK N   1      32.154  12.670   4.728  0.00  0.00     0.012 A 
HETATM   46  C   UNK N   1      31.389  17.698   8.811  0.00  0.00     0.047 A 
HETATM   47  C   UNK N   1      36.158   7.253  -0.613  0.00  0.00    -0.025 A 
HETATM   48  C   UNK N   1      30.670  14.601   4.811  0.00  0.00     0.076 A 
HETATM   49  C   UNK N   1      31.148  13.451   4.158  0.00  0.00     0.038 A 
HETATM   50  C   UNK N   1      37.411   7.842  -0.692  0.00  0.00     0.036 A 
HETATM   51  C   UNK N   1      35.553   7.024   0.629  0.00  0.00     0.012 A 
HETATM   52  C   UNK N   1      35.365   7.199  -1.851  0.00  0.00     0.183 C 
HETATM   53  C   UNK N   1      29.605  16.886   6.812  0.00  0.00     0.080 A 
HETATM   54  C   UNK N   1      34.405   8.400  -1.867  0.00  0.00     0.210 C 
HETATM   55  C   UNK N   1      30.200  18.377   8.627  0.00  0.00     0.069 A 
HETATM   56  C   UNK N   1      34.691   9.616  -1.004  0.00  0.00     0.244 C 
HETATM   57  C   UNK N   1      29.320  17.977   7.634  0.00  0.00     0.074 A 
HETATM   58  H   UNK N   1      35.358  14.573   7.411  0.00  0.00     0.163 HD
HETATM   59  H   UNK N   1      32.675  16.179  10.336  0.00  0.00     0.163 HD
HETATM   60  H   UNK N   1      34.767  14.503   5.944  0.00  0.00     0.163 HD
HETATM   61  H   UNK N   1      33.788  11.671   3.313  0.00  0.00     0.163 HD
HETATM   62  H   UNK N   1      33.068   9.333   0.151  0.00  0.00     0.163 HD
ENDROOT
BRANCH  15  63
HETATM   63  O   UNK N   1      40.229   9.171   4.433  0.00  0.00    -0.312 OA
BRANCH  63  64
HETATM   64  C   UNK N   1      41.355   9.433   5.206  0.00  0.00     0.298 C 
HETATM   65  O   UNK N   1      42.488   9.870   4.482  0.00  0.00    -0.348 OA
HETATM   66  C   UNK N   1      43.686   9.928   5.241  0.00  0.00     0.179 C 
HETATM   67  C   UNK N   1      43.947   8.708   6.155  0.00  0.00     0.180 C 
HETATM   68  C   UNK N   1      42.766   8.445   7.054  0.00  0.00     0.183 C 
HETATM   69  C   UNK N   1      41.583   8.233   6.132  0.00  0.00     0.211 C 
BRANCH  66  70
HETATM   70  C   UNK N   1      43.871  11.294   5.876  0.00  0.00     0.198 C 
BRANCH  70  71
HETATM   71  O   UNK N   1      43.638  12.282   4.919  0.00  0.00    -0.398 OA
HETATM   72  H   UNK N   1      44.242  12.408   4.170  0.00  0.00     0.209 HD
ENDBRANCH  70  71
ENDBRANCH  66  70
BRANCH  67  73
HETATM   73  O   UNK N   1      45.105   8.862   6.919  0.00  0.00    -0.390 OA
HETATM   74  H   UNK N   1      45.988   8.578   6.633  0.00  0.00     0.210 HD
ENDBRANCH  67  73
BRANCH  68  75
HETATM   75  O   UNK N   1      42.558   9.535   7.909  0.00  0.00    -0.390 OA
HETATM   76  H   UNK N   1      43.207  10.119   8.332  0.00  0.00     0.210 HD
ENDBRANCH  68  75
BRANCH  69  77
HETATM   77  O   UNK N   1      40.417   7.901   6.842  0.00  0.00    -0.348 OA
BRANCH  77  78
HETATM   78  C   UNK N   1      40.469   6.533   7.149  0.00  0.00     0.263 C 
HETATM   79  O   UNK N   1      40.228   5.793   5.969  0.00  0.00    -0.354 OA
HETATM   80  C   UNK N   1      39.901   4.494   6.357  0.00  0.00     0.151 C 
HETATM   81  C   UNK N   1      38.483   4.467   6.944  0.00  0.00     0.174 C 
HETATM   82  C   UNK N   1      40.067   3.531   5.206  0.00  0.00     0.042 C 
HETATM   83  C   UNK N   1      38.189   5.798   7.717  0.00  0.00     0.055 C 
HETATM   84  C   UNK N   1      39.488   6.265   8.308  0.00  0.00     0.093 C 
HETATM   85  C   UNK N   1      37.663   6.899   6.789  0.00  0.00     0.041 C 
BRANCH  81  86
HETATM   86  O   UNK N   1      38.394   3.346   7.774  0.00  0.00    -0.391 OA
HETATM   87  H   UNK N   1      38.041   2.789   8.485  0.00  0.00     0.210 HD
ENDBRANCH  81  86
BRANCH  83  88
HETATM   88  N   UNK N   1      37.252   5.661   8.815  0.00  0.00    -0.406 N 
HETATM   89  H   UNK N   1      36.467   5.010   8.804  0.00  0.00     0.154 HD
BRANCH  88  90
HETATM   90  C   UNK N   1      37.538   6.541   9.929  0.00  0.00     0.153 C 
BRANCH  90  91
HETATM   91  C   UNK N   1      36.474   7.497  10.332  0.00  0.00    -0.041 C 
HETATM   92  C   UNK N   1      35.202   6.927  10.347  0.00  0.00     0.009 C 
HETATM   93  C   UNK N   1      34.192   7.497   9.588  0.00  0.00     0.013 C 
HETATM   94  C   UNK N   1      34.466   8.645   8.833  0.00  0.00    -0.026 C 
HETATM   95  C   UNK N   1      35.663   9.336   9.027  0.00  0.00     0.013 C 
HETATM   96  C   UNK N   1      36.657   8.764   9.787  0.00  0.00     0.009 C 
BRANCH  94  97
HETATM   97  C   UNK N   1      33.679   8.928   7.627  0.00  0.00    -0.026 A 
HETATM   98  C   UNK N   1      32.307   9.199   7.725  0.00  0.00     0.014 A 
HETATM   99  C   UNK N   1      31.528   9.292   6.571  0.00  0.00     0.024 A 
HETATM  100  C   UNK N   1      32.110   9.085   5.317  0.00  0.00     0.034 A 
HETATM  101 Cl   UNK N   1      31.139   9.217   3.873  0.00  0.00    -0.084 Cl
HETATM  102  C   UNK N   1      33.469   8.789   5.213  0.00  0.00     0.024 A 
HETATM  103  C   UNK N   1      34.248   8.703   6.363  0.00  0.00     0.014 A 
ENDBRANCH  94  97
ENDBRANCH  90  91
ENDBRANCH  88  90
ENDBRANCH  83  88
ENDBRANCH  77  78
ENDBRANCH  69  77
ENDBRANCH  63  64
ENDBRANCH  15  63
BRANCH  16 104
HETATM  104  O   UNK N   1      36.591  13.217  11.463  0.00  0.00    -0.349 OA
BRANCH 104 105
HETATM  105  C   UNK N   1      36.069  12.067  12.064  0.00  0.00     0.263 C 
HETATM  106  O   UNK N   1      37.172  11.341  12.569  0.00  0.00    -0.354 OA
HETATM  107  C   UNK N   1      36.688  10.356  13.430  0.00  0.00     0.151 C 
HETATM  108  C   UNK N   1      36.338  10.984  14.784  0.00  0.00     0.174 C 
HETATM  109  C   UNK N   1      37.701   9.240  13.569  0.00  0.00     0.042 C 
HETATM  110  C   UNK N   1      35.626  12.350  14.585  0.00  0.00     0.052 C 
HETATM  111  C   UNK N   1      35.040  12.461  13.168  0.00  0.00     0.093 C 
HETATM  112  C   UNK N   1      36.634  13.469  14.788  0.00  0.00     0.041 C 
BRANCH 108 113
HETATM  113  O   UNK N   1      35.556  10.079  15.505  0.00  0.00    -0.391 OA
HETATM  114  H   UNK N   1      35.086   9.937  16.342  0.00  0.00     0.210 HD
ENDBRANCH 108 113
BRANCH 110 115
HETATM  115  N   UNK N   1      34.563  12.523  15.563  0.00  0.00    -0.420 N 
HETATM  116  H   UNK N   1      34.048  13.379  15.776  0.00  0.00     0.150 HD
HETATM  117  H   UNK N   1      34.301  11.696  16.097  0.00  0.00     0.150 HD
ENDBRANCH 110 115
ENDBRANCH 104 105
ENDBRANCH  16 104
BRANCH  42 118
HETATM  118  C   UNK N   1      32.428  11.399   1.336  0.00  0.00     0.137 C 
BRANCH 118 119
HETATM  119  C   UNK N   1      31.355  11.045   0.367  0.00  0.00     0.217 C 
HETATM  120  O   UNK N   1      31.081   9.876   0.149  0.00  0.00    -0.274 OA
HETATM  121  N   UNK N   1      30.681  12.023  -0.268  0.00  0.00    -0.370 N 
HETATM  122  H   UNK N   1      30.641  12.065  -1.250  0.00  0.00     0.159 HD
HETATM  123  H   UNK N   1      30.219  12.711   0.263  0.00  0.00     0.159 HD
ENDBRANCH 118 119
ENDBRANCH  42 118
BRANCH  52 124
HETATM  124  O   UNK N   1      36.212   7.284  -2.960  0.00  0.00    -0.388 OA
HETATM  125  H   UNK N   1      37.158   7.380  -3.152  0.00  0.00     0.210 HD
ENDBRANCH  52 124
BRANCH  54 126
HETATM  126  N   UNK N   1      33.051   7.966  -1.703  0.00  0.00    -0.343 N 
HETATM  127  C   UNK N   1      32.210   7.905  -2.762  0.00  0.00     0.240 C 
HETATM  128  O   UNK N   1      31.060   7.546  -2.581  0.00  0.00    -0.271 OA
HETATM  129  H   UNK N   1      32.727   7.709  -0.810  0.00  0.00     0.163 HD
BRANCH 127 130
HETATM  130  C   UNK N   1      32.642   8.299  -4.166  0.00  0.00     0.169 C 
BRANCH 130 131
HETATM  131  N   UNK N   1      32.015   7.438  -5.155  0.00  0.00    -0.413 N 
HETATM  132  C   UNK N   1      33.092   6.736  -5.831  0.00  0.00     0.140 C 
HETATM  133  H   UNK N   1      31.015   7.345  -5.338  0.00  0.00     0.153 HD
ENDBRANCH 130 131
BRANCH 130 134
HETATM  134  C   UNK N   1      32.402   9.771  -4.547  0.00  0.00     0.038 C 
BRANCH 134 135
HETATM  135  C   UNK N   1      31.878  10.641  -3.412  0.00  0.00    -0.020 C 
HETATM  136  C   UNK N   1      30.433  11.011  -3.687  0.00  0.00     0.009 C 
HETATM  137  C   UNK N   1      32.686  11.914  -3.310  0.00  0.00     0.009 C 
ENDBRANCH 134 135
ENDBRANCH 130 134
ENDBRANCH 127 130
ENDBRANCH  54 126
BRANCH  34 138
HETATM  138  C   UNK N   1      34.159  16.722   7.564  0.00  0.00     0.168 C 
HETATM  139  O   UNK N   1      34.605  17.747   8.056  0.00  0.00    -0.648 OA
BRANCH 138 140
HETATM  140  O   UNK N   1      34.616  16.307   6.369  0.00  0.00    -0.775 OA
HETATM  141  H   UNK N   1      34.367  15.561   5.859  0.00  0.00     0.167 HD
ENDBRANCH 138 140
ENDBRANCH  34 138
BRANCH  48 142
HETATM  142  O   UNK N   1      29.817  15.381   4.137  0.00  0.00    -0.360 OA
HETATM  143  H   UNK N   1      29.134  15.034   3.599  0.00  0.00     0.217 HD
ENDBRANCH  48 142
BRANCH  53 144
HETATM  144  O   UNK N   1      28.679  16.545   5.910  0.00  0.00    -0.360 OA
HETATM  145  H   UNK N   1      28.232  17.175   5.378  0.00  0.00     0.217 HD
ENDBRANCH  53 144
BRANCH  55 146
HETATM  146  O   UNK N   1      29.897  19.420   9.415  0.00  0.00    -0.361 OA
HETATM  147  H   UNK N   1      29.542  19.293  10.272  0.00  0.00     0.217 HD
ENDBRANCH  55 146
TORSDOF 30
ENDMDL
MODEL 9
REMARK VINA RESULT:      -7.3      4.553     11.724
REMARK  30 active torsions:
REMARK  status: ('A' for Active; 'I' for Inactive)
REMARK    1  A    between atoms: C_43  and  O_5 
REMARK    2  A    between atoms: C_46  and  O_5 
REMARK    3  A    between atoms: C_41  and  O_6 
REMARK    4  A    between atoms: C_47  and  O_8 
REMARK    5  A    between atoms: C_48  and  O_9 
REMARK    6  A    between atoms: O_9  and  C_61 
REMARK    7  A    between atoms: C_50  and  O_10 
REMARK    8  A    between atoms: C_59  and  O_12 
REMARK    9  A    between atoms: C_65  and  O_12 
REMARK   10  A    between atoms: C_54  and  O_13 
REMARK   11  A    between atoms: O_14  and  C_55 
REMARK   12  A    between atoms: O_21  and  C_103 
REMARK   13  A    between atoms: O_23  and  C_107 
REMARK   14  A    between atoms: C_111  and  O_24 
REMARK   15  A    between atoms: O_25  and  C_112 
REMARK   16  A    between atoms: O_26  and  C_115 
REMARK   17  A    between atoms: C_40  and  N_30 
REMARK   18  A    between atoms: N_30  and  C_52 
REMARK   19  A    between atoms: C_53  and  N_31 
REMARK   20  A    between atoms: C_113  and  N_37 
REMARK       I    between atoms: N_37  and  C_119 
REMARK       I    between atoms: N_38  and  C_118 
REMARK   21  A    between atoms: C_120  and  N_39 
REMARK   22  A    between atoms: C_51  and  C_55 
REMARK   23  A    between atoms: C_52  and  C_56 
REMARK   24  A    between atoms: C_71  and  C_78 
REMARK   25  A    between atoms: C_87  and  C_103 
REMARK   26  A    between atoms: C_99  and  C_114 
REMARK   27  A    between atoms: C_114  and  C_118 
REMARK   28  A    between atoms: C_119  and  C_120 
REMARK   29  A    between atoms: C_120  and  C_121 
REMARK   30  A    between atoms: C_121  and  C_122 
ROOT
HETATM    1 Cl   UNK N   1      26.306  15.305   0.960  0.00  0.00    -0.114 Cl
HETATM    2 Cl   UNK N   1      33.652   9.095   3.726  0.00  0.00    -0.081 Cl
HETATM    3  O   UNK N   1      28.575  13.054   2.661  0.00  0.00    -0.310 OA
HETATM    4  O   UNK N   1      31.562  10.515   5.400  0.00  0.00    -0.306 OA
HETATM    5  O   UNK N   1      20.320  12.548   3.116  0.00  0.00    -0.271 OA
HETATM    6  O   UNK N   1      23.229  11.135   5.438  0.00  0.00    -0.271 OA
HETATM    7  O   UNK N   1      26.509   8.239   1.923  0.00  0.00    -0.271 OA
HETATM    8  O   UNK N   1      29.855   7.020   4.147  0.00  0.00    -0.271 OA
HETATM    9  O   UNK N   1      31.760   5.379   5.038  0.00  0.00    -0.271 OA
HETATM   10  N   UNK N   1      23.390  10.758   3.225  0.00  0.00    -0.343 N 
HETATM   11  N   UNK N   1      20.507  10.334   3.049  0.00  0.00    -0.341 N 
HETATM   12  N   UNK N   1      25.139   8.873   3.519  0.00  0.00    -0.342 N 
HETATM   13  N   UNK N   1      27.764   7.474   4.852  0.00  0.00    -0.342 N 
HETATM   14  N   UNK N   1      30.091   5.325   6.546  0.00  0.00    -0.345 N 
HETATM   15  C   UNK N   1      30.140  11.762   3.996  0.00  0.00     0.139 A 
HETATM   16  C   UNK N   1      23.207  13.156   3.202  0.00  0.00     0.189 C 
HETATM   17  C   UNK N   1      22.538  11.830   2.746  0.00  0.00     0.210 C 
HETATM   18  C   UNK N   1      28.859  11.977   3.461  0.00  0.00     0.112 A 
HETATM   19  C   UNK N   1      30.349  10.715   4.906  0.00  0.00     0.113 A 
HETATM   20  C   UNK N   1      24.617  13.279   2.683  0.00  0.00    -0.029 C 
HETATM   21  C   UNK N   1      27.862  11.021   3.745  0.00  0.00     0.050 A 
HETATM   22  C   UNK N   1      28.104   9.908   4.530  0.00  0.00    -0.021 A 
HETATM   23  C   UNK N   1      29.330   9.799   5.162  0.00  0.00     0.050 A 
HETATM   24  C   UNK N   1      21.067  11.585   3.042  0.00  0.00     0.244 C 
HETATM   25  C   UNK N   1      27.621   8.612   3.956  0.00  0.00     0.210 C 
HETATM   26  C   UNK N   1      25.394  14.380   3.031  0.00  0.00     0.010 C 
HETATM   27  C   UNK N   1      25.182  12.278   1.862  0.00  0.00     0.012 C 
HETATM   28  C   UNK N   1      27.319  13.295   2.184  0.00  0.00     0.075 C 
HETATM   29  C   UNK N   1      26.669  14.502   2.486  0.00  0.00     0.163 C 
HETATM   30  C   UNK N   1      26.551  12.242   1.676  0.00  0.00     0.035 C 
HETATM   31  C   UNK N   1      23.725  10.495   4.521  0.00  0.00     0.245 C 
HETATM   32  C   UNK N   1      24.685   9.342   4.807  0.00  0.00     0.210 C 
HETATM   33  C   UNK N   1      26.381   8.575   3.092  0.00  0.00     0.246 C 
HETATM   34  C   UNK N   1      21.205   9.057   2.917  0.00  0.00     0.217 C 
HETATM   35  C   UNK N   1      32.054   9.426   5.987  0.00  0.00     0.098 A 
HETATM   36  C   UNK N   1      23.960   8.156   5.351  0.00  0.00    -0.025 A 
HETATM   37  C   UNK N   1      20.300   7.877   3.239  0.00  0.00    -0.009 A 
HETATM   38  C   UNK N   1      28.903   6.706   4.847  0.00  0.00     0.241 C 
HETATM   39  C   UNK N   1      22.697   7.948   4.837  0.00  0.00     0.025 A 
HETATM   40  C   UNK N   1      20.701   6.747   4.062  0.00  0.00     0.019 A 
HETATM   41  C   UNK N   1      22.072   6.725   4.735  0.00  0.00     0.011 A 
HETATM   42  C   UNK N   1      28.982   5.419   5.623  0.00  0.00     0.185 C 
HETATM   43  C   UNK N   1      33.082   8.720   5.343  0.00  0.00     0.068 A 
HETATM   44  C   UNK N   1      31.581   9.016   7.239  0.00  0.00     0.040 A 
HETATM   45  C   UNK N   1      24.681   7.050   5.798  0.00  0.00     0.012 A 
HETATM   46  C   UNK N   1      19.041   7.887   2.633  0.00  0.00     0.047 A 
HETATM   47  C   UNK N   1      33.165   7.201   7.185  0.00  0.00    -0.025 A 
HETATM   48  C   UNK N   1      22.820   5.597   5.199  0.00  0.00     0.076 A 
HETATM   49  C   UNK N   1      24.095   5.784   5.759  0.00  0.00     0.038 A 
HETATM   50  C   UNK N   1      33.624   7.624   5.946  0.00  0.00     0.036 A 
HETATM   51  C   UNK N   1      32.125   7.882   7.831  0.00  0.00     0.012 A 
HETATM   52  C   UNK N   1      33.557   5.851   7.619  0.00  0.00     0.183 C 
HETATM   53  C   UNK N   1      19.757   5.690   4.213  0.00  0.00     0.080 A 
HETATM   54  C   UNK N   1      32.422   4.876   7.264  0.00  0.00     0.210 C 
HETATM   55  C   UNK N   1      18.151   6.847   2.816  0.00  0.00     0.069 A 
HETATM   56  C   UNK N   1      31.405   5.246   6.199  0.00  0.00     0.244 C 
HETATM   57  C   UNK N   1      18.508   5.757   3.594  0.00  0.00     0.074 A 
HETATM   58  H   UNK N   1      23.766  10.156   2.543  0.00  0.00     0.163 HD
HETATM   59  H   UNK N   1      19.530  10.291   3.153  0.00  0.00     0.163 HD
HETATM   60  H   UNK N   1      24.430   8.752   2.847  0.00  0.00     0.163 HD
HETATM   61  H   UNK N   1      27.031   7.250   5.472  0.00  0.00     0.163 HD
HETATM   62  H   UNK N   1      29.878   5.317   7.507  0.00  0.00     0.163 HD
ENDROOT
BRANCH  15  63
HETATM   63  O   UNK N   1      31.180  12.556   3.566  0.00  0.00    -0.312 OA
BRANCH  63  64
HETATM   64  C   UNK N   1      31.973  12.458   2.426  0.00  0.00     0.298 C 
HETATM   65  O   UNK N   1      31.656  11.379   1.570  0.00  0.00    -0.348 OA
HETATM   66  C   UNK N   1      32.596  11.157   0.530  0.00  0.00     0.179 C 
HETATM   67  C   UNK N   1      34.080  11.212   0.961  0.00  0.00     0.180 C 
HETATM   68  C   UNK N   1      34.386  12.501   1.680  0.00  0.00     0.183 C 
HETATM   69  C   UNK N   1      33.439  12.549   2.862  0.00  0.00     0.211 C 
BRANCH  66  70
HETATM   70  C   UNK N   1      32.230  11.936  -0.720  0.00  0.00     0.198 C 
BRANCH  70  71
HETATM   71  O   UNK N   1      32.589  11.194  -1.846  0.00  0.00    -0.398 OA
HETATM   72  H   UNK N   1      32.169  11.353  -2.706  0.00  0.00     0.209 HD
ENDBRANCH  70  71
ENDBRANCH  66  70
BRANCH  67  73
HETATM   73  O   UNK N   1      34.948  11.051  -0.121  0.00  0.00    -0.390 OA
HETATM   74  H   UNK N   1      34.672  10.744  -0.999  0.00  0.00     0.210 HD
ENDBRANCH  67  73
BRANCH  68  75
HETATM   75  O   UNK N   1      34.187  13.590   0.823  0.00  0.00    -0.390 OA
HETATM   76  H   UNK N   1      34.356  13.663  -0.130  0.00  0.00     0.210 HD
ENDBRANCH  68  75
BRANCH  69  77
HETATM   77  O   UNK N   1      33.668  13.675   3.671  0.00  0.00    -0.348 OA
BRANCH  77  78
HETATM   78  C   UNK N   1      34.769  13.401   4.497  0.00  0.00     0.263 C 
HETATM   79  O   UNK N   1      34.641  12.088   5.003  0.00  0.00    -0.354 OA
HETATM   80  C   UNK N   1      35.505  11.982   6.094  0.00  0.00     0.151 C 
HETATM   81  C   UNK N   1      34.929  12.751   7.291  0.00  0.00     0.174 C 
HETATM   82  C   UNK N   1      35.785  10.534   6.419  0.00  0.00     0.042 C 
HETATM   83  C   UNK N   1      34.161  14.026   6.799  0.00  0.00     0.055 C 
HETATM   84  C   UNK N   1      34.857  14.513   5.561  0.00  0.00     0.093 C 
HETATM   85  C   UNK N   1      32.704  13.718   6.439  0.00  0.00     0.041 C 
BRANCH  81  86
HETATM   86  O   UNK N   1      35.995  13.072   8.135  0.00  0.00    -0.391 OA
HETATM   87  H   UNK N   1      36.808  12.920   8.642  0.00  0.00     0.210 HD
ENDBRANCH  81  86
BRANCH  83  88
HETATM   88  N   UNK N   1      34.160  15.127   7.742  0.00  0.00    -0.406 N 
HETATM   89  H   UNK N   1      33.806  15.048   8.696  0.00  0.00     0.154 HD
BRANCH  88  90
HETATM   90  C   UNK N   1      34.709  16.351   7.198  0.00  0.00     0.153 C 
BRANCH  90  91
HETATM   91  C   UNK N   1      33.765  17.474   6.957  0.00  0.00    -0.041 C 
HETATM   92  C   UNK N   1      32.907  17.707   8.031  0.00  0.00     0.009 C 
HETATM   93  C   UNK N   1      31.536  17.680   7.824  0.00  0.00     0.013 C 
HETATM   94  C   UNK N   1      31.041  17.434   6.536  0.00  0.00    -0.026 C 
HETATM   95  C   UNK N   1      31.908  17.452   5.443  0.00  0.00     0.013 C 
HETATM   96  C   UNK N   1      33.267  17.485   5.658  0.00  0.00     0.009 C 
BRANCH  94  97
HETATM   97  C   UNK N   1      29.713  16.834   6.370  0.00  0.00    -0.026 A 
HETATM   98  C   UNK N   1      28.631  17.284   7.139  0.00  0.00     0.014 A 
HETATM   99  C   UNK N   1      27.416  16.599   7.108  0.00  0.00     0.024 A 
HETATM  100  C   UNK N   1      27.286  15.444   6.332  0.00  0.00     0.034 A 
HETATM  101 Cl   UNK N   1      25.762  14.595   6.281  0.00  0.00    -0.084 Cl
HETATM  102  C   UNK N   1      28.366  14.973   5.584  0.00  0.00     0.024 A 
HETATM  103  C   UNK N   1      29.575  15.661   5.609  0.00  0.00     0.014 A 
ENDBRANCH  94  97
ENDBRANCH  90  91
ENDBRANCH  88  90
ENDBRANCH  83  88
ENDBRANCH  77  78
ENDBRANCH  69  77
ENDBRANCH  63  64
ENDBRANCH  15  63
BRANCH  16 104
HETATM  104  O   UNK N   1      22.486  14.369   3.161  0.00  0.00    -0.349 OA
BRANCH 104 105
HETATM  105  C   UNK N   1      21.734  14.559   4.325  0.00  0.00     0.263 C 
HETATM  106  O   UNK N   1      22.563  14.182   5.407  0.00  0.00    -0.354 OA
HETATM  107  C   UNK N   1      21.973  14.634   6.587  0.00  0.00     0.151 C 
HETATM  108  C   UNK N   1      22.247  16.134   6.755  0.00  0.00     0.174 C 
HETATM  109  C   UNK N   1      22.480  13.831   7.765  0.00  0.00     0.042 C 
HETATM  110  C   UNK N   1      22.089  16.874   5.398  0.00  0.00     0.052 C 
HETATM  111  C   UNK N   1      21.251  16.040   4.415  0.00  0.00     0.093 C 
HETATM  112  C   UNK N   1      23.464  17.106   4.796  0.00  0.00     0.041 C 
BRANCH 108 113
HETATM  113  O   UNK N   1      21.388  16.636   7.735  0.00  0.00    -0.391 OA
HETATM  114  H   UNK N   1      20.636  17.228   7.895  0.00  0.00     0.210 HD
ENDBRANCH 108 113
BRANCH 110 115
HETATM  115  N   UNK N   1      21.459  18.171   5.590  0.00  0.00    -0.420 N 
HETATM  116  H   UNK N   1      20.647  18.546   5.098  0.00  0.00     0.150 HD
HETATM  117  H   UNK N   1      21.876  18.775   6.297  0.00  0.00     0.150 HD
ENDBRANCH 110 115
ENDBRANCH 104 105
ENDBRANCH  16 104
BRANCH  42 118
HETATM  118  C   UNK N   1      27.699   5.110   6.368  0.00  0.00     0.137 C 
BRANCH 118 119
HETATM  119  C   UNK N   1      27.968   5.122   7.832  0.00  0.00     0.217 C 
HETATM  120  O   UNK N   1      28.486   4.158   8.372  0.00  0.00    -0.274 OA
HETATM  121  N   UNK N   1      27.641   6.206   8.561  0.00  0.00    -0.370 N 
HETATM  122  H   UNK N   1      27.044   6.139   9.341  0.00  0.00     0.159 HD
HETATM  123  H   UNK N   1      28.007   7.083   8.308  0.00  0.00     0.159 HD
ENDBRANCH 118 119
ENDBRANCH  42 118
BRANCH  52 124
HETATM  124  O   UNK N   1      34.717   5.456   6.947  0.00  0.00    -0.388 OA
HETATM  125  H   UNK N   1      35.546   5.846   6.627  0.00  0.00     0.210 HD
ENDBRANCH  52 124
BRANCH  54 126
HETATM  126  N   UNK N   1      31.772   4.405   8.448  0.00  0.00    -0.343 N 
HETATM  127  C   UNK N   1      31.902   3.118   8.845  0.00  0.00     0.240 C 
HETATM  128  O   UNK N   1      31.320   2.749   9.851  0.00  0.00    -0.271 OA
HETATM  129  H   UNK N   1      31.224   5.026   8.981  0.00  0.00     0.163 HD
BRANCH 127 130
HETATM  130  C   UNK N   1      32.723   2.105   8.063  0.00  0.00     0.169 C 
BRANCH 130 131
HETATM  131  N   UNK N   1      33.895   1.702   8.820  0.00  0.00    -0.413 N 
HETATM  132  C   UNK N   1      34.989   1.607   7.868  0.00  0.00     0.140 C 
HETATM  133  H   UNK N   1      33.942   1.521   9.824  0.00  0.00     0.153 HD
ENDBRANCH 130 131
BRANCH 130 134
HETATM  134  C   UNK N   1      31.964   0.852   7.594  0.00  0.00     0.038 C 
BRANCH 134 135
HETATM  135  C   UNK N   1      31.377   0.955   6.192  0.00  0.00    -0.020 C 
HETATM  136  C   UNK N   1      32.332   1.727   5.302  0.00  0.00     0.009 C 
HETATM  137  C   UNK N   1      30.056   1.689   6.227  0.00  0.00     0.009 C 
ENDBRANCH 134 135
ENDBRANCH 130 134
ENDBRANCH 127 130
ENDBRANCH  54 126
BRANCH  34 138
HETATM  138  C   UNK N   1      21.908   8.834   1.603  0.00  0.00     0.168 C 
HETATM  139  O   UNK N   1      22.988   8.262   1.593  0.00  0.00    -0.648 OA
BRANCH 138 140
HETATM  140  O   UNK N   1      21.384   9.280   0.447  0.00  0.00    -0.775 OA
HETATM  141  H   UNK N   1      20.629   9.815   0.299  0.00  0.00     0.167 HD
ENDBRANCH 138 140
ENDBRANCH  34 138
BRANCH  48 142
HETATM  142  O   UNK N   1      22.388   4.338   5.059  0.00  0.00    -0.360 OA
HETATM  143  H   UNK N   1      22.766   3.620   5.528  0.00  0.00     0.217 HD
ENDBRANCH  48 142
BRANCH  53 144
HETATM  144  O   UNK N   1      19.999   4.621   4.980  0.00  0.00    -0.360 OA
HETATM  145  H   UNK N   1      19.335   4.000   5.210  0.00  0.00     0.217 HD
ENDBRANCH  53 144
BRANCH  55 146
HETATM  146  O   UNK N   1      16.939   6.896   2.243  0.00  0.00    -0.361 OA
HETATM  147  H   UNK N   1      16.513   6.117   1.942  0.00  0.00     0.217 HD
ENDBRANCH  55 146
TORSDOF 30
ENDMDL
