MODEL 1
REMARK VINA RESULT:      -6.1      0.000      0.000
REMARK  7 active torsions:
REMARK  status: ('A' for Active; 'I' for Inactive)
REMARK    1  A    between atoms: C_11  and  O_2 
REMARK    2  A    between atoms: C_13  and  O_3 
REMARK    3  A    between atoms: O_4  and  C_15 
REMARK    4  A    between atoms: C_12  and  N_6 
REMARK    5  A    between atoms: N_9  and  C_16 
REMARK       I    between atoms: N_10  and  C_19 
REMARK    6  A    between atoms: C_14  and  C_15 
REMARK    7  A    between atoms: C_18  and  C_19 
ROOT
HETATM    1  N   UNK N   1      31.638  17.012   7.353  0.00  0.00    -0.297 N 
HETATM    2  N   UNK N   1      29.893  17.500   6.042  0.00  0.00    -0.345 N 
ATOM      3  HN  UNK N   1      29.307  17.621   5.216  1.00  0.00     0.167 HD
HETATM    4  C   UNK N   1      30.634  17.455   8.125  0.00  0.00     0.137 A 
HETATM    5  C   UNK N   1      31.170  17.045   6.084  0.00  0.00     0.188 A 
HETATM    6  C   UNK N   1      29.559  17.757   7.324  0.00  0.00     0.145 A 
ENDROOT
BRANCH   1   7
HETATM    7  C   UNK N   1      32.933  16.506   7.814  0.00  0.00     0.262 C 
HETATM    8  O   UNK N   1      32.813  15.599   8.867  0.00  0.00    -0.353 OA
HETATM    9  C   UNK N   1      34.169  15.386   9.135  0.00  0.00     0.179 C 
HETATM   10  C   UNK N   1      34.849  16.759   9.148  0.00  0.00     0.182 C 
HETATM   11  C   UNK N   1      33.880  17.576   8.323  0.00  0.00     0.198 C 
BRANCH   9  12
HETATM   12  C   UNK N   1      34.396  14.541  10.379  0.00  0.00     0.198 C 
BRANCH  12  13
HETATM   13  O   UNK N   1      33.439  14.863  11.343  0.00  0.00    -0.398 OA
HETATM   14  H   UNK N   1      33.164  14.234  12.028  0.00  0.00     0.209 HD
ENDBRANCH  12  13
ENDBRANCH   9  12
BRANCH  10  15
HETATM   15  O   UNK N   1      34.886  17.293  10.438  0.00  0.00    -0.390 OA
HETATM   16  H   UNK N   1      34.516  17.473  11.316  0.00  0.00     0.210 HD
ENDBRANCH  10  15
BRANCH  11  17
HETATM   17  O   UNK N   1      34.525  18.221   7.268  0.00  0.00    -0.388 OA
HETATM   18  H   UNK N   1      34.413  18.280   6.306  0.00  0.00     0.210 HD
ENDBRANCH  11  17
ENDBRANCH   1   7
BRANCH   4  19
HETATM   19  N   UNK N   1      30.696  17.574   9.530  0.00  0.00    -0.383 N 
HETATM   20  H   UNK N   1      31.551  17.504  10.012  0.00  0.00     0.157 HD
HETATM   21  H   UNK N   1      29.867  17.731  10.038  0.00  0.00     0.157 HD
ENDBRANCH   4  19
BRANCH   6  22
HETATM   22  C   UNK N   1      28.240  18.260   7.753  0.00  0.00     0.269 C 
HETATM   23  O   UNK N   1      27.928  18.246   8.932  0.00  0.00    -0.266 OA
HETATM   24  N   UNK N   1      27.368  18.727   6.839  0.00  0.00    -0.365 N 
HETATM   25  H   UNK N   1      26.531  19.166   7.115  0.00  0.00     0.159 HD
HETATM   26  H   UNK N   1      27.570  18.629   5.880  0.00  0.00     0.159 HD
ENDBRANCH   6  22
TORSDOF 7
ENDMDL
MODEL 2
REMARK VINA RESULT:      -5.9      7.314     11.538
REMARK  7 active torsions:
REMARK  status: ('A' for Active; 'I' for Inactive)
REMARK    1  A    between atoms: C_11  and  O_2 
REMARK    2  A    between atoms: C_13  and  O_3 
REMARK    3  A    between atoms: O_4  and  C_15 
REMARK    4  A    between atoms: C_12  and  N_6 
REMARK    5  A    between atoms: N_9  and  C_16 
REMARK       I    between atoms: N_10  and  C_19 
REMARK    6  A    between atoms: C_14  and  C_15 
REMARK    7  A    between atoms: C_18  and  C_19 
ROOT
HETATM    1  N   UNK N   1      24.073  19.692   3.509  0.00  0.00    -0.297 N 
HETATM    2  N   UNK N   1      26.238  20.107   3.139  0.00  0.00    -0.345 N 
ATOM      3  HN  UNK N   1      27.096  20.496   2.746  1.00  0.00     0.167 HD
HETATM    4  C   UNK N   1      24.801  18.952   4.358  0.00  0.00     0.137 A 
HETATM    5  C   UNK N   1      24.964  20.391   2.771  0.00  0.00     0.188 A 
HETATM    6  C   UNK N   1      26.133  19.204   4.135  0.00  0.00     0.145 A 
ENDROOT
BRANCH   1   7
HETATM    7  C   UNK N   1      22.611  19.785   3.469  0.00  0.00     0.262 C 
HETATM    8  O   UNK N   1      22.000  18.558   3.215  0.00  0.00    -0.353 OA
HETATM    9  C   UNK N   1      20.668  18.981   3.142  0.00  0.00     0.179 C 
HETATM   10  C   UNK N   1      20.641  20.243   2.277  0.00  0.00     0.182 C 
HETATM   11  C   UNK N   1      22.070  20.722   2.406  0.00  0.00     0.198 C 
BRANCH   9  12
HETATM   12  C   UNK N   1      19.724  17.874   2.701  0.00  0.00     0.198 C 
BRANCH  12  13
HETATM   13  O   UNK N   1      18.460  18.411   2.451  0.00  0.00    -0.398 OA
HETATM   14  H   UNK N   1      18.027  19.023   3.066  0.00  0.00     0.209 HD
ENDBRANCH  12  13
ENDBRANCH   9  12
BRANCH  10  15
HETATM   15  O   UNK N   1      20.402  19.932   0.936  0.00  0.00    -0.390 OA
HETATM   16  H   UNK N   1      20.424  20.113  -0.017  0.00  0.00     0.210 HD
ENDBRANCH  10  15
BRANCH  11  17
HETATM   17  O   UNK N   1      22.128  22.050   2.827  0.00  0.00    -0.388 OA
HETATM   18  H   UNK N   1      22.227  22.515   3.673  0.00  0.00     0.210 HD
ENDBRANCH  11  17
ENDBRANCH   1   7
BRANCH   4  19
HETATM   19  N   UNK N   1      24.261  18.073   5.321  0.00  0.00    -0.383 N 
HETATM   20  H   UNK N   1      24.801  17.349   5.712  0.00  0.00     0.157 HD
HETATM   21  H   UNK N   1      23.326  18.186   5.608  0.00  0.00     0.157 HD
ENDBRANCH   4  19
BRANCH   6  22
HETATM   22  C   UNK N   1      27.284  18.621   4.851  0.00  0.00     0.269 C 
HETATM   23  O   UNK N   1      27.111  17.961   5.863  0.00  0.00    -0.266 OA
HETATM   24  N   UNK N   1      28.535  18.826   4.396  0.00  0.00    -0.365 N 
HETATM   25  H   UNK N   1      29.303  18.357   4.795  0.00  0.00     0.159 HD
HETATM   26  H   UNK N   1      28.684  19.454   3.652  0.00  0.00     0.159 HD
ENDBRANCH   6  22
TORSDOF 7
ENDMDL
MODEL 3
REMARK VINA RESULT:      -5.6      3.522      5.628
REMARK  7 active torsions:
REMARK  status: ('A' for Active; 'I' for Inactive)
REMARK    1  A    between atoms: C_11  and  O_2 
REMARK    2  A    between atoms: C_13  and  O_3 
REMARK    3  A    between atoms: O_4  and  C_15 
REMARK    4  A    between atoms: C_12  and  N_6 
REMARK    5  A    between atoms: N_9  and  C_16 
REMARK       I    between atoms: N_10  and  C_19 
REMARK    6  A    between atoms: C_14  and  C_15 
REMARK    7  A    between atoms: C_18  and  C_19 
ROOT
HETATM    1  N   UNK N   1      35.096  15.089  11.065  0.00  0.00    -0.297 N 
HETATM    2  N   UNK N   1      35.244  17.166  10.250  0.00  0.00    -0.345 N 
ATOM      3  HN  UNK N   1      35.569  18.118  10.080  1.00  0.00     0.167 HD
HETATM    4  C   UNK N   1      34.100  15.275  10.186  0.00  0.00     0.137 A 
HETATM    5  C   UNK N   1      35.785  16.252  11.094  0.00  0.00     0.188 A 
HETATM    6  C   UNK N   1      34.186  16.550   9.683  0.00  0.00     0.145 A 
ENDROOT
BRANCH   1   7
HETATM    7  C   UNK N   1      35.416  13.844  11.767  0.00  0.00     0.262 C 
HETATM    8  O   UNK N   1      34.554  13.590  12.834  0.00  0.00    -0.353 OA
HETATM    9  C   UNK N   1      35.157  12.434  13.340  0.00  0.00     0.179 C 
HETATM   10  C   UNK N   1      36.665  12.694  13.388  0.00  0.00     0.182 C 
HETATM   11  C   UNK N   1      36.808  13.800  12.366  0.00  0.00     0.198 C 
BRANCH   9  12
HETATM   12  C   UNK N   1      34.538  11.974  14.650  0.00  0.00     0.198 C 
BRANCH  12  13
HETATM   13  O   UNK N   1      34.251  13.085  15.446  0.00  0.00    -0.398 OA
HETATM   14  H   UNK N   1      34.316  13.992  15.110  0.00  0.00     0.209 HD
ENDBRANCH  12  13
ENDBRANCH   9  12
BRANCH  10  15
HETATM   15  O   UNK N   1      37.052  13.195  14.634  0.00  0.00    -0.390 OA
HETATM   16  H   UNK N   1      37.698  13.393  15.330  0.00  0.00     0.210 HD
ENDBRANCH  10  15
BRANCH  11  17
HETATM   17  O   UNK N   1      37.762  13.482  11.401  0.00  0.00    -0.388 OA
HETATM   18  H   UNK N   1      37.950  12.728  10.819  0.00  0.00     0.210 HD
ENDBRANCH  11  17
ENDBRANCH   1   7
BRANCH   4  19
HETATM   19  N   UNK N   1      33.138  14.300   9.846  0.00  0.00    -0.383 N 
HETATM   20  H   UNK N   1      32.257  14.275  10.284  0.00  0.00     0.157 HD
HETATM   21  H   UNK N   1      33.353  13.631   9.155  0.00  0.00     0.157 HD
ENDBRANCH   4  19
BRANCH   6  22
HETATM   22  C   UNK N   1      33.305  17.175   8.677  0.00  0.00     0.269 C 
HETATM   23  O   UNK N   1      32.177  16.748   8.495  0.00  0.00    -0.266 OA
HETATM   24  N   UNK N   1      33.749  18.215   7.945  0.00  0.00    -0.365 N 
HETATM   25  H   UNK N   1      33.142  18.712   7.350  0.00  0.00     0.159 HD
HETATM   26  H   UNK N   1      34.695  18.483   8.005  0.00  0.00     0.159 HD
ENDBRANCH   6  22
TORSDOF 7
ENDMDL
MODEL 4
REMARK VINA RESULT:      -5.6      3.576      6.644
REMARK  7 active torsions:
REMARK  status: ('A' for Active; 'I' for Inactive)
REMARK    1  A    between atoms: C_11  and  O_2 
REMARK    2  A    between atoms: C_13  and  O_3 
REMARK    3  A    between atoms: O_4  and  C_15 
REMARK    4  A    between atoms: C_12  and  N_6 
REMARK    5  A    between atoms: N_9  and  C_16 
REMARK       I    between atoms: N_10  and  C_19 
REMARK    6  A    between atoms: C_14  and  C_15 
REMARK    7  A    between atoms: C_18  and  C_19 
ROOT
HETATM    1  N   UNK N   1      35.114  16.248   9.773  0.00  0.00    -0.297 N 
HETATM    2  N   UNK N   1      36.485  15.625  11.426  0.00  0.00    -0.345 N 
ATOM      3  HN  UNK N   1      36.982  15.609  12.317  1.00  0.00     0.167 HD
HETATM    4  C   UNK N   1      35.751  15.128   9.401  0.00  0.00     0.137 A 
HETATM    5  C   UNK N   1      35.572  16.540  11.011  0.00  0.00     0.188 A 
HETATM    6  C   UNK N   1      36.595  14.741  10.413  0.00  0.00     0.145 A 
ENDROOT
BRANCH   1   7
HETATM    7  C   UNK N   1      34.067  16.945   9.022  0.00  0.00     0.262 C 
HETATM    8  O   UNK N   1      33.196  16.069   8.374  0.00  0.00    -0.353 OA
HETATM    9  C   UNK N   1      32.406  17.002   7.693  0.00  0.00     0.179 C 
HETATM   10  C   UNK N   1      33.355  18.024   7.063  0.00  0.00     0.182 C 
HETATM   11  C   UNK N   1      34.582  17.866   7.933  0.00  0.00     0.198 C 
BRANCH   9  12
HETATM   12  C   UNK N   1      31.426  16.349   6.730  0.00  0.00     0.198 C 
BRANCH  12  13
HETATM   13  O   UNK N   1      30.876  17.322   5.894  0.00  0.00    -0.398 OA
HETATM   14  H   UNK N   1      29.918  17.444   5.803  0.00  0.00     0.209 HD
ENDBRANCH  12  13
ENDBRANCH   9  12
BRANCH  10  15
HETATM   15  O   UNK N   1      33.694  17.662   5.757  0.00  0.00    -0.390 OA
HETATM   16  H   UNK N   1      34.146  17.788   4.908  0.00  0.00     0.210 HD
ENDBRANCH  10  15
BRANCH  11  17
HETATM   17  O   UNK N   1      34.995  19.089   8.461  0.00  0.00    -0.388 OA
HETATM   18  H   UNK N   1      35.367  19.403   9.300  0.00  0.00     0.210 HD
ENDBRANCH  11  17
ENDBRANCH   1   7
BRANCH   4  19
HETATM   19  N   UNK N   1      35.560  14.470   8.167  0.00  0.00    -0.383 N 
HETATM   20  H   UNK N   1      36.323  14.143   7.638  0.00  0.00     0.157 HD
HETATM   21  H   UNK N   1      34.645  14.334   7.829  0.00  0.00     0.157 HD
ENDBRANCH   4  19
BRANCH   6  22
HETATM   22  C   UNK N   1      37.475  13.557  10.438  0.00  0.00     0.269 C 
HETATM   23  O   UNK N   1      37.734  12.959   9.407  0.00  0.00    -0.266 OA
HETATM   24  N   UNK N   1      37.990  13.124  11.606  0.00  0.00    -0.365 N 
HETATM   25  H   UNK N   1      38.663  12.407  11.627  0.00  0.00     0.159 HD
HETATM   26  H   UNK N   1      37.688  13.532  12.450  0.00  0.00     0.159 HD
ENDBRANCH   6  22
TORSDOF 7
ENDMDL
MODEL 5
REMARK VINA RESULT:      -5.4      3.850      6.429
REMARK  7 active torsions:
REMARK  status: ('A' for Active; 'I' for Inactive)
REMARK    1  A    between atoms: C_11  and  O_2 
REMARK    2  A    between atoms: C_13  and  O_3 
REMARK    3  A    between atoms: O_4  and  C_15 
REMARK    4  A    between atoms: C_12  and  N_6 
REMARK    5  A    between atoms: N_9  and  C_16 
REMARK       I    between atoms: N_10  and  C_19 
REMARK    6  A    between atoms: C_14  and  C_15 
REMARK    7  A    between atoms: C_18  and  C_19 
ROOT
HETATM    1  N   UNK N   1      35.095  14.977   9.534  0.00  0.00    -0.297 N 
HETATM    2  N   UNK N   1      36.886  14.584  10.814  0.00  0.00    -0.345 N 
ATOM      3  HN  UNK N   1      37.852  14.447  11.111  1.00  0.00     0.167 HD
HETATM    4  C   UNK N   1      34.683  14.776  10.795  0.00  0.00     0.137 A 
HETATM    5  C   UNK N   1      36.442  14.855   9.561  0.00  0.00     0.188 A 
HETATM    6  C   UNK N   1      35.780  14.534  11.586  0.00  0.00     0.145 A 
ENDROOT
BRANCH   1   7
HETATM    7  C   UNK N   1      34.255  15.347   8.392  0.00  0.00     0.262 C 
HETATM    8  O   UNK N   1      34.823  14.994   7.169  0.00  0.00    -0.353 OA
HETATM    9  C   UNK N   1      33.867  15.547   6.310  0.00  0.00     0.179 C 
HETATM   10  C   UNK N   1      33.549  16.951   6.831  0.00  0.00     0.182 C 
HETATM   11  C   UNK N   1      33.967  16.831   8.280  0.00  0.00     0.198 C 
BRANCH   9  12
HETATM   12  C   UNK N   1      34.282  15.478   4.848  0.00  0.00     0.198 C 
BRANCH  12  13
HETATM   13  O   UNK N   1      33.344  16.153   4.065  0.00  0.00    -0.398 OA
HETATM   14  H   UNK N   1      33.267  16.006   3.109  0.00  0.00     0.209 HD
ENDBRANCH  12  13
ENDBRANCH   9  12
BRANCH  10  15
HETATM   15  O   UNK N   1      34.358  17.913   6.220  0.00  0.00    -0.390 OA
HETATM   16  H   UNK N   1      35.122  18.510   6.180  0.00  0.00     0.210 HD
ENDBRANCH  10  15
BRANCH  11  17
HETATM   17  O   UNK N   1      32.937  17.212   9.140  0.00  0.00    -0.388 OA
HETATM   18  H   UNK N   1      32.822  17.855   9.858  0.00  0.00     0.210 HD
ENDBRANCH  11  17
ENDBRANCH   1   7
BRANCH   4  19
HETATM   19  N   UNK N   1      33.337  14.822  11.215  0.00  0.00    -0.383 N 
HETATM   20  H   UNK N   1      33.035  14.338  12.018  0.00  0.00     0.157 HD
HETATM   21  H   UNK N   1      32.687  15.349  10.696  0.00  0.00     0.157 HD
ENDBRANCH   4  19
BRANCH   6  22
HETATM   22  C   UNK N   1      35.794  14.278  13.039  0.00  0.00     0.269 C 
HETATM   23  O   UNK N   1      34.934  13.581  13.550  0.00  0.00    -0.266 OA
HETATM   24  N   UNK N   1      36.754  14.825  13.811  0.00  0.00    -0.365 N 
HETATM   25  H   UNK N   1      36.843  14.578  14.759  0.00  0.00     0.159 HD
HETATM   26  H   UNK N   1      37.376  15.481  13.420  0.00  0.00     0.159 HD
ENDBRANCH   6  22
TORSDOF 7
ENDMDL
MODEL 6
REMARK VINA RESULT:      -5.4      2.980      6.280
REMARK  7 active torsions:
REMARK  status: ('A' for Active; 'I' for Inactive)
REMARK    1  A    between atoms: C_11  and  O_2 
REMARK    2  A    between atoms: C_13  and  O_3 
REMARK    3  A    between atoms: O_4  and  C_15 
REMARK    4  A    between atoms: C_12  and  N_6 
REMARK    5  A    between atoms: N_9  and  C_16 
REMARK       I    between atoms: N_10  and  C_19 
REMARK    6  A    between atoms: C_14  and  C_15 
REMARK    7  A    between atoms: C_18  and  C_19 
ROOT
HETATM    1  N   UNK N   1      30.553  17.193   7.281  0.00  0.00    -0.297 N 
HETATM    2  N   UNK N   1      31.735  17.412   9.166  0.00  0.00    -0.345 N 
ATOM      3  HN  UNK N   1      31.978  17.463  10.156  1.00  0.00     0.167 HD
HETATM    4  C   UNK N   1      31.838  17.402   6.958  0.00  0.00     0.137 A 
HETATM    5  C   UNK N   1      30.505  17.202   8.632  0.00  0.00     0.188 A 
HETATM    6  C   UNK N   1      32.568  17.538   8.113  0.00  0.00     0.145 A 
ENDROOT
BRANCH   1   7
HETATM    7  C   UNK N   1      29.456  16.915   6.351  0.00  0.00     0.262 C 
HETATM    8  O   UNK N   1      29.904  16.473   5.106  0.00  0.00    -0.353 OA
HETATM    9  C   UNK N   1      28.675  16.394   4.441  0.00  0.00     0.179 C 
HETATM   10  C   UNK N   1      27.902  17.675   4.764  0.00  0.00     0.182 C 
HETATM   11  C   UNK N   1      28.569  18.108   6.050  0.00  0.00     0.198 C 
BRANCH   9  12
HETATM   12  C   UNK N   1      28.829  16.087   2.960  0.00  0.00     0.198 C 
BRANCH  12  13
HETATM   13  O   UNK N   1      29.951  16.750   2.459  0.00  0.00    -0.398 OA
HETATM   14  H   UNK N   1      30.168  17.661   2.713  0.00  0.00     0.209 HD
ENDBRANCH  12  13
ENDBRANCH   9  12
BRANCH  10  15
HETATM   15  O   UNK N   1      28.130  18.660   3.799  0.00  0.00    -0.390 OA
HETATM   16  H   UNK N   1      27.861  19.391   3.221  0.00  0.00     0.210 HD
ENDBRANCH  10  15
BRANCH  11  17
HETATM   17  O   UNK N   1      27.636  18.311   7.066  0.00  0.00    -0.388 OA
HETATM   18  H   UNK N   1      26.833  18.842   7.187  0.00  0.00     0.210 HD
ENDBRANCH  11  17
ENDBRANCH   1   7
BRANCH   4  19
HETATM   19  N   UNK N   1      32.333  17.460   5.638  0.00  0.00    -0.383 N 
HETATM   20  H   UNK N   1      32.670  18.301   5.254  0.00  0.00     0.157 HD
HETATM   21  H   UNK N   1      32.342  16.642   5.090  0.00  0.00     0.157 HD
ENDBRANCH   4  19
BRANCH   6  22
HETATM   22  C   UNK N   1      34.022  17.764   8.229  0.00  0.00     0.269 C 
HETATM   23  O   UNK N   1      34.656  18.199   7.281  0.00  0.00    -0.266 OA
HETATM   24  N   UNK N   1      34.659  17.480   9.382  0.00  0.00    -0.365 N 
HETATM   25  H   UNK N   1      35.603  17.726   9.513  0.00  0.00     0.159 HD
HETATM   26  H   UNK N   1      34.173  17.020  10.104  0.00  0.00     0.159 HD
ENDBRANCH   6  22
TORSDOF 7
ENDMDL
MODEL 7
REMARK VINA RESULT:      -5.4      3.581      5.104
REMARK  7 active torsions:
REMARK  status: ('A' for Active; 'I' for Inactive)
REMARK    1  A    between atoms: C_11  and  O_2 
REMARK    2  A    between atoms: C_13  and  O_3 
REMARK    3  A    between atoms: O_4  and  C_15 
REMARK    4  A    between atoms: C_12  and  N_6 
REMARK    5  A    between atoms: N_9  and  C_16 
REMARK       I    between atoms: N_10  and  C_19 
REMARK    6  A    between atoms: C_14  and  C_15 
REMARK    7  A    between atoms: C_18  and  C_19 
ROOT
HETATM    1  N   UNK N   1      35.404  14.783   9.122  0.00  0.00    -0.297 N 
HETATM    2  N   UNK N   1      34.926  15.951   7.277  0.00  0.00    -0.345 N 
ATOM      3  HN  UNK N   1      34.797  16.203   6.297  1.00  0.00     0.167 HD
HETATM    4  C   UNK N   1      35.000  16.009   9.486  0.00  0.00     0.137 A 
HETATM    5  C   UNK N   1      35.355  14.763   7.771  0.00  0.00     0.188 A 
HETATM    6  C   UNK N   1      34.705  16.731   8.355  0.00  0.00     0.145 A 
ENDROOT
BRANCH   1   7
HETATM    7  C   UNK N   1      35.734  13.673  10.020  0.00  0.00     0.262 C 
HETATM    8  O   UNK N   1      34.840  13.557  11.084  0.00  0.00    -0.353 OA
HETATM    9  C   UNK N   1      35.458  12.515  11.784  0.00  0.00     0.179 C 
HETATM   10  C   UNK N   1      36.955  12.834  11.841  0.00  0.00     0.182 C 
HETATM   11  C   UNK N   1      37.103  13.772  10.664  0.00  0.00     0.198 C 
BRANCH   9  12
HETATM   12  C   UNK N   1      34.803  12.241  13.128  0.00  0.00     0.198 C 
BRANCH  12  13
HETATM   13  O   UNK N   1      34.686  13.435  13.842  0.00  0.00    -0.398 OA
HETATM   14  H   UNK N   1      35.456  13.979  14.070  0.00  0.00     0.209 HD
ENDBRANCH  12  13
ENDBRANCH   9  12
BRANCH  10  15
HETATM   15  O   UNK N   1      37.278  13.535  13.005  0.00  0.00    -0.390 OA
HETATM   16  H   UNK N   1      37.093  14.158  13.726  0.00  0.00     0.210 HD
ENDBRANCH  10  15
BRANCH  11  17
HETATM   17  O   UNK N   1      38.103  13.344   9.793  0.00  0.00    -0.388 OA
HETATM   18  H   UNK N   1      38.146  12.841   8.963  0.00  0.00     0.210 HD
ENDBRANCH  11  17
ENDBRANCH   1   7
BRANCH   4  19
HETATM   19  N   UNK N   1      34.894  16.455  10.820  0.00  0.00    -0.383 N 
HETATM   20  H   UNK N   1      34.293  17.194  11.066  0.00  0.00     0.157 HD
HETATM   21  H   UNK N   1      35.433  16.018  11.520  0.00  0.00     0.157 HD
ENDBRANCH   4  19
BRANCH   6  22
HETATM   22  C   UNK N   1      34.209  18.119   8.287  0.00  0.00     0.269 C 
HETATM   23  O   UNK N   1      34.989  19.056   8.344  0.00  0.00    -0.266 OA
HETATM   24  N   UNK N   1      32.888  18.359   8.172  0.00  0.00    -0.365 N 
HETATM   25  H   UNK N   1      32.550  19.270   8.016  0.00  0.00     0.159 HD
HETATM   26  H   UNK N   1      32.251  17.611   8.246  0.00  0.00     0.159 HD
ENDBRANCH   6  22
TORSDOF 7
ENDMDL
MODEL 8
REMARK VINA RESULT:      -5.0      7.542     10.401
REMARK  7 active torsions:
REMARK  status: ('A' for Active; 'I' for Inactive)
REMARK    1  A    between atoms: C_11  and  O_2 
REMARK    2  A    between atoms: C_13  and  O_3 
REMARK    3  A    between atoms: O_4  and  C_15 
REMARK    4  A    between atoms: C_12  and  N_6 
REMARK    5  A    between atoms: N_9  and  C_16 
REMARK       I    between atoms: N_10  and  C_19 
REMARK    6  A    between atoms: C_14  and  C_15 
REMARK    7  A    between atoms: C_18  and  C_19 
ROOT
HETATM    1  N   UNK N   1      35.220  12.645  16.159  0.00  0.00    -0.297 N 
HETATM    2  N   UNK N   1      35.143  10.971  17.639  0.00  0.00    -0.345 N 
ATOM      3  HN  UNK N   1      35.090  10.033  18.037  1.00  0.00     0.167 HD
HETATM    4  C   UNK N   1      35.286  13.164  17.395  0.00  0.00     0.137 A 
HETATM    5  C   UNK N   1      35.132  11.306  16.324  0.00  0.00     0.188 A 
HETATM    6  C   UNK N   1      35.238  12.138  18.308  0.00  0.00     0.145 A 
ENDROOT
BRANCH   1   7
HETATM    7  C   UNK N   1      35.322  13.385  14.899  0.00  0.00     0.262 C 
HETATM    8  O   UNK N   1      34.803  12.677  13.815  0.00  0.00    -0.353 OA
HETATM    9  C   UNK N   1      35.126  13.570  12.788  0.00  0.00     0.179 C 
HETATM   10  C   UNK N   1      36.573  14.017  13.015  0.00  0.00     0.182 C 
HETATM   11  C   UNK N   1      36.739  13.743  14.493  0.00  0.00     0.198 C 
BRANCH   9  12
HETATM   12  C   UNK N   1      34.832  13.007  11.406  0.00  0.00     0.198 C 
BRANCH  12  13
HETATM   13  O   UNK N   1      35.319  13.881  10.433  0.00  0.00    -0.398 OA
HETATM   14  H   UNK N   1      35.931  13.592   9.738  0.00  0.00     0.209 HD
ENDBRANCH  12  13
ENDBRANCH   9  12
BRANCH  10  15
HETATM   15  O   UNK N   1      37.468  13.205  12.315  0.00  0.00    -0.390 OA
HETATM   16  H   UNK N   1      38.311  13.020  11.872  0.00  0.00     0.210 HD
ENDBRANCH  10  15
BRANCH  11  17
HETATM   17  O   UNK N   1      37.188  14.873  15.175  0.00  0.00    -0.388 OA
HETATM   18  H   UNK N   1      37.476  15.769  14.938  0.00  0.00     0.210 HD
ENDBRANCH  11  17
ENDBRANCH   1   7
BRANCH   4  19
HETATM   19  N   UNK N   1      35.395  14.541  17.682  0.00  0.00    -0.383 N 
HETATM   20  H   UNK N   1      35.705  14.857  18.561  0.00  0.00     0.157 HD
HETATM   21  H   UNK N   1      35.157  15.199  16.989  0.00  0.00     0.157 HD
ENDBRANCH   4  19
BRANCH   6  22
HETATM   22  C   UNK N   1      35.299  12.249  19.778  0.00  0.00     0.269 C 
HETATM   23  O   UNK N   1      34.791  13.201  20.346  0.00  0.00    -0.266 OA
HETATM   24  N   UNK N   1      35.927  11.300  20.500  0.00  0.00    -0.365 N 
HETATM   25  H   UNK N   1      35.883  11.300  21.483  0.00  0.00     0.159 HD
HETATM   26  H   UNK N   1      36.438  10.597  20.037  0.00  0.00     0.159 HD
ENDBRANCH   6  22
TORSDOF 7
ENDMDL
MODEL 9
REMARK VINA RESULT:      -5.0      4.090      7.030
REMARK  7 active torsions:
REMARK  status: ('A' for Active; 'I' for Inactive)
REMARK    1  A    between atoms: C_11  and  O_2 
REMARK    2  A    between atoms: C_13  and  O_3 
REMARK    3  A    between atoms: O_4  and  C_15 
REMARK    4  A    between atoms: C_12  and  N_6 
REMARK    5  A    between atoms: N_9  and  C_16 
REMARK       I    between atoms: N_10  and  C_19 
REMARK    6  A    between atoms: C_14  and  C_15 
REMARK    7  A    between atoms: C_18  and  C_19 
ROOT
HETATM    1  N   UNK N   1      34.903  13.951  10.446  0.00  0.00    -0.297 N 
HETATM    2  N   UNK N   1      35.792  12.352  11.731  0.00  0.00    -0.345 N 
ATOM      3  HN  UNK N   1      36.090  11.437  12.070  1.00  0.00     0.167 HD
HETATM    4  C   UNK N   1      35.416  14.523  11.546  0.00  0.00     0.137 A 
HETATM    5  C   UNK N   1      35.138  12.626  10.574  0.00  0.00     0.188 A 
HETATM    6  C   UNK N   1      35.964  13.543  12.339  0.00  0.00     0.145 A 
ENDROOT
BRANCH   1   7
HETATM    7  C   UNK N   1      34.300  14.645   9.305  0.00  0.00     0.262 C 
HETATM    8  O   UNK N   1      34.859  15.904   9.085  0.00  0.00    -0.353 OA
HETATM    9  C   UNK N   1      34.037  16.333   8.037  0.00  0.00     0.179 C 
HETATM   10  C   UNK N   1      32.595  15.997   8.426  0.00  0.00     0.182 C 
HETATM   11  C   UNK N   1      32.810  14.892   9.436  0.00  0.00     0.198 C 
BRANCH   9  12
HETATM   12  C   UNK N   1      34.283  17.784   7.655  0.00  0.00     0.198 C 
BRANCH  12  13
HETATM   13  O   UNK N   1      34.315  17.902   6.264  0.00  0.00    -0.398 OA
HETATM   14  H   UNK N   1      34.295  17.128   5.679  0.00  0.00     0.209 HD
ENDBRANCH  12  13
ENDBRANCH   9  12
BRANCH  10  15
HETATM   15  O   UNK N   1      31.983  17.072   9.075  0.00  0.00    -0.390 OA
HETATM   16  H   UNK N   1      31.948  17.790   9.727  0.00  0.00     0.210 HD
ENDBRANCH  10  15
BRANCH  11  17
HETATM   17  O   UNK N   1      32.079  13.751   9.108  0.00  0.00    -0.388 OA
HETATM   18  H   UNK N   1      31.906  12.886   9.512  0.00  0.00     0.210 HD
ENDBRANCH  11  17
ENDBRANCH   1   7
BRANCH   4  19
HETATM   19  N   UNK N   1      35.394  15.908  11.815  0.00  0.00    -0.383 N 
HETATM   20  H   UNK N   1      34.581  16.350  12.151  0.00  0.00     0.157 HD
HETATM   21  H   UNK N   1      36.206  16.442  11.663  0.00  0.00     0.157 HD
ENDBRANCH   4  19
BRANCH   6  22
HETATM   22  C   UNK N   1      36.650  13.723  13.633  0.00  0.00     0.269 C 
HETATM   23  O   UNK N   1      36.610  14.798  14.208  0.00  0.00    -0.266 OA
HETATM   24  N   UNK N   1      37.336  12.700  14.180  0.00  0.00    -0.365 N 
HETATM   25  H   UNK N   1      37.706  12.767  15.089  0.00  0.00     0.159 HD
HETATM   26  H   UNK N   1      37.468  11.872  13.662  0.00  0.00     0.159 HD
ENDBRANCH   6  22
TORSDOF 7
ENDMDL
