MODEL 1
REMARK VINA RESULT:      -7.1      0.000      0.000
REMARK  2 active torsions:
REMARK  status: ('A' for Active; 'I' for Inactive)
REMARK       I    between atoms: N_4  and  C_19 
REMARK    1  A    between atoms: N_7  and  C_26 
REMARK    2  A    between atoms: C_12  and  C_18 
ROOT
HETATM    1  O   UNK N   1      24.847  23.501  -7.861  0.00  0.00    -0.323 OA
HETATM    2  O   UNK N   1      26.386  22.065  -7.180  0.00  0.00    -0.323 OA
HETATM    3  O   UNK N   1      28.925  30.031  -4.088  0.00  0.00    -0.272 OA
HETATM    4  N   UNK N   1      28.843  27.802  -4.517  0.00  0.00    -0.256 N 
HETATM    5  N   UNK N   1      29.302  26.562  -4.099  0.00  0.00    -0.294 N 
ATOM      6  HN  UNK N   1      30.031  26.602  -3.387  1.00  0.00     0.187 HD
HETATM    7  C   UNK N   1      28.025  27.910  -5.718  0.00  0.00     0.111 C 
HETATM    8  C   UNK N   1      26.708  27.298  -5.409  0.00  0.00     0.066 C 
HETATM    9  C   UNK N   1      26.767  25.892  -5.828  0.00  0.00    -0.041 A 
HETATM   10  C   UNK N   1      27.796  24.984  -5.391  0.00  0.00     0.002 A 
HETATM   11  C   UNK N   1      28.965  25.351  -4.458  0.00  0.00     0.069 C 
HETATM   12  C   UNK N   1      27.812  29.298  -6.312  0.00  0.00     0.034 C 
HETATM   13  C   UNK N   1      25.733  25.455  -6.682  0.00  0.00     0.047 A 
HETATM   14  C   UNK N   1      27.688  23.642  -5.837  0.00  0.00     0.054 A 
HETATM   15  C   UNK N   1      25.720  24.127  -7.074  0.00  0.00     0.105 A 
HETATM   16  C   UNK N   1      26.644  23.266  -6.668  0.00  0.00     0.105 A 
HETATM   17  C   UNK N   1      29.260  28.895  -3.791  0.00  0.00     0.234 C 
HETATM   18  C   UNK N   1      25.230  22.160  -7.963  0.00  0.00     0.352 A 
HETATM   19  C   UNK N   1      30.136  28.716  -2.590  0.00  0.00     0.119 C 
ENDROOT
BRANCH  11  20
HETATM   20  C   UNK N   1      29.871  24.276  -3.892  0.00  0.00    -0.007 A 
HETATM   21  C   UNK N   1      31.106  24.025  -4.522  0.00  0.00     0.016 A 
HETATM   22  C   UNK N   1      31.951  23.006  -4.076  0.00  0.00     0.030 A 
HETATM   23  C   UNK N   1      31.570  22.206  -2.998  0.00  0.00     0.025 A 
HETATM   24  C   UNK N   1      30.354  22.438  -2.357  0.00  0.00     0.030 A 
HETATM   25  C   UNK N   1      29.516  23.465  -2.799  0.00  0.00     0.016 A 
BRANCH  23  26
HETATM   26  N   UNK N   1      32.409  21.163  -2.562  0.00  0.00    -0.399 N 
HETATM   27  H   UNK N   1      32.356  20.845  -1.632  0.00  0.00     0.156 HD
HETATM   28  H   UNK N   1      33.049  20.752  -3.187  0.00  0.00     0.156 HD
ENDBRANCH  23  26
ENDBRANCH  11  20
TORSDOF 2
ENDMDL
MODEL 2
REMARK VINA RESULT:      -7.1     21.014     24.706
REMARK  2 active torsions:
REMARK  status: ('A' for Active; 'I' for Inactive)
REMARK       I    between atoms: N_4  and  C_19 
REMARK    1  A    between atoms: N_7  and  C_26 
REMARK    2  A    between atoms: C_12  and  C_18 
ROOT
HETATM    1  O   UNK N   1      38.803   7.748  13.458  0.00  0.00    -0.323 OA
HETATM    2  O   UNK N   1      38.459   8.652  15.448  0.00  0.00    -0.323 OA
HETATM    3  O   UNK N   1      36.797  15.088   9.508  0.00  0.00    -0.272 OA
HETATM    4  N   UNK N   1      37.014  13.950  11.461  0.00  0.00    -0.256 N 
HETATM    5  N   UNK N   1      36.644  13.934  12.797  0.00  0.00    -0.294 N 
ATOM      6  HN  UNK N   1      36.162  14.778  13.109  1.00  0.00     0.187 HD
HETATM    7  C   UNK N   1      37.953  12.956  10.953  0.00  0.00     0.111 C 
HETATM    8  C   UNK N   1      37.251  11.648  10.954  0.00  0.00     0.066 C 
HETATM    9  C   UNK N   1      37.560  10.985  12.227  0.00  0.00    -0.041 A 
HETATM   10  C   UNK N   1      37.351  11.606  13.510  0.00  0.00     0.002 A 
HETATM   11  C   UNK N   1      36.803  13.029  13.727  0.00  0.00     0.069 C 
HETATM   12  C   UNK N   1      38.572  13.199   9.581  0.00  0.00     0.034 C 
HETATM   13  C   UNK N   1      38.064   9.670  12.135  0.00  0.00     0.047 A 
HETATM   14  C   UNK N   1      37.647  10.819  14.651  0.00  0.00     0.054 A 
HETATM   15  C   UNK N   1      38.335   8.986  13.307  0.00  0.00     0.105 A 
HETATM   16  C   UNK N   1      38.130   9.528  14.501  0.00  0.00     0.105 A 
HETATM   17  C   UNK N   1      36.516  14.977  10.691  0.00  0.00     0.234 C 
HETATM   18  C   UNK N   1      38.902   7.480  14.828  0.00  0.00     0.352 A 
HETATM   19  C   UNK N   1      35.588  15.989  11.288  0.00  0.00     0.119 C 
ENDROOT
BRANCH  11  20
HETATM   20  C   UNK N   1      36.424  13.509  15.113  0.00  0.00    -0.007 A 
HETATM   21  C   UNK N   1      35.321  12.916  15.762  0.00  0.00     0.016 A 
HETATM   22  C   UNK N   1      34.895  13.362  17.015  0.00  0.00     0.030 A 
HETATM   23  C   UNK N   1      35.554  14.421  17.640  0.00  0.00     0.025 A 
HETATM   24  C   UNK N   1      36.649  15.021  17.019  0.00  0.00     0.030 A 
HETATM   25  C   UNK N   1      37.079  14.566  15.770  0.00  0.00     0.016 A 
BRANCH  23  26
HETATM   26  N   UNK N   1      35.110  14.888  18.892  0.00  0.00    -0.399 N 
HETATM   27  H   UNK N   1      34.625  15.743  18.954  0.00  0.00     0.156 HD
HETATM   28  H   UNK N   1      35.285  14.361  19.704  0.00  0.00     0.156 HD
ENDBRANCH  23  26
ENDBRANCH  11  20
TORSDOF 2
ENDMDL
MODEL 3
REMARK VINA RESULT:      -7.0     12.275     14.387
REMARK  2 active torsions:
REMARK  status: ('A' for Active; 'I' for Inactive)
REMARK       I    between atoms: N_4  and  C_19 
REMARK    1  A    between atoms: N_7  and  C_26 
REMARK    2  A    between atoms: C_12  and  C_18 
ROOT
HETATM    1  O   UNK N   1      26.443  19.915   5.279  0.00  0.00    -0.323 OA
HETATM    2  O   UNK N   1      27.716  19.968   7.088  0.00  0.00    -0.323 OA
HETATM    3  O   UNK N   1      30.786  13.230   2.125  0.00  0.00    -0.272 OA
HETATM    4  N   UNK N   1      30.546  14.758   3.788  0.00  0.00    -0.256 N 
HETATM    5  N   UNK N   1      31.196  15.377   4.845  0.00  0.00    -0.294 N 
ATOM      6  HN  UNK N   1      32.104  14.973   5.074  1.00  0.00     0.187 HD
HETATM    7  C   UNK N   1      29.136  15.032   3.538  0.00  0.00     0.111 C 
HETATM    8  C   UNK N   1      29.041  16.430   3.045  0.00  0.00     0.066 C 
HETATM    9  C   UNK N   1      28.787  17.289   4.208  0.00  0.00    -0.041 A 
HETATM   10  C   UNK N   1      29.617  17.286   5.385  0.00  0.00     0.002 A 
HETATM   11  C   UNK N   1      30.850  16.388   5.598  0.00  0.00     0.069 C 
HETATM   12  C   UNK N   1      28.389  14.106   2.584  0.00  0.00     0.034 C 
HETATM   13  C   UNK N   1      27.678  18.156   4.108  0.00  0.00     0.047 A 
HETATM   14  C   UNK N   1      29.276  18.211   6.404  0.00  0.00     0.054 A 
HETATM   15  C   UNK N   1      27.419  19.016   5.161  0.00  0.00     0.105 A 
HETATM   16  C   UNK N   1      28.180  19.047   6.247  0.00  0.00     0.105 A 
HETATM   17  C   UNK N   1      31.273  13.840   3.064  0.00  0.00     0.234 C 
HETATM   18  C   UNK N   1      26.589  20.562   6.511  0.00  0.00     0.352 A 
HETATM   19  C   UNK N   1      32.707  13.576   3.402  0.00  0.00     0.119 C 
ENDROOT
BRANCH  11  20
HETATM   20  C   UNK N   1      31.773  16.610   6.779  0.00  0.00    -0.007 A 
HETATM   21  C   UNK N   1      32.806  17.562   6.666  0.00  0.00     0.016 A 
HETATM   22  C   UNK N   1      33.721  17.763   7.703  0.00  0.00     0.030 A 
HETATM   23  C   UNK N   1      33.629  17.004   8.870  0.00  0.00     0.025 A 
HETATM   24  C   UNK N   1      32.614  16.057   9.005  0.00  0.00     0.030 A 
HETATM   25  C   UNK N   1      31.695  15.866   7.970  0.00  0.00     0.016 A 
BRANCH  23  26
HETATM   26  N   UNK N   1      34.564  17.187   9.906  0.00  0.00    -0.399 N 
HETATM   27  H   UNK N   1      34.457  16.703  10.757  0.00  0.00     0.156 HD
HETATM   28  H   UNK N   1      35.324  17.799   9.781  0.00  0.00     0.156 HD
ENDBRANCH  23  26
ENDBRANCH  11  20
TORSDOF 2
ENDMDL
MODEL 4
REMARK VINA RESULT:      -7.0     11.427     13.038
REMARK  2 active torsions:
REMARK  status: ('A' for Active; 'I' for Inactive)
REMARK       I    between atoms: N_4  and  C_19 
REMARK    1  A    between atoms: N_7  and  C_26 
REMARK    2  A    between atoms: C_12  and  C_18 
ROOT
HETATM    1  O   UNK N   1      23.897  14.127   1.951  0.00  0.00    -0.323 OA
HETATM    2  O   UNK N   1      23.475  15.869   3.249  0.00  0.00    -0.323 OA
HETATM    3  O   UNK N   1      32.355  15.178   2.877  0.00  0.00    -0.272 OA
HETATM    4  N   UNK N   1      30.261  15.918   3.348  0.00  0.00    -0.256 N 
HETATM    5  N   UNK N   1      29.528  17.016   3.772  0.00  0.00    -0.294 N 
ATOM      6  HN  UNK N   1      30.095  17.797   4.102  1.00  0.00     0.187 HD
HETATM    7  C   UNK N   1      29.596  14.639   3.129  0.00  0.00     0.111 C 
HETATM    8  C   UNK N   1      28.740  14.790   1.925  0.00  0.00     0.066 C 
HETATM    9  C   UNK N   1      27.398  15.171   2.385  0.00  0.00    -0.041 A 
HETATM   10  C   UNK N   1      27.153  16.295   3.253  0.00  0.00     0.002 A 
HETATM   11  C   UNK N   1      28.238  17.227   3.824  0.00  0.00     0.069 C 
HETATM   12  C   UNK N   1      30.471  13.400   2.976  0.00  0.00     0.034 C 
HETATM   13  C   UNK N   1      26.331  14.379   1.911  0.00  0.00     0.047 A 
HETATM   14  C   UNK N   1      25.798  16.570   3.567  0.00  0.00     0.054 A 
HETATM   15  C   UNK N   1      25.042  14.720   2.283  0.00  0.00     0.105 A 
HETATM   16  C   UNK N   1      24.789  15.763   3.063  0.00  0.00     0.105 A 
HETATM   17  C   UNK N   1      31.621  16.089   3.227  0.00  0.00     0.234 C 
HETATM   18  C   UNK N   1      22.848  14.832   2.551  0.00  0.00     0.352 A 
HETATM   19  C   UNK N   1      32.244  17.421   3.509  0.00  0.00     0.119 C 
ENDROOT
BRANCH  11  20
HETATM   20  C   UNK N   1      27.859  18.500   4.552  0.00  0.00    -0.007 A 
HETATM   21  C   UNK N   1      27.985  18.545   5.956  0.00  0.00     0.016 A 
HETATM   22  C   UNK N   1      27.594  19.674   6.680  0.00  0.00     0.030 A 
HETATM   23  C   UNK N   1      27.056  20.777   6.016  0.00  0.00     0.025 A 
HETATM   24  C   UNK N   1      26.924  20.756   4.629  0.00  0.00     0.030 A 
HETATM   25  C   UNK N   1      27.326  19.629   3.906  0.00  0.00     0.016 A 
BRANCH  23  26
HETATM   26  N   UNK N   1      26.638  21.905   6.747  0.00  0.00    -0.399 N 
HETATM   27  H   UNK N   1      25.889  21.830   7.383  0.00  0.00     0.156 HD
HETATM   28  H   UNK N   1      27.094  22.768   6.623  0.00  0.00     0.156 HD
ENDBRANCH  23  26
ENDBRANCH  11  20
TORSDOF 2
ENDMDL
MODEL 5
REMARK VINA RESULT:      -6.9     13.348     15.867
REMARK  2 active torsions:
REMARK  status: ('A' for Active; 'I' for Inactive)
REMARK       I    between atoms: N_4  and  C_19 
REMARK    1  A    between atoms: N_7  and  C_26 
REMARK    2  A    between atoms: C_12  and  C_18 
ROOT
HETATM    1  O   UNK N   1      19.597  15.457   9.175  0.00  0.00    -0.323 OA
HETATM    2  O   UNK N   1      18.903  17.149   7.929  0.00  0.00    -0.323 OA
HETATM    3  O   UNK N   1      26.753  14.648   4.525  0.00  0.00    -0.272 OA
HETATM    4  N   UNK N   1      24.779  15.722   4.848  0.00  0.00    -0.256 N 
HETATM    5  N   UNK N   1      23.823  16.519   4.237  0.00  0.00    -0.294 N 
ATOM      6  HN  UNK N   1      24.092  16.867   3.317  1.00  0.00     0.187 HD
HETATM    7  C   UNK N   1      24.661  15.398   6.265  0.00  0.00     0.111 C 
HETATM    8  C   UNK N   1      23.506  14.477   6.410  0.00  0.00     0.066 C 
HETATM    9  C   UNK N   1      22.326  15.297   6.713  0.00  0.00    -0.041 A 
HETATM   10  C   UNK N   1      21.911  16.411   5.899  0.00  0.00     0.002 A 
HETATM   11  C   UNK N   1      22.637  16.903   4.633  0.00  0.00     0.069 C 
HETATM   12  C   UNK N   1      25.878  14.799   6.961  0.00  0.00     0.034 C 
HETATM   13  C   UNK N   1      21.587  14.921   7.855  0.00  0.00     0.047 A 
HETATM   14  C   UNK N   1      20.720  17.072   6.291  0.00  0.00     0.054 A 
HETATM   15  C   UNK N   1      20.443  15.637   8.162  0.00  0.00     0.105 A 
HETATM   16  C   UNK N   1      20.028  16.653   7.417  0.00  0.00     0.105 A 
HETATM   17  C   UNK N   1      25.851  15.336   4.075  0.00  0.00     0.234 C 
HETATM   18  C   UNK N   1      18.578  16.411   9.072  0.00  0.00     0.352 A 
HETATM   19  C   UNK N   1      25.930  15.740   2.636  0.00  0.00     0.119 C 
ENDROOT
BRANCH  11  20
HETATM   20  C   UNK N   1      22.005  17.946   3.735  0.00  0.00    -0.007 A 
HETATM   21  C   UNK N   1      20.963  17.557   2.869  0.00  0.00     0.016 A 
HETATM   22  C   UNK N   1      20.386  18.466   1.979  0.00  0.00     0.030 A 
HETATM   23  C   UNK N   1      20.849  19.781   1.927  0.00  0.00     0.025 A 
HETATM   24  C   UNK N   1      21.878  20.189   2.775  0.00  0.00     0.030 A 
HETATM   25  C   UNK N   1      22.445  19.280   3.672  0.00  0.00     0.016 A 
BRANCH  23  26
HETATM   26  N   UNK N   1      20.286  20.692   1.013  0.00  0.00    -0.399 N 
HETATM   27  H   UNK N   1      19.364  21.012   1.143  0.00  0.00     0.156 HD
HETATM   28  H   UNK N   1      20.813  21.008   0.245  0.00  0.00     0.156 HD
ENDBRANCH  23  26
ENDBRANCH  11  20
TORSDOF 2
ENDMDL
MODEL 6
REMARK VINA RESULT:      -6.9     12.939     15.450
REMARK  2 active torsions:
REMARK  status: ('A' for Active; 'I' for Inactive)
REMARK       I    between atoms: N_4  and  C_19 
REMARK    1  A    between atoms: N_7  and  C_26 
REMARK    2  A    between atoms: C_12  and  C_18 
ROOT
HETATM    1  O   UNK N   1      33.153  14.344   2.291  0.00  0.00    -0.323 OA
HETATM    2  O   UNK N   1      34.726  14.399   3.846  0.00  0.00    -0.323 OA
HETATM    3  O   UNK N   1      27.658  18.547   7.354  0.00  0.00    -0.272 OA
HETATM    4  N   UNK N   1      29.713  17.616   7.098  0.00  0.00    -0.256 N 
HETATM    5  N   UNK N   1      30.817  17.129   7.782  0.00  0.00    -0.294 N 
ATOM      6  HN  UNK N   1      30.803  17.311   8.786  1.00  0.00     0.187 HD
HETATM    7  C   UNK N   1      29.732  17.688   5.642  0.00  0.00     0.111 C 
HETATM    8  C   UNK N   1      29.688  16.294   5.133  0.00  0.00     0.066 C 
HETATM    9  C   UNK N   1      31.075  15.861   4.920  0.00  0.00    -0.041 A 
HETATM   10  C   UNK N   1      32.087  15.932   5.943  0.00  0.00     0.002 A 
HETATM   11  C   UNK N   1      31.872  16.477   7.367  0.00  0.00     0.069 C 
HETATM   12  C   UNK N   1      28.647  18.513   4.957  0.00  0.00     0.034 C 
HETATM   13  C   UNK N   1      31.372  15.338   3.644  0.00  0.00     0.047 A 
HETATM   14  C   UNK N   1      33.367  15.424   5.604  0.00  0.00     0.054 A 
HETATM   15  C   UNK N   1      32.656  14.878   3.405  0.00  0.00     0.105 A 
HETATM   16  C   UNK N   1      33.600  14.913   4.337  0.00  0.00     0.105 A 
HETATM   17  C   UNK N   1      28.667  18.083   7.861  0.00  0.00     0.234 C 
HETATM   18  C   UNK N   1      34.493  14.014   2.522  0.00  0.00     0.352 A 
HETATM   19  C   UNK N   1      28.732  18.017   9.355  0.00  0.00     0.119 C 
ENDROOT
BRANCH  11  20
HETATM   20  C   UNK N   1      32.941  16.314   8.428  0.00  0.00    -0.007 A 
HETATM   21  C   UNK N   1      33.878  17.351   8.615  0.00  0.00     0.016 A 
HETATM   22  C   UNK N   1      34.919  17.226   9.539  0.00  0.00     0.030 A 
HETATM   23  C   UNK N   1      35.052  16.054  10.284  0.00  0.00     0.025 A 
HETATM   24  C   UNK N   1      34.136  15.017  10.118  0.00  0.00     0.030 A 
HETATM   25  C   UNK N   1      33.090  15.149   9.201  0.00  0.00     0.016 A 
BRANCH  23  26
HETATM   26  N   UNK N   1      36.115  15.917  11.198  0.00  0.00    -0.399 N 
HETATM   27  H   UNK N   1      37.001  15.625  10.881  0.00  0.00     0.156 HD
HETATM   28  H   UNK N   1      35.973  16.111  12.151  0.00  0.00     0.156 HD
ENDBRANCH  23  26
ENDBRANCH  11  20
TORSDOF 2
ENDMDL
MODEL 7
REMARK VINA RESULT:      -6.9      3.075      6.457
REMARK  2 active torsions:
REMARK  status: ('A' for Active; 'I' for Inactive)
REMARK       I    between atoms: N_4  and  C_19 
REMARK    1  A    between atoms: N_7  and  C_26 
REMARK    2  A    between atoms: C_12  and  C_18 
ROOT
HETATM    1  O   UNK N   1      30.494  21.971  -3.616  0.00  0.00    -0.323 OA
HETATM    2  O   UNK N   1      30.078  23.967  -2.757  0.00  0.00    -0.323 OA
HETATM    3  O   UNK N   1      26.423  23.983 -10.887  0.00  0.00    -0.272 OA
HETATM    4  N   UNK N   1      27.061  24.613  -8.801  0.00  0.00    -0.256 N 
HETATM    5  N   UNK N   1      26.803  25.505  -7.771  0.00  0.00    -0.294 N 
ATOM      6  HN  UNK N   1      26.149  26.248  -8.013  1.00  0.00     0.187 HD
HETATM    7  C   UNK N   1      28.180  23.684  -8.699  0.00  0.00     0.111 C 
HETATM    8  C   UNK N   1      27.832  22.691  -7.651  0.00  0.00     0.066 C 
HETATM    9  C   UNK N   1      28.390  23.176  -6.383  0.00  0.00    -0.041 A 
HETATM   10  C   UNK N   1      28.124  24.492  -5.858  0.00  0.00     0.002 A 
HETATM   11  C   UNK N   1      27.252  25.560  -6.544  0.00  0.00     0.069 C 
HETATM   12  C   UNK N   1      28.617  22.955  -9.964  0.00  0.00     0.034 C 
HETATM   13  C   UNK N   1      29.201  22.266  -5.673  0.00  0.00     0.047 A 
HETATM   14  C   UNK N   1      28.691  24.796  -4.595  0.00  0.00     0.054 A 
HETATM   15  C   UNK N   1      29.719  22.660  -4.452  0.00  0.00     0.105 A 
HETATM   16  C   UNK N   1      29.472  23.858  -3.937  0.00  0.00     0.105 A 
HETATM   17  C   UNK N   1      26.265  24.712  -9.920  0.00  0.00     0.234 C 
HETATM   18  C   UNK N   1      30.756  22.772  -2.499  0.00  0.00     0.352 A 
HETATM   19  C   UNK N   1      25.158  25.718  -9.975  0.00  0.00     0.119 C 
ENDROOT
BRANCH  11  20
HETATM   20  C   UNK N   1      26.866  26.829  -5.813  0.00  0.00    -0.007 A 
HETATM   21  C   UNK N   1      27.608  28.005  -6.050  0.00  0.00     0.016 A 
HETATM   22  C   UNK N   1      27.330  29.186  -5.358  0.00  0.00     0.030 A 
HETATM   23  C   UNK N   1      26.312  29.212  -4.403  0.00  0.00     0.025 A 
HETATM   24  C   UNK N   1      25.564  28.063  -4.153  0.00  0.00     0.030 A 
HETATM   25  C   UNK N   1      25.838  26.886  -4.855  0.00  0.00     0.016 A 
BRANCH  23  26
HETATM   26  N   UNK N   1      26.048  30.395  -3.687  0.00  0.00    -0.399 N 
HETATM   27  H   UNK N   1      26.238  30.439  -2.722  0.00  0.00     0.156 HD
HETATM   28  H   UNK N   1      25.671  31.177  -4.151  0.00  0.00     0.156 HD
ENDBRANCH  23  26
ENDBRANCH  11  20
TORSDOF 2
ENDMDL
MODEL 8
REMARK VINA RESULT:      -6.7      1.477      5.276
REMARK  2 active torsions:
REMARK  status: ('A' for Active; 'I' for Inactive)
REMARK       I    between atoms: N_4  and  C_19 
REMARK    1  A    between atoms: N_7  and  C_26 
REMARK    2  A    between atoms: C_12  and  C_18 
ROOT
HETATM    1  O   UNK N   1      30.260  30.302  -3.053  0.00  0.00    -0.323 OA
HETATM    2  O   UNK N   1      31.495  28.697  -2.159  0.00  0.00    -0.323 OA
HETATM    3  O   UNK N   1      25.304  24.581  -7.077  0.00  0.00    -0.272 OA
HETATM    4  N   UNK N   1      27.092  24.970  -5.734  0.00  0.00    -0.256 N 
HETATM    5  N   UNK N   1      28.266  24.419  -5.241  0.00  0.00    -0.294 N 
ATOM      6  HN  UNK N   1      28.385  23.428  -5.452  1.00  0.00     0.187 HD
HETATM    7  C   UNK N   1      26.651  26.280  -5.270  0.00  0.00     0.111 C 
HETATM    8  C   UNK N   1      27.595  27.283  -5.823  0.00  0.00     0.066 C 
HETATM    9  C   UNK N   1      28.637  27.509  -4.813  0.00  0.00    -0.041 A 
HETATM   10  C   UNK N   1      29.409  26.443  -4.227  0.00  0.00     0.002 A 
HETATM   11  C   UNK N   1      29.245  24.946  -4.553  0.00  0.00     0.069 C 
HETATM   12  C   UNK N   1      25.220  26.701  -5.587  0.00  0.00     0.034 C 
HETATM   13  C   UNK N   1      28.868  28.852  -4.450  0.00  0.00     0.047 A 
HETATM   14  C   UNK N   1      30.417  26.823  -3.305  0.00  0.00     0.054 A 
HETATM   15  C   UNK N   1      29.868  29.122  -3.531  0.00  0.00     0.105 A 
HETATM   16  C   UNK N   1      30.606  28.160  -2.993  0.00  0.00     0.105 A 
HETATM   17  C   UNK N   1      26.359  24.192  -6.602  0.00  0.00     0.234 C 
HETATM   18  C   UNK N   1      31.314  30.084  -2.159  0.00  0.00     0.352 A 
HETATM   19  C   UNK N   1      26.852  22.837  -7.004  0.00  0.00     0.119 C 
ENDROOT
BRANCH  11  20
HETATM   20  C   UNK N   1      30.244  23.929  -4.042  0.00  0.00    -0.007 A 
HETATM   21  C   UNK N   1      31.455  23.753  -4.741  0.00  0.00     0.016 A 
HETATM   22  C   UNK N   1      32.385  22.787  -4.345  0.00  0.00     0.030 A 
HETATM   23  C   UNK N   1      32.114  21.968  -3.248  0.00  0.00     0.025 A 
HETATM   24  C   UNK N   1      30.923  22.125  -2.540  0.00  0.00     0.030 A 
HETATM   25  C   UNK N   1      30.001  23.099  -2.933  0.00  0.00     0.016 A 
BRANCH  23  26
HETATM   26  N   UNK N   1      33.038  20.978  -2.863  0.00  0.00    -0.399 N 
HETATM   27  H   UNK N   1      32.856  20.031  -3.063  0.00  0.00     0.156 HD
HETATM   28  H   UNK N   1      33.864  21.231  -2.393  0.00  0.00     0.156 HD
ENDBRANCH  23  26
ENDBRANCH  11  20
TORSDOF 2
ENDMDL
MODEL 9
REMARK VINA RESULT:      -6.4     16.839     19.341
REMARK  2 active torsions:
REMARK  status: ('A' for Active; 'I' for Inactive)
REMARK       I    between atoms: N_4  and  C_19 
REMARK    1  A    between atoms: N_7  and  C_26 
REMARK    2  A    between atoms: C_12  and  C_18 
ROOT
HETATM    1  O   UNK N   1      23.997   7.522   4.861  0.00  0.00    -0.323 OA
HETATM    2  O   UNK N   1      24.452   7.567   7.026  0.00  0.00    -0.323 OA
HETATM    3  O   UNK N   1      21.920  15.839   4.878  0.00  0.00    -0.272 OA
HETATM    4  N   UNK N   1      22.588  14.020   6.061  0.00  0.00    -0.256 N 
HETATM    5  N   UNK N   1      22.672  13.480   7.335  0.00  0.00    -0.294 N 
ATOM      6  HN  UNK N   1      22.447  14.134   8.085  1.00  0.00     0.187 HD
HETATM    7  C   UNK N   1      23.155  13.302   4.926  0.00  0.00     0.111 C 
HETATM    8  C   UNK N   1      22.307  12.105   4.696  0.00  0.00     0.066 C 
HETATM    9  C   UNK N   1      22.911  10.990   5.435  0.00  0.00    -0.041 A 
HETATM   10  C   UNK N   1      23.222  11.054   6.841  0.00  0.00     0.002 A 
HETATM   11  C   UNK N   1      22.989  12.279   7.745  0.00  0.00     0.069 C 
HETATM   12  C   UNK N   1      23.325  14.063   3.616  0.00  0.00     0.034 C 
HETATM   13  C   UNK N   1      23.160   9.816   4.693  0.00  0.00     0.047 A 
HETATM   14  C   UNK N   1      23.753   9.877   7.427  0.00  0.00     0.054 A 
HETATM   15  C   UNK N   1      23.692   8.721   5.353  0.00  0.00     0.105 A 
HETATM   16  C   UNK N   1      23.967   8.749   6.651  0.00  0.00     0.105 A 
HETATM   17  C   UNK N   1      22.024  15.271   5.954  0.00  0.00     0.234 C 
HETATM   18  C   UNK N   1      24.494   6.732   5.904  0.00  0.00     0.352 A 
HETATM   19  C   UNK N   1      21.499  15.971   7.169  0.00  0.00     0.119 C 
ENDROOT
BRANCH  11  20
HETATM   20  C   UNK N   1      23.154  12.174   9.247  0.00  0.00    -0.007 A 
HETATM   21  C   UNK N   1      22.002  12.139  10.058  0.00  0.00     0.016 A 
HETATM   22  C   UNK N   1      22.099  12.101  11.452  0.00  0.00     0.030 A 
HETATM   23  C   UNK N   1      23.353  12.112  12.063  0.00  0.00     0.025 A 
HETATM   24  C   UNK N   1      24.507  12.144  11.281  0.00  0.00     0.030 A 
HETATM   25  C   UNK N   1      24.406  12.171   9.888  0.00  0.00     0.016 A 
BRANCH  23  26
HETATM   26  N   UNK N   1      23.453  12.100  13.467  0.00  0.00    -0.399 N 
HETATM   27  H   UNK N   1      24.147  12.636  13.916  0.00  0.00     0.156 HD
HETATM   28  H   UNK N   1      22.831  11.555  14.000  0.00  0.00     0.156 HD
ENDBRANCH  23  26
ENDBRANCH  11  20
TORSDOF 2
ENDMDL
