MODEL 1
REMARK VINA RESULT:      -5.5      0.000      0.000
REMARK  2 active torsions:
REMARK  status: ('A' for Active; 'I' for Inactive)
REMARK    1  A    between atoms: N_7  and  O_15 
REMARK       I    between atoms: C_8  and  N_12 
REMARK    2  A    between atoms: N_11  and  O_13 
ROOT
HETATM    1  C   UNK N   1      35.093  11.274  16.201  0.00  0.00     0.003 A 
HETATM    2  C   UNK N   1      34.285  10.913  15.119  0.00  0.00     0.002 A 
HETATM    3  C   UNK N   1      34.313  11.661  13.938  0.00  0.00     0.035 A 
HETATM    4  C   UNK N   1      35.934  12.383  16.109  0.00  0.00     0.036 A 
HETATM    5  C   UNK N   1      35.969  13.138  14.930  0.00  0.00     0.111 A 
HETATM    6  C   UNK N   1      35.155  12.777  13.837  0.00  0.00     0.112 A 
HETATM    7  N   UNK N   1      35.200  13.522  12.695  0.00  0.00    -0.049 N 
HETATM    8  C   UNK N   1      36.029  14.601  12.627  0.00  0.00     0.719 A 
HETATM    9  N   UNK N   1      36.805  14.933  13.690  0.00  0.00    -0.103 N 
ATOM     10  HN  UNK N   1      37.420  15.744  13.624  1.00  0.00     0.208 HD
HETATM   11  N   UNK N   1      36.781  14.223  14.819  0.00  0.00    -0.147 N 
HETATM   12  N   UNK N   1      36.089  15.382  11.456  0.00  0.00    -0.231 N 
HETATM   13  H   UNK N   1      35.530  15.149  10.680  0.00  0.00     0.174 HD
HETATM   14  H   UNK N   1      36.689  16.160  11.413  0.00  0.00     0.174 HD
ENDROOT
BRANCH   7  15
HETATM   15  O   UNK N   1      34.441  13.200  11.649  0.00  0.00    -0.269 OA
ATOM     16  HO  UNK N   1      34.019  13.877  11.134  1.00  0.00     0.245 HD
ENDBRANCH   7  15
BRANCH  11  17
HETATM   17  O   UNK N   1      37.561  14.590  15.832  0.00  0.00    -0.267 OA
ATOM     18  HO  UNK N   1      37.676  14.020  16.583  1.00  0.00     0.247 HD
ENDBRANCH  11  17
TORSDOF 2
ENDMDL
MODEL 2
REMARK VINA RESULT:      -5.3      5.083      7.276
REMARK  2 active torsions:
REMARK  status: ('A' for Active; 'I' for Inactive)
REMARK    1  A    between atoms: N_7  and  O_15 
REMARK       I    between atoms: C_8  and  N_12 
REMARK    2  A    between atoms: N_11  and  O_13 
ROOT
HETATM    1  C   UNK N   1      32.171  16.829   6.383  0.00  0.00     0.003 A 
HETATM    2  C   UNK N   1      31.814  15.583   6.909  0.00  0.00     0.002 A 
HETATM    3  C   UNK N   1      32.414  15.115   8.081  0.00  0.00     0.035 A 
HETATM    4  C   UNK N   1      33.128  17.612   7.027  0.00  0.00     0.036 A 
HETATM    5  C   UNK N   1      33.735  17.151   8.202  0.00  0.00     0.111 A 
HETATM    6  C   UNK N   1      33.377  15.896   8.734  0.00  0.00     0.112 A 
HETATM    7  N   UNK N   1      33.976  15.460   9.879  0.00  0.00    -0.049 N 
HETATM    8  C   UNK N   1      34.909  16.242  10.491  0.00  0.00     0.719 A 
HETATM    9  N   UNK N   1      35.240  17.448   9.963  0.00  0.00    -0.103 N 
ATOM     10  HN  UNK N   1      35.940  18.023  10.433  1.00  0.00     0.208 HD
HETATM   11  N   UNK N   1      34.671  17.900   8.845  0.00  0.00    -0.147 N 
HETATM   12  N   UNK N   1      35.538  15.809  11.675  0.00  0.00    -0.231 N 
HETATM   13  H   UNK N   1      35.305  14.936  12.065  0.00  0.00     0.174 HD
HETATM   14  H   UNK N   1      36.211  16.379  12.112  0.00  0.00     0.174 HD
ENDROOT
BRANCH   7  15
HETATM   15  O   UNK N   1      33.655  14.277  10.401  0.00  0.00    -0.269 OA
ATOM     16  HO  UNK N   1      33.719  14.131  11.338  1.00  0.00     0.245 HD
ENDBRANCH   7  15
BRANCH  11  17
HETATM   17  O   UNK N   1      35.029  19.088   8.368  0.00  0.00    -0.267 OA
ATOM     18  HO  UNK N   1      35.922  19.397   8.466  1.00  0.00     0.247 HD
ENDBRANCH  11  17
TORSDOF 2
ENDMDL
MODEL 3
REMARK VINA RESULT:      -5.3     19.087     19.987
REMARK  2 active torsions:
REMARK  status: ('A' for Active; 'I' for Inactive)
REMARK    1  A    between atoms: N_7  and  O_15 
REMARK       I    between atoms: C_8  and  N_12 
REMARK    2  A    between atoms: N_11  and  O_13 
ROOT
HETATM    1  C   UNK N   1      19.845  15.117   1.741  0.00  0.00     0.003 A 
HETATM    2  C   UNK N   1      19.828  15.726   0.483  0.00  0.00     0.002 A 
HETATM    3  C   UNK N   1      20.063  17.099   0.361  0.00  0.00     0.035 A 
HETATM    4  C   UNK N   1      20.098  15.875   2.884  0.00  0.00     0.036 A 
HETATM    5  C   UNK N   1      20.334  17.251   2.772  0.00  0.00     0.111 A 
HETATM    6  C   UNK N   1      20.318  17.869   1.504  0.00  0.00     0.112 A 
HETATM    7  N   UNK N   1      20.550  19.209   1.412  0.00  0.00    -0.049 N 
HETATM    8  C   UNK N   1      20.794  19.931   2.541  0.00  0.00     0.719 A 
HETATM    9  N   UNK N   1      20.806  19.318   3.752  0.00  0.00    -0.103 N 
ATOM     10  HN  UNK N   1      20.990  19.872   4.589  1.00  0.00     0.208 HD
HETATM   11  N   UNK N   1      20.582  18.009   3.873  0.00  0.00    -0.147 N 
HETATM   12  N   UNK N   1      21.036  21.317   2.464  0.00  0.00    -0.231 N 
HETATM   13  H   UNK N   1      21.030  21.770   1.590  0.00  0.00     0.174 HD
HETATM   14  H   UNK N   1      21.212  21.832   3.284  0.00  0.00     0.174 HD
ENDROOT
BRANCH   7  15
HETATM   15  O   UNK N   1      20.539  19.815   0.225  0.00  0.00    -0.269 OA
ATOM     16  HO  UNK N   1      19.792  20.337  -0.042  1.00  0.00     0.245 HD
ENDBRANCH   7  15
BRANCH  11  17
HETATM   17  O   UNK N   1      20.605  17.456   5.082  0.00  0.00    -0.267 OA
ATOM     18  HO  UNK N   1      20.891  17.957   5.837  1.00  0.00     0.247 HD
ENDBRANCH  11  17
TORSDOF 2
ENDMDL
MODEL 4
REMARK VINA RESULT:      -5.3      7.535      9.637
REMARK  2 active torsions:
REMARK  status: ('A' for Active; 'I' for Inactive)
REMARK    1  A    between atoms: N_7  and  O_15 
REMARK       I    between atoms: C_8  and  N_12 
REMARK    2  A    between atoms: N_11  and  O_13 
ROOT
HETATM    1  C   UNK N   1      30.188  17.211   4.708  0.00  0.00     0.003 A 
HETATM    2  C   UNK N   1      31.474  17.357   4.178  0.00  0.00     0.002 A 
HETATM    3  C   UNK N   1      32.581  17.440   5.028  0.00  0.00     0.035 A 
HETATM    4  C   UNK N   1      30.002  17.147   6.088  0.00  0.00     0.036 A 
HETATM    5  C   UNK N   1      31.105  17.229   6.947  0.00  0.00     0.111 A 
HETATM    6  C   UNK N   1      32.403  17.377   6.417  0.00  0.00     0.112 A 
HETATM    7  N   UNK N   1      33.467  17.456   7.266  0.00  0.00    -0.049 N 
HETATM    8  C   UNK N   1      33.262  17.391   8.611  0.00  0.00     0.719 A 
HETATM    9  N   UNK N   1      32.005  17.249   9.103  0.00  0.00    -0.103 N 
ATOM     10  HN  UNK N   1      31.867  17.202  10.113  1.00  0.00     0.208 HD
HETATM   11  N   UNK N   1      30.946  17.169   8.297  0.00  0.00    -0.147 N 
HETATM   12  N   UNK N   1      34.350  17.471   9.503  0.00  0.00    -0.231 N 
HETATM   13  H   UNK N   1      35.265  17.574   9.156  0.00  0.00     0.174 HD
HETATM   14  H   UNK N   1      34.195  17.423  10.474  0.00  0.00     0.174 HD
ENDROOT
BRANCH   7  15
HETATM   15  O   UNK N   1      34.703  17.595   6.787  0.00  0.00    -0.269 OA
ATOM     16  HO  UNK N   1      35.083  18.459   6.682  1.00  0.00     0.245 HD
ENDBRANCH   7  15
BRANCH  11  17
HETATM   17  O   UNK N   1      29.735  17.030   8.828  0.00  0.00    -0.267 OA
ATOM     18  HO  UNK N   1      28.959  17.238   8.322  1.00  0.00     0.247 HD
ENDBRANCH  11  17
TORSDOF 2
ENDMDL
MODEL 5
REMARK VINA RESULT:      -5.3     17.669     19.103
REMARK  2 active torsions:
REMARK  status: ('A' for Active; 'I' for Inactive)
REMARK    1  A    between atoms: N_7  and  O_15 
REMARK       I    between atoms: C_8  and  N_12 
REMARK    2  A    between atoms: N_11  and  O_13 
ROOT
HETATM    1  C   UNK N   1      22.669  16.763   4.793  0.00  0.00     0.003 A 
HETATM    2  C   UNK N   1      23.401  17.942   4.956  0.00  0.00     0.002 A 
HETATM    3  C   UNK N   1      23.089  19.076   4.200  0.00  0.00     0.035 A 
HETATM    4  C   UNK N   1      21.621  16.710   3.874  0.00  0.00     0.036 A 
HETATM    5  C   UNK N   1      21.300  17.841   3.113  0.00  0.00     0.111 A 
HETATM    6  C   UNK N   1      22.038  19.032   3.275  0.00  0.00     0.112 A 
HETATM    7  N   UNK N   1      21.714  20.125   2.526  0.00  0.00    -0.049 N 
HETATM    8  C   UNK N   1      20.687  20.052   1.635  0.00  0.00     0.719 A 
HETATM    9  N   UNK N   1      19.989  18.896   1.493  0.00  0.00    -0.103 N 
ATOM     10  HN  UNK N   1      19.222  18.856   0.821  1.00  0.00     0.208 HD
HETATM   11  N   UNK N   1      20.282  17.812   2.212  0.00  0.00    -0.147 N 
HETATM   12  N   UNK N   1      20.339  21.171   0.853  0.00  0.00    -0.231 N 
HETATM   13  H   UNK N   1      20.839  22.013   0.949  0.00  0.00     0.174 HD
HETATM   14  H   UNK N   1      19.595  21.111   0.211  0.00  0.00     0.174 HD
ENDROOT
BRANCH   7  15
HETATM   15  O   UNK N   1      22.397  21.262   2.662  0.00  0.00    -0.269 OA
ATOM     16  HO  UNK N   1      22.064  22.070   2.290  1.00  0.00     0.245 HD
ENDBRANCH   7  15
BRANCH  11  17
HETATM   17  O   UNK N   1      19.568  16.704   2.035  0.00  0.00    -0.267 OA
ATOM     18  HO  UNK N   1      19.427  16.101   2.756  1.00  0.00     0.247 HD
ENDBRANCH  11  17
TORSDOF 2
ENDMDL
MODEL 6
REMARK VINA RESULT:      -5.2      4.715      7.271
REMARK  2 active torsions:
REMARK  status: ('A' for Active; 'I' for Inactive)
REMARK    1  A    between atoms: N_7  and  O_15 
REMARK       I    between atoms: C_8  and  N_12 
REMARK    2  A    between atoms: N_11  and  O_13 
ROOT
HETATM    1  C   UNK N   1      32.572  16.739   6.571  0.00  0.00     0.003 A 
HETATM    2  C   UNK N   1      33.479  17.764   6.857  0.00  0.00     0.002 A 
HETATM    3  C   UNK N   1      34.255  17.714   8.019  0.00  0.00     0.035 A 
HETATM    4  C   UNK N   1      32.436  15.659   7.443  0.00  0.00     0.036 A 
HETATM    5  C   UNK N   1      33.209  15.600   8.610  0.00  0.00     0.111 A 
HETATM    6  C   UNK N   1      34.124  16.632   8.902  0.00  0.00     0.112 A 
HETATM    7  N   UNK N   1      34.870  16.561  10.041  0.00  0.00    -0.049 N 
HETATM    8  C   UNK N   1      34.720  15.497  10.879  0.00  0.00     0.719 A 
HETATM    9  N   UNK N   1      33.833  14.514  10.580  0.00  0.00    -0.103 N 
ATOM     10  HN  UNK N   1      33.732  13.723  11.218  1.00  0.00     0.208 HD
HETATM   11  N   UNK N   1      33.091  14.557   9.473  0.00  0.00    -0.147 N 
HETATM   12  N   UNK N   1      35.482  15.407  12.061  0.00  0.00    -0.231 N 
HETATM   13  H   UNK N   1      36.127  16.115  12.286  0.00  0.00     0.174 HD
HETATM   14  H   UNK N   1      35.369  14.636  12.662  0.00  0.00     0.174 HD
ENDROOT
BRANCH   7  15
HETATM   15  O   UNK N   1      35.741  17.524  10.339  0.00  0.00    -0.269 OA
ATOM     16  HO  UNK N   1      35.773  18.321   9.822  1.00  0.00     0.245 HD
ENDBRANCH   7  15
BRANCH  11  17
HETATM   17  O   UNK N   1      32.237  13.568   9.226  0.00  0.00    -0.267 OA
ATOM     18  HO  UNK N   1      32.358  13.003   8.473  1.00  0.00     0.247 HD
ENDBRANCH  11  17
TORSDOF 2
ENDMDL
MODEL 7
REMARK VINA RESULT:      -5.2     17.546     18.738
REMARK  2 active torsions:
REMARK  status: ('A' for Active; 'I' for Inactive)
REMARK    1  A    between atoms: N_7  and  O_15 
REMARK       I    between atoms: C_8  and  N_12 
REMARK    2  A    between atoms: N_11  and  O_13 
ROOT
HETATM    1  C   UNK N   1      24.363  18.417   4.359  0.00  0.00     0.003 A 
HETATM    2  C   UNK N   1      23.766  17.160   4.486  0.00  0.00     0.002 A 
HETATM    3  C   UNK N   1      22.436  16.968   4.099  0.00  0.00     0.035 A 
HETATM    4  C   UNK N   1      23.635  19.490   3.844  0.00  0.00     0.036 A 
HETATM    5  C   UNK N   1      22.303  19.308   3.454  0.00  0.00     0.111 A 
HETATM    6  C   UNK N   1      21.697  18.041   3.581  0.00  0.00     0.112 A 
HETATM    7  N   UNK N   1      20.399  17.879   3.197  0.00  0.00    -0.049 N 
HETATM    8  C   UNK N   1      19.707  18.941   2.697  0.00  0.00     0.719 A 
HETATM    9  N   UNK N   1      20.307  20.153   2.583  0.00  0.00    -0.103 N 
ATOM     10  HN  UNK N   1      19.776  20.939   2.207  1.00  0.00     0.208 HD
HETATM   11  N   UNK N   1      21.575  20.341   2.950  0.00  0.00    -0.147 N 
HETATM   12  N   UNK N   1      18.365  18.792   2.295  0.00  0.00    -0.231 N 
HETATM   13  H   UNK N   1      17.921  17.917   2.374  0.00  0.00     0.174 HD
HETATM   14  H   UNK N   1      17.871  19.563   1.935  0.00  0.00     0.174 HD
ENDROOT
BRANCH   7  15
HETATM   15  O   UNK N   1      19.806  16.691   3.307  0.00  0.00    -0.269 OA
ATOM     16  HO  UNK N   1      20.165  16.026   3.883  1.00  0.00     0.245 HD
ENDBRANCH   7  15
BRANCH  11  17
HETATM   17  O   UNK N   1      22.117  21.547   2.818  0.00  0.00    -0.267 OA
ATOM     18  HO  UNK N   1      22.614  21.771   2.040  1.00  0.00     0.247 HD
ENDBRANCH  11  17
TORSDOF 2
ENDMDL
MODEL 8
REMARK VINA RESULT:      -5.2     15.052     15.862
REMARK  2 active torsions:
REMARK  status: ('A' for Active; 'I' for Inactive)
REMARK    1  A    between atoms: N_7  and  O_15 
REMARK       I    between atoms: C_8  and  N_12 
REMARK    2  A    between atoms: N_11  and  O_13 
ROOT
HETATM    1  C   UNK N   1      44.511  17.802   2.654  0.00  0.00     0.003 A 
HETATM    2  C   UNK N   1      45.711  18.336   3.134  0.00  0.00     0.002 A 
HETATM    3  C   UNK N   1      45.787  19.683   3.499  0.00  0.00     0.035 A 
HETATM    4  C   UNK N   1      43.381  18.611   2.538  0.00  0.00     0.036 A 
HETATM    5  C   UNK N   1      43.447  19.962   2.902  0.00  0.00     0.111 A 
HETATM    6  C   UNK N   1      44.656  20.503   3.385  0.00  0.00     0.112 A 
HETATM    7  N   UNK N   1      44.705  21.820   3.736  0.00  0.00    -0.049 N 
HETATM    8  C   UNK N   1      43.589  22.592   3.614  0.00  0.00     0.719 A 
HETATM    9  N   UNK N   1      42.435  22.052   3.146  0.00  0.00    -0.103 N 
ATOM     10  HN  UNK N   1      41.607  22.643   3.060  1.00  0.00     0.208 HD
HETATM   11  N   UNK N   1      42.357  20.768   2.796  0.00  0.00    -0.147 N 
HETATM   12  N   UNK N   1      43.621  23.955   3.971  0.00  0.00    -0.231 N 
HETATM   13  H   UNK N   1      44.453  24.355   4.311  0.00  0.00     0.174 HD
HETATM   14  H   UNK N   1      42.811  24.507   3.880  0.00  0.00     0.174 HD
ENDROOT
BRANCH   7  15
HETATM   15  O   UNK N   1      45.836  22.355   4.195  0.00  0.00    -0.269 OA
ATOM     16  HO  UNK N   1      46.677  22.038   3.888  1.00  0.00     0.245 HD
ENDBRANCH   7  15
BRANCH  11  17
HETATM   17  O   UNK N   1      41.203  20.287   2.343  0.00  0.00    -0.267 OA
ATOM     18  HO  UNK N   1      41.189  19.560   1.732  1.00  0.00     0.247 HD
ENDBRANCH  11  17
TORSDOF 2
ENDMDL
MODEL 9
REMARK VINA RESULT:      -5.2      8.679     10.270
REMARK  2 active torsions:
REMARK  status: ('A' for Active; 'I' for Inactive)
REMARK    1  A    between atoms: N_7  and  O_15 
REMARK       I    between atoms: C_8  and  N_12 
REMARK    2  A    between atoms: N_11  and  O_13 
ROOT
HETATM    1  C   UNK N   1      32.381  17.021   3.280  0.00  0.00     0.003 A 
HETATM    2  C   UNK N   1      31.020  16.722   3.390  0.00  0.00     0.002 A 
HETATM    3  C   UNK N   1      30.390  16.755   4.637  0.00  0.00     0.035 A 
HETATM    4  C   UNK N   1      33.119  17.354   4.415  0.00  0.00     0.036 A 
HETATM    5  C   UNK N   1      32.497  17.389   5.669  0.00  0.00     0.111 A 
HETATM    6  C   UNK N   1      31.124  17.088   5.783  0.00  0.00     0.112 A 
HETATM    7  N   UNK N   1      30.531  17.127   7.011  0.00  0.00    -0.049 N 
HETATM    8  C   UNK N   1      31.272  17.455   8.107  0.00  0.00     0.719 A 
HETATM    9  N   UNK N   1      32.592  17.741   7.976  0.00  0.00    -0.103 N 
ATOM     10  HN  UNK N   1      33.133  17.985   8.806  1.00  0.00     0.208 HD
HETATM   11  N   UNK N   1      33.198  17.712   6.789  0.00  0.00    -0.147 N 
HETATM   12  N   UNK N   1      30.676  17.499   9.383  0.00  0.00    -0.231 N 
HETATM   13  H   UNK N   1      29.719  17.293   9.487  0.00  0.00     0.174 HD
HETATM   14  H   UNK N   1      31.217  17.737  10.170  0.00  0.00     0.174 HD
ENDROOT
BRANCH   7  15
HETATM   15  O   UNK N   1      29.235  16.846   7.144  0.00  0.00    -0.269 OA
ATOM     16  HO  UNK N   1      28.957  15.991   7.449  1.00  0.00     0.245 HD
ENDBRANCH   7  15
BRANCH  11  17
HETATM   17  O   UNK N   1      34.493  18.001   6.715  0.00  0.00    -0.267 OA
ATOM     18  HO  UNK N   1      35.060  17.528   6.116  1.00  0.00     0.247 HD
ENDBRANCH  11  17
TORSDOF 2
ENDMDL
