MODEL 1
REMARK VINA RESULT:      -7.7      0.000      0.000
REMARK  3 active torsions:
REMARK  status: ('A' for Active; 'I' for Inactive)
REMARK    1  A    between atoms: C_15  and  C_20 
REMARK    2  A    between atoms: C_15  and  O_23 
REMARK    3  A    between atoms: O_23  and  C_27 
ROOT
HETATM    1  C   UNK N   1      33.021  21.967  -4.347  0.00  0.00     0.011 A 
HETATM    2  C   UNK N   1      34.196  21.010  -4.631  0.00  0.00     0.065 A 
HETATM    3  C   UNK N   1      33.865  19.885  -5.556  0.00  0.00     0.154 C 
HETATM    4  C   UNK N   1      32.552  19.779  -6.209  0.00  0.00     0.060 C 
HETATM    5  C   UNK N   1      31.494  20.541  -5.892  0.00  0.00    -0.024 C 
HETATM    6  C   UNK N   1      31.558  21.596  -4.778  0.00  0.00    -0.006 C 
HETATM    7  C   UNK N   1      30.778  22.847  -5.320  0.00  0.00     0.007 C 
HETATM    8  C   UNK N   1      30.255  20.422  -6.734  0.00  0.00     0.037 C 
HETATM    9  C   UNK N   1      29.255  21.318  -6.626  0.00  0.00     0.003 C 
HETATM   10  C   UNK N   1      29.292  22.401  -5.583  0.00  0.00     0.020 C 
HETATM   11  C   UNK N   1      29.876  25.187  -4.696  0.00  0.00     0.013 C 
HETATM   12  C   UNK N   1      30.861  24.051  -4.348  0.00  0.00     0.007 C 
HETATM   13  C   UNK N   1      28.359  23.597  -5.852  0.00  0.00     0.005 C 
HETATM   14  C   UNK N   1      28.461  24.604  -4.699  0.00  0.00    -0.001 C 
HETATM   15  C   UNK N   1      27.263  25.536  -4.978  0.00  0.00     0.138 C 
HETATM   16  C   UNK N   1      26.860  23.281  -5.896  0.00  0.00     0.009 C 
HETATM   17  C   UNK N   1      26.158  24.488  -5.231  0.00  0.00     0.048 C 
HETATM   18  O   UNK N   1      34.721  19.055  -5.809  0.00  0.00    -0.293 OA
HETATM   19 Cl   UNK N   1      30.141  19.198  -7.997  0.00  0.00    -0.084 Cl
HETATM   20  C   UNK N   1      28.224  23.937  -3.313  0.00  0.00     0.019 C 
HETATM   21  C   UNK N   1      30.806  21.047  -3.546  0.00  0.00     0.021 C 
HETATM   22  C   UNK N   1      33.532  20.937  -3.312  0.00  0.00     0.019 A 
ENDROOT
BRANCH  15  23
HETATM   23  C   UNK N   1      26.996  26.468  -3.802  0.00  0.00     0.158 C 
HETATM   24  C   UNK N   1      27.732  27.764  -3.687  0.00  0.00     0.094 C 
HETATM   25  O   UNK N   1      26.190  26.161  -2.937  0.00  0.00    -0.295 OA
ENDBRANCH  15  23
BRANCH  15  26
HETATM   26  O   UNK N   1      27.417  26.263  -6.153  0.00  0.00    -0.302 OA
BRANCH  26  27
HETATM   27  C   UNK N   1      26.356  26.618  -6.936  0.00  0.00     0.256 C 
HETATM   28  C   UNK N   1      26.272  26.187  -8.365  0.00  0.00     0.126 C 
HETATM   29  O   UNK N   1      25.470  27.313  -6.471  0.00  0.00    -0.266 OA
ENDBRANCH  26  27
ENDBRANCH  15  26
TORSDOF 3
ENDMDL
MODEL 2
REMARK VINA RESULT:      -7.5     21.610     24.845
REMARK  3 active torsions:
REMARK  status: ('A' for Active; 'I' for Inactive)
REMARK    1  A    between atoms: C_15  and  C_20 
REMARK    2  A    between atoms: C_15  and  O_23 
REMARK    3  A    between atoms: O_23  and  C_27 
ROOT
HETATM    1  C   UNK N   1      34.577   8.752  17.471  0.00  0.00     0.011 A 
HETATM    2  C   UNK N   1      34.149   8.149  18.823  0.00  0.00     0.065 A 
HETATM    3  C   UNK N   1      34.207   9.104  19.971  0.00  0.00     0.154 C 
HETATM    4  C   UNK N   1      34.547  10.522  19.783  0.00  0.00     0.060 C 
HETATM    5  C   UNK N   1      35.021  11.032  18.636  0.00  0.00    -0.024 C 
HETATM    6  C   UNK N   1      35.276  10.157  17.401  0.00  0.00    -0.006 C 
HETATM    7  C   UNK N   1      34.779  10.990  16.166  0.00  0.00     0.007 C 
HETATM    8  C   UNK N   1      35.195  12.522  18.540  0.00  0.00     0.037 C 
HETATM    9  C   UNK N   1      35.431  13.118  17.356  0.00  0.00     0.003 C 
HETATM   10  C   UNK N   1      35.640  12.307  16.106  0.00  0.00     0.020 C 
HETATM   11  C   UNK N   1      34.663  11.050  13.586  0.00  0.00     0.013 C 
HETATM   12  C   UNK N   1      34.859  10.182  14.847  0.00  0.00     0.007 C 
HETATM   13  C   UNK N   1      35.442  13.077  14.787  0.00  0.00     0.005 C 
HETATM   14  C   UNK N   1      35.726  12.151  13.597  0.00  0.00    -0.001 C 
HETATM   15  C   UNK N   1      35.790  13.148  12.422  0.00  0.00     0.138 C 
HETATM   16  C   UNK N   1      36.403  14.246  14.544  0.00  0.00     0.009 C 
HETATM   17  C   UNK N   1      36.715  14.224  13.030  0.00  0.00     0.048 C 
HETATM   18  O   UNK N   1      33.923   8.706  21.087  0.00  0.00    -0.293 OA
HETATM   19 Cl   UNK N   1      34.941  13.549  19.950  0.00  0.00    -0.084 Cl
HETATM   20  C   UNK N   1      37.117  11.462  13.706  0.00  0.00     0.019 C 
HETATM   21  C   UNK N   1      36.800   9.942  17.265  0.00  0.00     0.021 C 
HETATM   22  C   UNK N   1      35.467   7.772  18.271  0.00  0.00     0.019 A 
ENDROOT
BRANCH  15  23
HETATM   23  C   UNK N   1      36.331  12.487  11.159  0.00  0.00     0.158 C 
HETATM   24  C   UNK N   1      37.648  12.912  10.593  0.00  0.00     0.094 C 
HETATM   25  O   UNK N   1      35.690  11.617  10.590  0.00  0.00    -0.295 OA
ENDBRANCH  15  23
BRANCH  15  26
HETATM   26  O   UNK N   1      34.564  13.754  12.169  0.00  0.00    -0.302 OA
BRANCH  26  27
HETATM   27  C   UNK N   1      34.412  14.729  11.227  0.00  0.00     0.256 C 
HETATM   28  C   UNK N   1      33.633  14.480   9.975  0.00  0.00     0.126 C 
HETATM   29  O   UNK N   1      34.935  15.817  11.395  0.00  0.00    -0.266 OA
ENDBRANCH  26  27
ENDBRANCH  15  26
TORSDOF 3
ENDMDL
MODEL 3
REMARK VINA RESULT:      -7.5     11.349     14.841
REMARK  3 active torsions:
REMARK  status: ('A' for Active; 'I' for Inactive)
REMARK    1  A    between atoms: C_15  and  C_20 
REMARK    2  A    between atoms: C_15  and  O_23 
REMARK    3  A    between atoms: O_23  and  C_27 
ROOT
HETATM    1  C   UNK N   1      28.042  19.139   4.566  0.00  0.00     0.011 A 
HETATM    2  C   UNK N   1      27.104  20.286   4.988  0.00  0.00     0.065 A 
HETATM    3  C   UNK N   1      26.991  20.478   6.466  0.00  0.00     0.154 C 
HETATM    4  C   UNK N   1      27.797  19.693   7.413  0.00  0.00     0.060 C 
HETATM    5  C   UNK N   1      28.533  18.627   7.065  0.00  0.00    -0.024 C 
HETATM    6  C   UNK N   1      28.581  18.109   5.621  0.00  0.00    -0.006 C 
HETATM    7  C   UNK N   1      30.080  17.728   5.346  0.00  0.00     0.007 C 
HETATM    8  C   UNK N   1      29.416  18.003   8.110  0.00  0.00     0.037 C 
HETATM    9  C   UNK N   1      30.353  17.096   7.773  0.00  0.00     0.003 C 
HETATM   10  C   UNK N   1      30.473  16.591   6.361  0.00  0.00     0.020 C 
HETATM   11  C   UNK N   1      31.688  16.642   3.639  0.00  0.00     0.013 C 
HETATM   12  C   UNK N   1      30.312  17.300   3.875  0.00  0.00     0.007 C 
HETATM   13  C   UNK N   1      31.825  15.938   6.015  0.00  0.00     0.005 C 
HETATM   14  C   UNK N   1      31.801  15.431   4.567  0.00  0.00    -0.001 C 
HETATM   15  C   UNK N   1      33.070  14.555   4.512  0.00  0.00     0.138 C 
HETATM   16  C   UNK N   1      32.182  14.678   6.811  0.00  0.00     0.009 C 
HETATM   17  C   UNK N   1      32.891  13.737   5.809  0.00  0.00     0.048 C 
HETATM   18  O   UNK N   1      26.242  21.338   6.895  0.00  0.00    -0.293 OA
HETATM   19 Cl   UNK N   1      29.358  18.556   9.782  0.00  0.00    -0.084 Cl
HETATM   20  C   UNK N   1      30.581  14.507   4.287  0.00  0.00     0.019 C 
HETATM   21  C   UNK N   1      27.727  16.825   5.537  0.00  0.00     0.021 C 
HETATM   22  C   UNK N   1      26.501  19.035   4.483  0.00  0.00     0.019 A 
ENDROOT
BRANCH  15  23
HETATM   23  C   UNK N   1      33.117  13.721   3.237  0.00  0.00     0.158 C 
HETATM   24  C   UNK N   1      32.925  12.240   3.300  0.00  0.00     0.094 C 
HETATM   25  O   UNK N   1      33.325  14.250   2.156  0.00  0.00    -0.295 OA
ENDBRANCH  15  23
BRANCH  15  26
HETATM   26  O   UNK N   1      34.237  15.298   4.652  0.00  0.00    -0.302 OA
BRANCH  26  27
HETATM   27  C   UNK N   1      35.343  14.808   5.282  0.00  0.00     0.256 C 
HETATM   28  C   UNK N   1      36.133  13.683   4.693  0.00  0.00     0.126 C 
HETATM   29  O   UNK N   1      35.687  15.279   6.352  0.00  0.00    -0.266 OA
ENDBRANCH  26  27
ENDBRANCH  15  26
TORSDOF 3
ENDMDL
MODEL 4
REMARK VINA RESULT:      -7.2     19.779     23.065
REMARK  3 active torsions:
REMARK  status: ('A' for Active; 'I' for Inactive)
REMARK    1  A    between atoms: C_15  and  C_20 
REMARK    2  A    between atoms: C_15  and  O_23 
REMARK    3  A    between atoms: O_23  and  C_27 
ROOT
HETATM    1  C   UNK N   1      35.319   9.258  15.720  0.00  0.00     0.011 A 
HETATM    2  C   UNK N   1      35.109   8.626  17.110  0.00  0.00     0.065 A 
HETATM    3  C   UNK N   1      35.145   9.601  18.242  0.00  0.00     0.154 C 
HETATM    4  C   UNK N   1      35.267  11.049  18.015  0.00  0.00     0.060 C 
HETATM    5  C   UNK N   1      35.554  11.598  16.824  0.00  0.00    -0.024 C 
HETATM    6  C   UNK N   1      35.808  10.743  15.575  0.00  0.00    -0.006 C 
HETATM    7  C   UNK N   1      35.083  11.479  14.391  0.00  0.00     0.007 C 
HETATM    8  C   UNK N   1      35.511  13.095  16.706  0.00  0.00     0.037 C 
HETATM    9  C   UNK N   1      35.548  13.696  15.501  0.00  0.00     0.003 C 
HETATM   10  C   UNK N   1      35.746  12.899  14.241  0.00  0.00     0.020 C 
HETATM   11  C   UNK N   1      34.714  11.475  11.834  0.00  0.00     0.013 C 
HETATM   12  C   UNK N   1      35.147  10.665  13.074  0.00  0.00     0.007 C 
HETATM   13  C   UNK N   1      35.318  13.611  12.944  0.00  0.00     0.005 C 
HETATM   14  C   UNK N   1      35.611  12.711  11.736  0.00  0.00    -0.001 C 
HETATM   15  C   UNK N   1      35.424  13.686  10.555  0.00  0.00     0.138 C 
HETATM   16  C   UNK N   1      36.081  14.896  12.603  0.00  0.00     0.009 C 
HETATM   17  C   UNK N   1      36.246  14.889  11.065  0.00  0.00     0.048 C 
HETATM   18  O   UNK N   1      35.027   9.188  19.383  0.00  0.00    -0.293 OA
HETATM   19 Cl   UNK N   1      35.255  14.103  18.128  0.00  0.00    -0.084 Cl
HETATM   20  C   UNK N   1      37.087  12.221  11.712  0.00  0.00     0.019 C 
HETATM   21  C   UNK N   1      37.326  10.736  15.292  0.00  0.00     0.021 C 
HETATM   22  C   UNK N   1      36.407   8.423  16.433  0.00  0.00     0.019 A 
ENDROOT
BRANCH  15  23
HETATM   23  C   UNK N   1      35.927  13.082   9.249  0.00  0.00     0.158 C 
HETATM   24  C   UNK N   1      37.027  13.749   8.487  0.00  0.00     0.094 C 
HETATM   25  O   UNK N   1      35.429  12.060   8.805  0.00  0.00    -0.295 OA
ENDBRANCH  15  23
BRANCH  15  26
HETATM   26  O   UNK N   1      34.108  14.114  10.421  0.00  0.00    -0.302 OA
BRANCH  26  27
HETATM   27  C   UNK N   1      33.687  14.857   9.356  0.00  0.00     0.256 C 
HETATM   28  C   UNK N   1      34.026  16.309   9.245  0.00  0.00     0.126 C 
HETATM   29  O   UNK N   1      33.008  14.337   8.488  0.00  0.00    -0.266 OA
ENDBRANCH  26  27
ENDBRANCH  15  26
TORSDOF 3
ENDMDL
MODEL 5
REMARK VINA RESULT:      -7.0     12.148     14.151
REMARK  3 active torsions:
REMARK  status: ('A' for Active; 'I' for Inactive)
REMARK    1  A    between atoms: C_15  and  C_20 
REMARK    2  A    between atoms: C_15  and  O_23 
REMARK    3  A    between atoms: O_23  and  C_27 
ROOT
HETATM    1  C   UNK N   1      32.932  15.641   6.546  0.00  0.00     0.011 A 
HETATM    2  C   UNK N   1      34.126  15.910   7.483  0.00  0.00     0.065 A 
HETATM    3  C   UNK N   1      33.870  16.950   8.525  0.00  0.00     0.154 C 
HETATM    4  C   UNK N   1      32.549  17.576   8.687  0.00  0.00     0.060 C 
HETATM    5  C   UNK N   1      31.539  17.429   7.817  0.00  0.00    -0.024 C 
HETATM    6  C   UNK N   1      31.685  16.595   6.536  0.00  0.00    -0.006 C 
HETATM    7  C   UNK N   1      30.343  15.793   6.384  0.00  0.00     0.007 C 
HETATM    8  C   UNK N   1      30.201  18.011   8.177  0.00  0.00     0.037 C 
HETATM    9  C   UNK N   1      29.096  17.696   7.474  0.00  0.00     0.003 C 
HETATM   10  C   UNK N   1      29.179  16.842   6.238  0.00  0.00     0.020 C 
HETATM   11  C   UNK N   1      29.005  14.220   4.831  0.00  0.00     0.013 C 
HETATM   12  C   UNK N   1      30.388  14.804   5.193  0.00  0.00     0.007 C 
HETATM   13  C   UNK N   1      27.852  16.189   5.806  0.00  0.00     0.005 C 
HETATM   14  C   UNK N   1      28.064  15.386   4.517  0.00  0.00    -0.001 C 
HETATM   15  C   UNK N   1      26.615  15.087   4.081  0.00  0.00     0.138 C 
HETATM   16  C   UNK N   1      26.725  17.155   5.423  0.00  0.00     0.009 C 
HETATM   17  C   UNK N   1      25.992  16.491   4.234  0.00  0.00     0.048 C 
HETATM   18  O   UNK N   1      34.769  17.257   9.289  0.00  0.00    -0.293 OA
HETATM   19 Cl   UNK N   1      30.011  19.000   9.623  0.00  0.00    -0.084 Cl
HETATM   20  C   UNK N   1      28.726  16.236   3.395  0.00  0.00     0.019 C 
HETATM   21  C   UNK N   1      31.815  17.563   5.339  0.00  0.00     0.021 C 
HETATM   22  C   UNK N   1      34.187  16.427   6.101  0.00  0.00     0.019 A 
ENDROOT
BRANCH  15  23
HETATM   23  C   UNK N   1      26.563  14.521   2.667  0.00  0.00     0.158 C 
HETATM   24  C   UNK N   1      25.940  15.313   1.563  0.00  0.00     0.094 C 
HETATM   25  O   UNK N   1      27.015  13.412   2.425  0.00  0.00    -0.295 OA
ENDBRANCH  15  23
BRANCH  15  26
HETATM   26  O   UNK N   1      25.954  14.245   4.969  0.00  0.00    -0.302 OA
BRANCH  26  27
HETATM   27  C   UNK N   1      24.599  14.265   5.122  0.00  0.00     0.256 C 
HETATM   28  C   UNK N   1      23.970  14.771   6.381  0.00  0.00     0.126 C 
HETATM   29  O   UNK N   1      23.884  13.847   4.227  0.00  0.00    -0.266 OA
ENDBRANCH  26  27
ENDBRANCH  15  26
TORSDOF 3
ENDMDL
MODEL 6
REMARK VINA RESULT:      -6.9     11.463     14.867
REMARK  3 active torsions:
REMARK  status: ('A' for Active; 'I' for Inactive)
REMARK    1  A    between atoms: C_15  and  C_20 
REMARK    2  A    between atoms: C_15  and  O_23 
REMARK    3  A    between atoms: O_23  and  C_27 
ROOT
HETATM    1  C   UNK N   1      26.160  18.279   5.096  0.00  0.00     0.011 A 
HETATM    2  C   UNK N   1      24.656  18.306   4.758  0.00  0.00     0.065 A 
HETATM    3  C   UNK N   1      24.111  17.005   4.266  0.00  0.00     0.154 C 
HETATM    4  C   UNK N   1      24.935  15.789   4.214  0.00  0.00     0.060 C 
HETATM    5  C   UNK N   1      26.264  15.777   4.404  0.00  0.00    -0.024 C 
HETATM    6  C   UNK N   1      27.058  17.062   4.674  0.00  0.00    -0.006 C 
HETATM    7  C   UNK N   1      28.104  16.701   5.788  0.00  0.00     0.007 C 
HETATM    8  C   UNK N   1      26.960  14.446   4.461  0.00  0.00     0.037 C 
HETATM    9  C   UNK N   1      28.234  14.348   4.886  0.00  0.00     0.003 C 
HETATM   10  C   UNK N   1      29.041  15.576   5.210  0.00  0.00     0.020 C 
HETATM   11  C   UNK N   1      30.132  17.582   7.126  0.00  0.00     0.013 C 
HETATM   12  C   UNK N   1      28.906  17.940   6.259  0.00  0.00     0.007 C 
HETATM   13  C   UNK N   1      30.277  15.329   6.096  0.00  0.00     0.005 C 
HETATM   14  C   UNK N   1      31.031  16.647   6.314  0.00  0.00    -0.001 C 
HETATM   15  C   UNK N   1      32.360  16.160   6.928  0.00  0.00     0.138 C 
HETATM   16  C   UNK N   1      31.355  14.415   5.502  0.00  0.00     0.009 C 
HETATM   17  C   UNK N   1      32.707  15.017   5.950  0.00  0.00     0.048 C 
HETATM   18  O   UNK N   1      22.939  16.941   3.937  0.00  0.00    -0.293 OA
HETATM   19 Cl   UNK N   1      26.081  12.956   4.123  0.00  0.00    -0.084 Cl
HETATM   20  C   UNK N   1      31.367  17.362   4.974  0.00  0.00     0.019 C 
HETATM   21  C   UNK N   1      27.824  17.439   3.387  0.00  0.00     0.021 C 
HETATM   22  C   UNK N   1      25.597  18.969   3.831  0.00  0.00     0.019 A 
ENDROOT
BRANCH  15  23
HETATM   23  C   UNK N   1      33.391  17.281   6.986  0.00  0.00     0.158 C 
HETATM   24  C   UNK N   1      33.356  18.279   8.098  0.00  0.00     0.094 C 
HETATM   25  O   UNK N   1      34.245  17.383   6.118  0.00  0.00    -0.295 OA
ENDBRANCH  15  23
BRANCH  15  26
HETATM   26  O   UNK N   1      32.189  15.588   8.184  0.00  0.00    -0.302 OA
BRANCH  26  27
HETATM   27  C   UNK N   1      32.948  14.541   8.619  0.00  0.00     0.256 C 
HETATM   28  C   UNK N   1      34.384  14.728   8.989  0.00  0.00     0.126 C 
HETATM   29  O   UNK N   1      32.456  13.428   8.690  0.00  0.00    -0.266 OA
ENDBRANCH  26  27
ENDBRANCH  15  26
TORSDOF 3
ENDMDL
MODEL 7
REMARK VINA RESULT:      -6.9      4.057      7.160
REMARK  3 active torsions:
REMARK  status: ('A' for Active; 'I' for Inactive)
REMARK    1  A    between atoms: C_15  and  C_20 
REMARK    2  A    between atoms: C_15  and  O_23 
REMARK    3  A    between atoms: O_23  and  C_27 
ROOT
HETATM    1  C   UNK N   1      26.747  28.750  -4.746  0.00  0.00     0.011 A 
HETATM    2  C   UNK N   1      27.229  30.081  -4.137  0.00  0.00     0.065 A 
HETATM    3  C   UNK N   1      28.647  30.065  -3.665  0.00  0.00     0.154 C 
HETATM    4  C   UNK N   1      29.519  28.900  -3.870  0.00  0.00     0.060 C 
HETATM    5  C   UNK N   1      29.084  27.706  -4.301  0.00  0.00    -0.024 C 
HETATM    6  C   UNK N   1      27.602  27.441  -4.602  0.00  0.00    -0.006 C 
HETATM    7  C   UNK N   1      27.572  26.581  -5.916  0.00  0.00     0.007 C 
HETATM    8  C   UNK N   1      30.105  26.644  -4.598  0.00  0.00     0.037 C 
HETATM    9  C   UNK N   1      29.764  25.519  -5.257  0.00  0.00     0.003 C 
HETATM   10  C   UNK N   1      28.331  25.235  -5.618  0.00  0.00     0.020 C 
HETATM   11  C   UNK N   1      26.039  25.262  -7.523  0.00  0.00     0.013 C 
HETATM   12  C   UNK N   1      26.127  26.336  -6.418  0.00  0.00     0.007 C 
HETATM   13  C   UNK N   1      28.135  24.192  -6.734  0.00  0.00     0.005 C 
HETATM   14  C   UNK N   1      26.636  23.964  -6.974  0.00  0.00    -0.001 C 
HETATM   15  C   UNK N   1      26.640  22.702  -7.861  0.00  0.00     0.138 C 
HETATM   16  C   UNK N   1      28.648  22.780  -6.428  0.00  0.00     0.009 C 
HETATM   17  C   UNK N   1      27.620  21.814  -7.064  0.00  0.00     0.048 C 
HETATM   18  O   UNK N   1      29.105  31.062  -3.134  0.00  0.00    -0.293 OA
HETATM   19 Cl   UNK N   1      31.809  26.907  -4.233  0.00  0.00    -0.084 Cl
HETATM   20  C   UNK N   1      25.876  23.614  -5.662  0.00  0.00     0.019 C 
HETATM   21  C   UNK N   1      27.017  26.595  -3.450  0.00  0.00     0.021 C 
HETATM   22  C   UNK N   1      26.309  29.238  -3.345  0.00  0.00     0.019 A 
ENDROOT
BRANCH  15  23
HETATM   23  C   UNK N   1      25.239  22.122  -8.011  0.00  0.00     0.158 C 
HETATM   24  C   UNK N   1      24.912  20.784  -7.429  0.00  0.00     0.094 C 
HETATM   25  O   UNK N   1      24.375  22.735  -8.619  0.00  0.00    -0.295 OA
ENDBRANCH  15  23
BRANCH  15  26
HETATM   26  O   UNK N   1      27.211  22.929  -9.108  0.00  0.00    -0.302 OA
BRANCH  26  27
HETATM   27  C   UNK N   1      27.701  21.917  -9.882  0.00  0.00     0.256 C 
HETATM   28  C   UNK N   1      29.172  21.730 -10.071  0.00  0.00     0.126 C 
HETATM   29  O   UNK N   1      26.928  21.161 -10.445  0.00  0.00    -0.266 OA
ENDBRANCH  26  27
ENDBRANCH  15  26
TORSDOF 3
ENDMDL
MODEL 8
REMARK VINA RESULT:      -6.7     14.807     16.468
REMARK  3 active torsions:
REMARK  status: ('A' for Active; 'I' for Inactive)
REMARK    1  A    between atoms: C_15  and  C_20 
REMARK    2  A    between atoms: C_15  and  O_23 
REMARK    3  A    between atoms: O_23  and  C_27 
ROOT
HETATM    1  C   UNK N   1      22.560  12.138   8.709  0.00  0.00     0.011 A 
HETATM    2  C   UNK N   1      23.242  11.918  10.074  0.00  0.00     0.065 A 
HETATM    3  C   UNK N   1      24.550  12.622  10.230  0.00  0.00     0.154 C 
HETATM    4  C   UNK N   1      25.074  13.525   9.194  0.00  0.00     0.060 C 
HETATM    5  C   UNK N   1      24.545  13.641   7.966  0.00  0.00    -0.024 C 
HETATM    6  C   UNK N   1      23.337  12.806   7.520  0.00  0.00    -0.006 C 
HETATM    7  C   UNK N   1      22.415  13.780   6.701  0.00  0.00     0.007 C 
HETATM    8  C   UNK N   1      25.094  14.702   7.055  0.00  0.00     0.037 C 
HETATM    9  C   UNK N   1      24.459  15.034   5.915  0.00  0.00     0.003 C 
HETATM   10  C   UNK N   1      23.241  14.278   5.456  0.00  0.00     0.020 C 
HETATM   11  C   UNK N   1      20.289  13.920   5.238  0.00  0.00     0.013 C 
HETATM   12  C   UNK N   1      21.083  13.107   6.283  0.00  0.00     0.007 C 
HETATM   13  C   UNK N   1      22.364  15.016   4.428  0.00  0.00     0.005 C 
HETATM   14  C   UNK N   1      21.186  14.124   4.015  0.00  0.00    -0.001 C 
HETATM   15  C   UNK N   1      20.627  14.876   2.789  0.00  0.00     0.138 C 
HETATM   16  C   UNK N   1      23.032  15.340   3.087  0.00  0.00     0.009 C 
HETATM   17  C   UNK N   1      21.936  15.142   2.014  0.00  0.00     0.048 C 
HETATM   18  O   UNK N   1      25.182  12.476  11.263  0.00  0.00    -0.293 OA
HETATM   19 Cl   UNK N   1      26.501  15.653   7.528  0.00  0.00    -0.084 Cl
HETATM   20  C   UNK N   1      21.652  12.721   3.532  0.00  0.00     0.019 C 
HETATM   21  C   UNK N   1      23.838  11.694   6.572  0.00  0.00     0.021 C 
HETATM   22  C   UNK N   1      23.253  10.810   9.097  0.00  0.00     0.019 A 
ENDROOT
BRANCH  15  23
HETATM   23  C   UNK N   1      19.605  14.033   2.036  0.00  0.00     0.158 C 
HETATM   24  C   UNK N   1      19.872  13.608   0.628  0.00  0.00     0.094 C 
HETATM   25  O   UNK N   1      18.554  13.710   2.567  0.00  0.00    -0.295 OA
ENDBRANCH  15  23
BRANCH  15  26
HETATM   26  O   UNK N   1      20.089  16.114   3.123  0.00  0.00    -0.302 OA
BRANCH  26  27
HETATM   27  C   UNK N   1      20.151  17.188   2.284  0.00  0.00     0.256 C 
HETATM   28  C   UNK N   1      20.842  18.450   2.692  0.00  0.00     0.126 C 
HETATM   29  O   UNK N   1      19.621  17.129   1.188  0.00  0.00    -0.266 OA
ENDBRANCH  26  27
ENDBRANCH  15  26
TORSDOF 3
ENDMDL
MODEL 9
REMARK VINA RESULT:      -6.3      2.875      4.771
REMARK  3 active torsions:
REMARK  status: ('A' for Active; 'I' for Inactive)
REMARK    1  A    between atoms: C_15  and  C_20 
REMARK    2  A    between atoms: C_15  and  O_23 
REMARK    3  A    between atoms: O_23  and  C_27 
ROOT
HETATM    1  C   UNK N   1      30.066  18.396  -9.905  0.00  0.00     0.011 A 
HETATM    2  C   UNK N   1      31.015  17.196 -10.096  0.00  0.00     0.065 A 
HETATM    3  C   UNK N   1      32.288  17.289  -9.320  0.00  0.00     0.154 C 
HETATM    4  C   UNK N   1      32.546  18.391  -8.381  0.00  0.00     0.060 C 
HETATM    5  C   UNK N   1      31.779  19.488  -8.286  0.00  0.00    -0.024 C 
HETATM    6  C   UNK N   1      30.554  19.703  -9.185  0.00  0.00    -0.006 C 
HETATM    7  C   UNK N   1      29.437  20.306  -8.259  0.00  0.00     0.007 C 
HETATM    8  C   UNK N   1      32.079  20.470  -7.188  0.00  0.00     0.037 C 
HETATM    9  C   UNK N   1      31.213  21.456  -6.885  0.00  0.00     0.003 C 
HETATM   10  C   UNK N   1      29.972  21.679  -7.706  0.00  0.00     0.020 C 
HETATM   11  C   UNK N   1      27.059  21.317  -8.229  0.00  0.00     0.013 C 
HETATM   12  C   UNK N   1      28.087  20.465  -9.003  0.00  0.00     0.007 C 
HETATM   13  C   UNK N   1      28.869  22.500  -7.010  0.00  0.00     0.005 C 
HETATM   14  C   UNK N   1      27.683  22.689  -7.965  0.00  0.00    -0.001 C 
HETATM   15  C   UNK N   1      26.853  23.767  -7.237  0.00  0.00     0.138 C 
HETATM   16  C   UNK N   1      29.241  23.940  -6.640  0.00  0.00     0.009 C 
HETATM   17  C   UNK N   1      27.966  24.779  -6.891  0.00  0.00     0.048 C 
HETATM   18  O   UNK N   1      33.118  16.404  -9.437  0.00  0.00    -0.293 OA
HETATM   19 Cl   UNK N   1      33.497  20.266  -6.163  0.00  0.00    -0.084 Cl
HETATM   20  C   UNK N   1      28.120  23.281  -9.336  0.00  0.00     0.019 C 
HETATM   21  C   UNK N   1      30.917  20.751 -10.260  0.00  0.00     0.021 C 
HETATM   22  C   UNK N   1      30.892  18.177 -11.194  0.00  0.00     0.019 A 
ENDROOT
BRANCH  15  23
HETATM   23  C   UNK N   1      25.749  24.319  -8.131  0.00  0.00     0.158 C 
HETATM   24  C   UNK N   1      25.793  25.742  -8.588  0.00  0.00     0.094 C 
HETATM   25  O   UNK N   1      24.813  23.612  -8.470  0.00  0.00    -0.295 OA
ENDBRANCH  15  23
BRANCH  15  26
HETATM   26  O   UNK N   1      26.325  23.310  -6.034  0.00  0.00    -0.302 OA
BRANCH  26  27
HETATM   27  C   UNK N   1      25.918  24.159  -5.047  0.00  0.00     0.256 C 
HETATM   28  C   UNK N   1      26.691  24.293  -3.774  0.00  0.00     0.126 C 
HETATM   29  O   UNK N   1      24.896  24.807  -5.192  0.00  0.00    -0.266 OA
ENDBRANCH  26  27
ENDBRANCH  15  26
TORSDOF 3
ENDMDL
