MODEL 1
REMARK VINA RESULT:      -9.2      0.000      0.000
REMARK  9 active torsions:
REMARK  status: ('A' for Active; 'I' for Inactive)
REMARK    1  A    between atoms: O_2  and  C_24 
REMARK       I    between atoms: N_3  and  C_14 
REMARK    2  A    between atoms: C_18  and  N_3 
REMARK    3  A    between atoms: N_4  and  C_19 
REMARK    4  A    between atoms: C_7  and  C_10 
REMARK    5  A    between atoms: C_10  and  C_13 
REMARK    6  A    between atoms: C_10  and  C_14 
REMARK    7  A    between atoms: C_17  and  C_19 
REMARK    8  A    between atoms: C_18  and  C_24 
REMARK    9  A    between atoms: C_18  and  C_25 
ROOT
HETATM    1  C   UNK N   1      25.731  14.678   6.075  0.00  0.00    -0.044 A 
HETATM    2  C   UNK N   1      26.432  15.834   5.730  0.00  0.00     0.017 A 
HETATM    3  C   UNK N   1      26.253  13.430   5.700  0.00  0.00     0.008 A 
HETATM    4  C   UNK N   1      27.618  15.785   4.999  0.00  0.00    -0.039 A 
HETATM    5  C   UNK N   1      27.448  13.363   4.969  0.00  0.00     0.001 A 
HETATM    6  C   UNK N   1      28.131  14.538   4.620  0.00  0.00     0.009 A 
ENDROOT
BRANCH   1   7
HETATM    7  C   UNK N   1      24.441  14.839   6.848  0.00  0.00     0.115 C 
BRANCH   7   8
HETATM    8  C   UNK N   1      23.975  13.608   7.647  0.00  0.00     0.003 C 
HETATM    9  C   UNK N   1      24.897  13.324   8.812  0.00  0.00     0.006 C 
HETATM   10  C   UNK N   1      24.061  12.532   9.798  0.00  0.00     0.000 C 
HETATM   11  C   UNK N   1      22.607  12.708   9.384  0.00  0.00     0.000 C 
HETATM   12  C   UNK N   1      22.600  13.729   8.264  0.00  0.00     0.006 C 
ENDBRANCH   7   8
BRANCH   7  13
HETATM   13  C   UNK N   1      23.362  15.412   5.960  0.00  0.00     0.227 C 
HETATM   14  O   UNK N   1      22.779  14.687   5.166  0.00  0.00    -0.273 OA
HETATM   15  N   UNK N   1      23.071  16.739   6.038  0.00  0.00    -0.350 N 
HETATM   16  H   UNK N   1      23.557  17.268   6.711  0.00  0.00     0.163 HD
BRANCH  15  17
HETATM   17  C   UNK N   1      22.102  17.442   5.209  0.00  0.00     0.141 C 
BRANCH  17  18
HETATM   18  C   UNK N   1      20.837  17.859   5.956  0.00  0.00     0.194 C 
BRANCH  18  19
HETATM   19  O   UNK N   1      21.174  18.570   7.108  0.00  0.00    -0.399 OA
HETATM   20  H   UNK N   1      20.860  19.477   7.249  0.00  0.00     0.209 HD
ENDBRANCH  18  19
ENDBRANCH  17  18
BRANCH  17  21
HETATM   21  C   UNK N   1      22.724  18.544   4.406  0.00  0.00    -0.033 A 
HETATM   22  C   UNK N   1      24.105  18.748   4.492  0.00  0.00     0.009 A 
HETATM   23  C   UNK N   1      24.717  19.753   3.738  0.00  0.00     0.001 A 
HETATM   24  C   UNK N   1      23.947  20.563   2.898  0.00  0.00     0.000 A 
HETATM   25  C   UNK N   1      22.565  20.365   2.811  0.00  0.00     0.001 A 
HETATM   26  C   UNK N   1      21.952  19.354   3.561  0.00  0.00     0.009 A 
ENDBRANCH  17  21
ENDBRANCH  15  17
ENDBRANCH   7  13
ENDBRANCH   1   7
BRANCH   4  27
HETATM   27  C   UNK N   1      28.404  17.045   4.734  0.00  0.00     0.169 C 
BRANCH  27  28
HETATM   28  N   UNK N   1      29.502  17.306   5.678  0.00  0.00    -0.327 N 
HETATM   29  C   UNK N   1      29.427  17.692   6.981  0.00  0.00     0.047 A 
HETATM   30  C   UNK N   1      30.688  17.764   7.540  0.00  0.00     0.005 A 
HETATM   31  C   UNK N   1      28.290  17.960   7.742  0.00  0.00     0.030 A 
HETATM   32  C   UNK N   1      31.575  17.380   6.562  0.00  0.00     0.027 A 
HETATM   33  C   UNK N   1      30.887  18.129   8.870  0.00  0.00     0.014 A 
HETATM   34  C   UNK N   1      30.822  17.110   5.441  0.00  0.00     0.120 A 
HETATM   35  C   UNK N   1      32.959  17.212   6.551  0.00  0.00    -0.045 A 
HETATM   36  N   UNK N   1      31.381  16.662   4.287  0.00  0.00    -0.345 N 
HETATM   37  C   UNK N   1      32.737  16.478   4.235  0.00  0.00     0.007 A 
ATOM     38  HN  UNK N   1      30.799  16.467   3.473  1.00  0.00     0.167 HD
HETATM   39  C   UNK N   1      33.545  16.749   5.363  0.00  0.00     0.032 A 
HETATM   40  C   UNK N   1      33.367  15.968   2.989  0.00  0.00     0.068 C 
HETATM   41  C   UNK N   1      33.796  17.475   7.754  0.00  0.00     0.049 C 
HETATM   42  C   UNK N   1      29.753  18.426   9.645  0.00  0.00     0.001 A 
HETATM   43  C   UNK N   1      28.461  18.334   9.085  0.00  0.00     0.002 A 
ENDBRANCH  27  28
ENDBRANCH   4  27
TORSDOF 9
ENDMDL
MODEL 2
REMARK VINA RESULT:      -9.0      3.451      5.985
REMARK  9 active torsions:
REMARK  status: ('A' for Active; 'I' for Inactive)
REMARK    1  A    between atoms: O_2  and  C_24 
REMARK       I    between atoms: N_3  and  C_14 
REMARK    2  A    between atoms: C_18  and  N_3 
REMARK    3  A    between atoms: N_4  and  C_19 
REMARK    4  A    between atoms: C_7  and  C_10 
REMARK    5  A    between atoms: C_10  and  C_13 
REMARK    6  A    between atoms: C_10  and  C_14 
REMARK    7  A    between atoms: C_17  and  C_19 
REMARK    8  A    between atoms: C_18  and  C_24 
REMARK    9  A    between atoms: C_18  and  C_25 
ROOT
HETATM    1  C   UNK N   1      21.689  18.765   3.844  0.00  0.00    -0.044 A 
HETATM    2  C   UNK N   1      23.064  18.945   3.694  0.00  0.00     0.017 A 
HETATM    3  C   UNK N   1      20.815  19.732   3.324  0.00  0.00     0.008 A 
HETATM    4  C   UNK N   1      23.594  20.074   3.069  0.00  0.00    -0.039 A 
HETATM    5  C   UNK N   1      21.332  20.870   2.688  0.00  0.00     0.001 A 
HETATM    6  C   UNK N   1      22.718  21.041   2.558  0.00  0.00     0.009 A 
ENDROOT
BRANCH   1   7
HETATM    7  C   UNK N   1      21.215  17.518   4.559  0.00  0.00     0.115 C 
BRANCH   7   8
HETATM    8  C   UNK N   1      22.303  16.697   5.274  0.00  0.00     0.003 C 
HETATM    9  C   UNK N   1      21.795  16.127   6.581  0.00  0.00     0.006 C 
HETATM   10  C   UNK N   1      22.682  14.931   6.866  0.00  0.00     0.000 C 
HETATM   11  C   UNK N   1      23.404  14.599   5.567  0.00  0.00     0.000 C 
HETATM   12  C   UNK N   1      22.809  15.498   4.503  0.00  0.00     0.006 C 
ENDBRANCH   7   8
BRANCH   7  13
HETATM   13  C   UNK N   1      20.347  16.684   3.646  0.00  0.00     0.227 C 
HETATM   14  O   UNK N   1      19.406  16.056   4.110  0.00  0.00    -0.273 OA
HETATM   15  N   UNK N   1      20.644  16.622   2.320  0.00  0.00    -0.350 N 
HETATM   16  H   UNK N   1      21.400  17.166   2.001  0.00  0.00     0.163 HD
BRANCH  15  17
HETATM   17  C   UNK N   1      19.937  15.817   1.333  0.00  0.00     0.141 C 
BRANCH  17  18
HETATM   18  C   UNK N   1      19.569  16.581   0.063  0.00  0.00     0.194 C 
BRANCH  18  19
HETATM   19  O   UNK N   1      20.313  17.758  -0.019  0.00  0.00    -0.399 OA
HETATM   20  H   UNK N   1      21.233  17.751  -0.328  0.00  0.00     0.209 HD
ENDBRANCH  18  19
ENDBRANCH  17  18
BRANCH  17  21
HETATM   21  C   UNK N   1      20.607  14.502   1.077  0.00  0.00    -0.033 A 
HETATM   22  C   UNK N   1      19.821  13.347   0.995  0.00  0.00     0.009 A 
HETATM   23  C   UNK N   1      20.415  12.108   0.734  0.00  0.00     0.001 A 
HETATM   24  C   UNK N   1      21.799  12.020   0.561  0.00  0.00     0.000 A 
HETATM   25  C   UNK N   1      22.589  13.171   0.646  0.00  0.00     0.001 A 
HETATM   26  C   UNK N   1      21.995  14.412   0.900  0.00  0.00     0.009 A 
ENDBRANCH  17  21
ENDBRANCH  15  17
ENDBRANCH   7  13
ENDBRANCH   1   7
BRANCH   4  27
HETATM   27  C   UNK N   1      25.079  20.187   2.829  0.00  0.00     0.169 C 
BRANCH  27  28
HETATM   28  N   UNK N   1      25.922  19.413   3.754  0.00  0.00    -0.327 N 
HETATM   29  C   UNK N   1      26.498  19.819   4.918  0.00  0.00     0.047 A 
HETATM   30  C   UNK N   1      27.157  18.768   5.526  0.00  0.00     0.005 A 
HETATM   31  C   UNK N   1      26.455  21.079   5.514  0.00  0.00     0.030 A 
HETATM   32  C   UNK N   1      26.957  17.664   4.731  0.00  0.00     0.027 A 
HETATM   33  C   UNK N   1      27.825  18.918   6.740  0.00  0.00     0.014 A 
HETATM   34  C   UNK N   1      26.203  18.091   3.660  0.00  0.00     0.120 A 
HETATM   35  C   UNK N   1      27.333  16.328   4.853  0.00  0.00    -0.045 A 
HETATM   36  N   UNK N   1      25.785  17.240   2.688  0.00  0.00    -0.345 N 
HETATM   37  C   UNK N   1      26.128  15.916   2.772  0.00  0.00     0.007 A 
ATOM     38  HN  UNK N   1      25.225  17.582   1.907  1.00  0.00     0.167 HD
HETATM   39  C   UNK N   1      26.905  15.441   3.853  0.00  0.00     0.032 A 
HETATM   40  C   UNK N   1      25.663  14.963   1.731  0.00  0.00     0.068 C 
HETATM   41  C   UNK N   1      28.129  15.834   6.011  0.00  0.00     0.049 C 
HETATM   42  C   UNK N   1      27.812  20.188   7.343  0.00  0.00     0.001 A 
HETATM   43  C   UNK N   1      27.123  21.259   6.737  0.00  0.00     0.002 A 
ENDBRANCH  27  28
ENDBRANCH   4  27
TORSDOF 9
ENDMDL
MODEL 3
REMARK VINA RESULT:      -9.0      6.725     11.995
REMARK  9 active torsions:
REMARK  status: ('A' for Active; 'I' for Inactive)
REMARK    1  A    between atoms: O_2  and  C_24 
REMARK       I    between atoms: N_3  and  C_14 
REMARK    2  A    between atoms: C_18  and  N_3 
REMARK    3  A    between atoms: N_4  and  C_19 
REMARK    4  A    between atoms: C_7  and  C_10 
REMARK    5  A    between atoms: C_10  and  C_13 
REMARK    6  A    between atoms: C_10  and  C_14 
REMARK    7  A    between atoms: C_17  and  C_19 
REMARK    8  A    between atoms: C_18  and  C_24 
REMARK    9  A    between atoms: C_18  and  C_25 
ROOT
HETATM    1  C   UNK N   1      35.123  14.327  10.106  0.00  0.00    -0.044 A 
HETATM    2  C   UNK N   1      34.718  15.582   9.651  0.00  0.00     0.017 A 
HETATM    3  C   UNK N   1      34.471  13.184   9.616  0.00  0.00     0.008 A 
HETATM    4  C   UNK N   1      33.667  15.734   8.748  0.00  0.00    -0.039 A 
HETATM    5  C   UNK N   1      33.415  13.320   8.702  0.00  0.00     0.001 A 
HETATM    6  C   UNK N   1      33.014  14.592   8.267  0.00  0.00     0.009 A 
ENDROOT
BRANCH   1   7
HETATM    7  C   UNK N   1      36.257  14.270  11.104  0.00  0.00     0.115 C 
BRANCH   7   8
HETATM    8  C   UNK N   1      37.565  13.630  10.603  0.00  0.00     0.003 C 
HETATM    9  C   UNK N   1      37.378  12.161  10.294  0.00  0.00     0.006 C 
HETATM   10  C   UNK N   1      38.478  11.818   9.309  0.00  0.00     0.000 C 
HETATM   11  C   UNK N   1      39.018  13.137   8.774  0.00  0.00     0.000 C 
HETATM   12  C   UNK N   1      38.119  14.224   9.328  0.00  0.00     0.006 C 
ENDBRANCH   7   8
BRANCH   7  13
HETATM   13  C   UNK N   1      35.779  13.689  12.414  0.00  0.00     0.227 C 
HETATM   14  O   UNK N   1      34.589  13.723  12.695  0.00  0.00    -0.273 OA
HETATM   15  N   UNK N   1      36.686  13.161  13.279  0.00  0.00    -0.350 N 
HETATM   16  H   UNK N   1      37.627  13.142  12.989  0.00  0.00     0.163 HD
BRANCH  15  17
HETATM   17  C   UNK N   1      36.383  12.621  14.598  0.00  0.00     0.141 C 
BRANCH  17  18
HETATM   18  C   UNK N   1      37.173  11.361  14.946  0.00  0.00     0.194 C 
BRANCH  18  19
HETATM   19  O   UNK N   1      38.488  11.483  14.496  0.00  0.00    -0.399 OA
HETATM   20  H   UNK N   1      39.084  12.156  14.861  0.00  0.00     0.209 HD
ENDBRANCH  18  19
ENDBRANCH  17  18
BRANCH  17  21
HETATM   21  C   UNK N   1      36.409  13.669  15.668  0.00  0.00    -0.033 A 
HETATM   22  C   UNK N   1      35.607  13.499  16.802  0.00  0.00     0.009 A 
HETATM   23  C   UNK N   1      35.627  14.448  17.828  0.00  0.00     0.001 A 
HETATM   24  C   UNK N   1      36.446  15.575  17.720  0.00  0.00     0.000 A 
HETATM   25  C   UNK N   1      37.247  15.752  16.587  0.00  0.00     0.001 A 
HETATM   26  C   UNK N   1      37.233  14.798  15.562  0.00  0.00     0.009 A 
ENDBRANCH  17  21
ENDBRANCH  15  17
ENDBRANCH   7  13
ENDBRANCH   1   7
BRANCH   4  27
HETATM   27  C   UNK N   1      33.325  17.096   8.197  0.00  0.00     0.169 C 
BRANCH  27  28
HETATM   28  N   UNK N   1      32.024  17.185   7.514  0.00  0.00    -0.327 N 
HETATM   29  C   UNK N   1      30.828  17.590   8.018  0.00  0.00     0.047 A 
HETATM   30  C   UNK N   1      29.861  17.594   7.031  0.00  0.00     0.005 A 
HETATM   31  C   UNK N   1      30.527  18.001   9.316  0.00  0.00     0.030 A 
HETATM   32  C   UNK N   1      30.484  17.208   5.867  0.00  0.00     0.027 A 
HETATM   33  C   UNK N   1      28.546  17.978   7.286  0.00  0.00     0.014 A 
HETATM   34  C   UNK N   1      31.800  16.965   6.195  0.00  0.00     0.120 A 
HETATM   35  C   UNK N   1      30.038  17.075   4.554  0.00  0.00    -0.045 A 
HETATM   36  N   UNK N   1      32.719  16.599   5.266  0.00  0.00    -0.345 N 
HETATM   37  C   UNK N   1      32.324  16.462   3.961  0.00  0.00     0.007 A 
ATOM     38  HN  UNK N   1      33.687  16.428   5.535  1.00  0.00     0.167 HD
HETATM   39  C   UNK N   1      30.981  16.698   3.585  0.00  0.00     0.032 A 
HETATM   40  C   UNK N   1      33.318  16.083   2.923  0.00  0.00     0.068 C 
HETATM   41  C   UNK N   1      28.627  17.352   4.166  0.00  0.00     0.049 C 
HETATM   42  C   UNK N   1      28.220  18.372   8.596  0.00  0.00     0.001 A 
HETATM   43  C   UNK N   1      29.208  18.391   9.602  0.00  0.00     0.002 A 
ENDBRANCH  27  28
ENDBRANCH   4  27
TORSDOF 9
ENDMDL
MODEL 4
REMARK VINA RESULT:      -9.0      1.965      4.367
REMARK  9 active torsions:
REMARK  status: ('A' for Active; 'I' for Inactive)
REMARK    1  A    between atoms: O_2  and  C_24 
REMARK       I    between atoms: N_3  and  C_14 
REMARK    2  A    between atoms: C_18  and  N_3 
REMARK    3  A    between atoms: N_4  and  C_19 
REMARK    4  A    between atoms: C_7  and  C_10 
REMARK    5  A    between atoms: C_10  and  C_13 
REMARK    6  A    between atoms: C_10  and  C_14 
REMARK    7  A    between atoms: C_17  and  C_19 
REMARK    8  A    between atoms: C_18  and  C_24 
REMARK    9  A    between atoms: C_18  and  C_25 
ROOT
HETATM    1  C   UNK N   1      26.342  17.640   3.894  0.00  0.00    -0.044 A 
HETATM    2  C   UNK N   1      27.250  17.057   4.779  0.00  0.00     0.017 A 
HETATM    3  C   UNK N   1      25.982  16.941   2.732  0.00  0.00     0.008 A 
HETATM    4  C   UNK N   1      27.831  15.815   4.525  0.00  0.00    -0.039 A 
HETATM    5  C   UNK N   1      26.553  15.688   2.464  0.00  0.00     0.001 A 
HETATM    6  C   UNK N   1      27.475  15.125   3.359  0.00  0.00     0.009 A 
ENDROOT
BRANCH   1   7
HETATM    7  C   UNK N   1      25.787  19.002   4.249  0.00  0.00     0.115 C 
BRANCH   7   8
HETATM    8  C   UNK N   1      26.374  19.662   5.509  0.00  0.00     0.003 C 
HETATM    9  C   UNK N   1      27.784  20.154   5.269  0.00  0.00     0.006 C 
HETATM   10  C   UNK N   1      28.009  21.241   6.301  0.00  0.00     0.000 C 
HETATM   11  C   UNK N   1      26.638  21.626   6.841  0.00  0.00     0.000 C 
HETATM   12  C   UNK N   1      25.622  20.877   6.004  0.00  0.00     0.006 C 
ENDBRANCH   7   8
BRANCH   7  13
HETATM   13  C   UNK N   1      24.276  18.973   4.244  0.00  0.00     0.227 C 
HETATM   14  O   UNK N   1      23.656  19.734   3.515  0.00  0.00    -0.273 OA
HETATM   15  N   UNK N   1      23.624  18.116   5.076  0.00  0.00    -0.350 N 
HETATM   16  H   UNK N   1      24.177  17.511   5.623  0.00  0.00     0.163 HD
BRANCH  15  17
HETATM   17  C   UNK N   1      22.179  18.017   5.224  0.00  0.00     0.141 C 
BRANCH  17  18
HETATM   18  C   UNK N   1      21.440  17.748   3.914  0.00  0.00     0.194 C 
BRANCH  18  19
HETATM   19  O   UNK N   1      20.797  18.908   3.482  0.00  0.00    -0.399 OA
HETATM   20  H   UNK N   1      21.211  19.499   2.832  0.00  0.00     0.209 HD
ENDBRANCH  18  19
ENDBRANCH  17  18
BRANCH  17  21
HETATM   21  C   UNK N   1      21.777  17.108   6.345  0.00  0.00    -0.033 A 
HETATM   22  C   UNK N   1      20.752  17.511   7.209  0.00  0.00     0.009 A 
HETATM   23  C   UNK N   1      20.339  16.674   8.250  0.00  0.00     0.001 A 
HETATM   24  C   UNK N   1      20.954  15.433   8.434  0.00  0.00     0.000 A 
HETATM   25  C   UNK N   1      21.982  15.027   7.575  0.00  0.00     0.001 A 
HETATM   26  C   UNK N   1      22.391  15.861   6.528  0.00  0.00     0.009 A 
ENDBRANCH  17  21
ENDBRANCH  15  17
ENDBRANCH   7  13
ENDBRANCH   1   7
BRANCH   4  27
HETATM   27  C   UNK N   1      28.727  15.168   5.551  0.00  0.00     0.169 C 
BRANCH  27  28
HETATM   28  N   UNK N   1      29.628  16.088   6.263  0.00  0.00    -0.327 N 
HETATM   29  C   UNK N   1      29.356  16.886   7.330  0.00  0.00     0.047 A 
HETATM   30  C   UNK N   1      30.495  17.548   7.746  0.00  0.00     0.005 A 
HETATM   31  C   UNK N   1      28.146  17.050   8.005  0.00  0.00     0.030 A 
HETATM   32  C   UNK N   1      31.517  17.124   6.929  0.00  0.00     0.027 A 
HETATM   33  C   UNK N   1      30.487  18.424   8.830  0.00  0.00     0.014 A 
HETATM   34  C   UNK N   1      30.956  16.237   6.036  0.00  0.00     0.120 A 
HETATM   35  C   UNK N   1      32.882  17.403   6.898  0.00  0.00    -0.045 A 
HETATM   36  N   UNK N   1      31.698  15.591   5.101  0.00  0.00    -0.345 N 
HETATM   37  C   UNK N   1      33.045  15.831   5.039  0.00  0.00     0.007 A 
ATOM     38  HN  UNK N   1      31.258  14.937   4.454  1.00  0.00     0.167 HD
HETATM   39  C   UNK N   1      33.657  16.739   5.934  0.00  0.00     0.032 A 
HETATM   40  C   UNK N   1      33.879  15.118   4.037  0.00  0.00     0.068 C 
HETATM   41  C   UNK N   1      33.519  18.340   7.865  0.00  0.00     0.049 C 
HETATM   42  C   UNK N   1      29.270  18.619   9.506  0.00  0.00     0.001 A 
HETATM   43  C   UNK N   1      28.109  17.929   9.100  0.00  0.00     0.002 A 
ENDBRANCH  27  28
ENDBRANCH   4  27
TORSDOF 9
ENDMDL
MODEL 5
REMARK VINA RESULT:      -8.9     13.193     16.963
REMARK  9 active torsions:
REMARK  status: ('A' for Active; 'I' for Inactive)
REMARK    1  A    between atoms: O_2  and  C_24 
REMARK       I    between atoms: N_3  and  C_14 
REMARK    2  A    between atoms: C_18  and  N_3 
REMARK    3  A    between atoms: N_4  and  C_19 
REMARK    4  A    between atoms: C_7  and  C_10 
REMARK    5  A    between atoms: C_10  and  C_13 
REMARK    6  A    between atoms: C_10  and  C_14 
REMARK    7  A    between atoms: C_17  and  C_19 
REMARK    8  A    between atoms: C_18  and  C_24 
REMARK    9  A    between atoms: C_18  and  C_25 
ROOT
HETATM    1  C   UNK N   1      31.114  27.229  -3.699  0.00  0.00    -0.044 A 
HETATM    2  C   UNK N   1      30.432  27.770  -4.790  0.00  0.00     0.017 A 
HETATM    3  C   UNK N   1      31.383  28.047  -2.591  0.00  0.00     0.008 A 
HETATM    4  C   UNK N   1      30.038  29.108  -4.821  0.00  0.00    -0.039 A 
HETATM    5  C   UNK N   1      30.988  29.393  -2.604  0.00  0.00     0.001 A 
HETATM    6  C   UNK N   1      30.316  29.923  -3.716  0.00  0.00     0.009 A 
ENDROOT
BRANCH   1   7
HETATM    7  C   UNK N   1      31.520  25.773  -3.773  0.00  0.00     0.115 C 
BRANCH   7   8
HETATM    8  C   UNK N   1      32.338  25.363  -5.011  0.00  0.00     0.003 C 
HETATM    9  C   UNK N   1      33.631  26.144  -5.102  0.00  0.00     0.006 C 
HETATM   10  C   UNK N   1      34.555  25.288  -5.945  0.00  0.00     0.000 C 
HETATM   11  C   UNK N   1      33.944  23.895  -5.993  0.00  0.00     0.000 C 
HETATM   12  C   UNK N   1      32.762  23.913  -5.046  0.00  0.00     0.006 C 
ENDBRANCH   7   8
BRANCH   7  13
HETATM   13  C   UNK N   1      30.326  24.880  -3.530  0.00  0.00     0.227 C 
HETATM   14  O   UNK N   1      30.295  24.164  -2.539  0.00  0.00    -0.273 OA
HETATM   15  N   UNK N   1      29.311  24.864  -4.436  0.00  0.00    -0.350 N 
HETATM   16  H   UNK N   1      29.381  25.479  -5.203  0.00  0.00     0.163 HD
BRANCH  15  17
HETATM   17  C   UNK N   1      28.129  24.016  -4.368  0.00  0.00     0.141 C 
BRANCH  17  18
HETATM   18  C   UNK N   1      27.025  24.567  -3.468  0.00  0.00     0.194 C 
BRANCH  18  19
HETATM   19  O   UNK N   1      27.063  23.938  -2.224  0.00  0.00    -0.399 OA
HETATM   20  H   UNK N   1      27.704  24.203  -1.546  0.00  0.00     0.209 HD
ENDBRANCH  18  19
ENDBRANCH  17  18
BRANCH  17  21
HETATM   21  C   UNK N   1      27.652  23.584  -5.720  0.00  0.00    -0.033 A 
HETATM   22  C   UNK N   1      26.313  23.211  -5.878  0.00  0.00     0.009 A 
HETATM   23  C   UNK N   1      25.832  22.825  -7.133  0.00  0.00     0.001 A 
HETATM   24  C   UNK N   1      26.692  22.806  -8.234  0.00  0.00     0.000 A 
HETATM   25  C   UNK N   1      28.033  23.174  -8.081  0.00  0.00     0.001 A 
HETATM   26  C   UNK N   1      28.513  23.567  -6.826  0.00  0.00     0.009 A 
ENDBRANCH  17  21
ENDBRANCH  15  17
ENDBRANCH   7  13
ENDBRANCH   1   7
BRANCH   4  27
HETATM   27  C   UNK N   1      29.211  29.633  -5.967  0.00  0.00     0.169 C 
BRANCH  27  28
HETATM   28  N   UNK N   1      28.328  28.644  -6.606  0.00  0.00    -0.327 N 
HETATM   29  C   UNK N   1      27.186  28.088  -6.120  0.00  0.00     0.047 A 
HETATM   30  C   UNK N   1      26.615  27.251  -7.060  0.00  0.00     0.005 A 
HETATM   31  C   UNK N   1      26.575  28.299  -4.884  0.00  0.00     0.030 A 
HETATM   32  C   UNK N   1      27.412  27.312  -8.178  0.00  0.00     0.027 A 
HETATM   33  C   UNK N   1      25.428  26.563  -6.813  0.00  0.00     0.014 A 
HETATM   34  C   UNK N   1      28.448  28.167  -7.869  0.00  0.00     0.120 A 
HETATM   35  C   UNK N   1      27.319  26.731  -9.441  0.00  0.00    -0.045 A 
HETATM   36  N   UNK N   1      29.410  28.490  -8.771  0.00  0.00    -0.345 N 
HETATM   37  C   UNK N   1      29.353  27.944 -10.026  0.00  0.00     0.007 A 
ATOM     38  HN  UNK N   1      30.164  29.127  -8.516  1.00  0.00     0.167 HD
HETATM   39  C   UNK N   1      28.309  27.059 -10.380  0.00  0.00     0.032 A 
HETATM   40  C   UNK N   1      30.384  28.300 -11.036  0.00  0.00     0.068 C 
HETATM   41  C   UNK N   1      26.199  25.820  -9.811  0.00  0.00     0.049 C 
HETATM   42  C   UNK N   1      24.812  26.746  -5.563  0.00  0.00     0.001 A 
HETATM   43  C   UNK N   1      25.379  27.616  -4.608  0.00  0.00     0.002 A 
ENDBRANCH  27  28
ENDBRANCH   4  27
TORSDOF 9
ENDMDL
MODEL 6
REMARK VINA RESULT:      -8.9      2.601      4.011
REMARK  9 active torsions:
REMARK  status: ('A' for Active; 'I' for Inactive)
REMARK    1  A    between atoms: O_2  and  C_24 
REMARK       I    between atoms: N_3  and  C_14 
REMARK    2  A    between atoms: C_18  and  N_3 
REMARK    3  A    between atoms: N_4  and  C_19 
REMARK    4  A    between atoms: C_7  and  C_10 
REMARK    5  A    between atoms: C_10  and  C_13 
REMARK    6  A    between atoms: C_10  and  C_14 
REMARK    7  A    between atoms: C_17  and  C_19 
REMARK    8  A    between atoms: C_18  and  C_24 
REMARK    9  A    between atoms: C_18  and  C_25 
ROOT
HETATM    1  C   UNK N   1      26.463  17.473   3.801  0.00  0.00    -0.044 A 
HETATM    2  C   UNK N   1      27.332  16.929   4.747  0.00  0.00     0.017 A 
HETATM    3  C   UNK N   1      26.245  16.780   2.600  0.00  0.00     0.008 A 
HETATM    4  C   UNK N   1      28.012  15.733   4.520  0.00  0.00    -0.039 A 
HETATM    5  C   UNK N   1      26.916  15.573   2.358  0.00  0.00     0.001 A 
HETATM    6  C   UNK N   1      27.797  15.048   3.316  0.00  0.00     0.009 A 
ENDROOT
BRANCH   1   7
HETATM    7  C   UNK N   1      25.793  18.789   4.132  0.00  0.00     0.115 C 
BRANCH   7   8
HETATM    8  C   UNK N   1      26.277  19.487   5.416  0.00  0.00     0.003 C 
HETATM    9  C   UNK N   1      27.764  19.762   5.369  0.00  0.00     0.006 C 
HETATM   10  C   UNK N   1      27.989  20.906   6.337  0.00  0.00     0.000 C 
HETATM   11  C   UNK N   1      26.625  21.520   6.618  0.00  0.00     0.000 C 
HETATM   12  C   UNK N   1      25.645  20.834   5.688  0.00  0.00     0.006 C 
ENDBRANCH   7   8
BRANCH   7  13
HETATM   13  C   UNK N   1      24.291  18.647   4.065  0.00  0.00     0.227 C 
HETATM   14  O   UNK N   1      23.634  19.443   3.408  0.00  0.00    -0.273 OA
HETATM   15  N   UNK N   1      23.685  17.648   4.762  0.00  0.00    -0.350 N 
HETATM   16  H   UNK N   1      24.266  17.025   5.255  0.00  0.00     0.163 HD
BRANCH  15  17
HETATM   17  C   UNK N   1      22.248  17.423   4.841  0.00  0.00     0.141 C 
BRANCH  17  18
HETATM   18  C   UNK N   1      21.467  18.611   5.401  0.00  0.00     0.194 C 
BRANCH  18  19
HETATM   19  O   UNK N   1      21.395  18.523   6.791  0.00  0.00    -0.399 OA
HETATM   20  H   UNK N   1      21.595  19.288   7.354  0.00  0.00     0.209 HD
ENDBRANCH  18  19
ENDBRANCH  17  18
BRANCH  17  21
HETATM   21  C   UNK N   1      21.681  16.869   3.570  0.00  0.00    -0.033 A 
HETATM   22  C   UNK N   1      20.623  17.543   2.950  0.00  0.00     0.009 A 
HETATM   23  C   UNK N   1      20.089  17.063   1.751  0.00  0.00     0.001 A 
HETATM   24  C   UNK N   1      20.607  15.903   1.170  0.00  0.00     0.000 A 
HETATM   25  C   UNK N   1      21.663  15.223   1.788  0.00  0.00     0.001 A 
HETATM   26  C   UNK N   1      22.203  15.707   2.985  0.00  0.00     0.009 A 
ENDBRANCH  17  21
ENDBRANCH  15  17
ENDBRANCH   7  13
ENDBRANCH   1   7
BRANCH   4  27
HETATM   27  C   UNK N   1      28.861  15.120   5.605  0.00  0.00     0.169 C 
BRANCH  27  28
HETATM   28  N   UNK N   1      29.754  16.057   6.304  0.00  0.00    -0.327 N 
HETATM   29  C   UNK N   1      29.470  16.878   7.352  0.00  0.00     0.047 A 
HETATM   30  C   UNK N   1      30.604  17.552   7.762  0.00  0.00     0.005 A 
HETATM   31  C   UNK N   1      28.254  17.053   8.012  0.00  0.00     0.030 A 
HETATM   32  C   UNK N   1      31.634  17.113   6.964  0.00  0.00     0.027 A 
HETATM   33  C   UNK N   1      30.584  18.451   8.827  0.00  0.00     0.014 A 
HETATM   34  C   UNK N   1      31.083  16.206   6.085  0.00  0.00     0.120 A 
HETATM   35  C   UNK N   1      32.998  17.395   6.938  0.00  0.00    -0.045 A 
HETATM   36  N   UNK N   1      31.834  15.541   5.170  0.00  0.00    -0.345 N 
HETATM   37  C   UNK N   1      33.181  15.784   5.115  0.00  0.00     0.007 A 
ATOM     38  HN  UNK N   1      31.401  14.873   4.534  1.00  0.00     0.167 HD
HETATM   39  C   UNK N   1      33.783  16.712   5.995  0.00  0.00     0.032 A 
HETATM   40  C   UNK N   1      34.026  15.052   4.135  0.00  0.00     0.068 C 
HETATM   41  C   UNK N   1      33.625  18.355   7.889  0.00  0.00     0.049 C 
HETATM   42  C   UNK N   1      29.361  18.657   9.488  0.00  0.00     0.001 A 
HETATM   43  C   UNK N   1      28.205  17.955   9.087  0.00  0.00     0.002 A 
ENDBRANCH  27  28
ENDBRANCH   4  27
TORSDOF 9
ENDMDL
MODEL 7
REMARK VINA RESULT:      -8.8      3.516      9.734
REMARK  9 active torsions:
REMARK  status: ('A' for Active; 'I' for Inactive)
REMARK    1  A    between atoms: O_2  and  C_24 
REMARK       I    between atoms: N_3  and  C_14 
REMARK    2  A    between atoms: C_18  and  N_3 
REMARK    3  A    between atoms: N_4  and  C_19 
REMARK    4  A    between atoms: C_7  and  C_10 
REMARK    5  A    between atoms: C_10  and  C_13 
REMARK    6  A    between atoms: C_10  and  C_14 
REMARK    7  A    between atoms: C_17  and  C_19 
REMARK    8  A    between atoms: C_18  and  C_24 
REMARK    9  A    between atoms: C_18  and  C_25 
ROOT
HETATM    1  C   UNK N   1      26.675  16.480   4.142  0.00  0.00    -0.044 A 
HETATM    2  C   UNK N   1      25.394  16.144   4.583  0.00  0.00     0.017 A 
HETATM    3  C   UNK N   1      27.052  16.148   2.832  0.00  0.00     0.008 A 
HETATM    4  C   UNK N   1      24.491  15.463   3.768  0.00  0.00    -0.039 A 
HETATM    5  C   UNK N   1      26.153  15.467   1.998  0.00  0.00     0.001 A 
HETATM    6  C   UNK N   1      24.874  15.126   2.463  0.00  0.00     0.009 A 
ENDROOT
BRANCH   1   7
HETATM    7  C   UNK N   1      27.588  17.198   5.111  0.00  0.00     0.115 C 
BRANCH   7   8
HETATM    8  C   UNK N   1      27.764  18.710   4.878  0.00  0.00     0.003 C 
HETATM    9  C   UNK N   1      26.599  19.288   4.105  0.00  0.00     0.006 C 
HETATM   10  C   UNK N   1      26.589  20.765   4.447  0.00  0.00     0.000 C 
HETATM   11  C   UNK N   1      27.466  20.939   5.678  0.00  0.00     0.000 C 
HETATM   12  C   UNK N   1      27.844  19.545   6.136  0.00  0.00     0.006 C 
ENDBRANCH   7   8
BRANCH   7  13
HETATM   13  C   UNK N   1      28.901  16.462   5.242  0.00  0.00     0.227 C 
HETATM   14  O   UNK N   1      28.927  15.352   5.755  0.00  0.00    -0.273 OA
HETATM   15  N   UNK N   1      30.044  17.060   4.810  0.00  0.00    -0.350 N 
HETATM   16  H   UNK N   1      29.958  17.944   4.386  0.00  0.00     0.163 HD
BRANCH  15  17
HETATM   17  C   UNK N   1      31.385  16.502   4.923  0.00  0.00     0.141 C 
BRANCH  17  18
HETATM   18  C   UNK N   1      32.177  16.529   3.618  0.00  0.00     0.194 C 
BRANCH  18  19
HETATM   19  O   UNK N   1      31.564  17.386   2.704  0.00  0.00    -0.399 OA
HETATM   20  H   UNK N   1      31.804  18.326   2.656  0.00  0.00     0.209 HD
ENDBRANCH  18  19
ENDBRANCH  17  18
BRANCH  17  21
HETATM   21  C   UNK N   1      32.136  17.043   6.100  0.00  0.00    -0.033 A 
HETATM   22  C   UNK N   1      33.502  17.314   5.966  0.00  0.00     0.009 A 
HETATM   23  C   UNK N   1      34.225  17.842   7.040  0.00  0.00     0.001 A 
HETATM   24  C   UNK N   1      33.584  18.095   8.256  0.00  0.00     0.000 A 
HETATM   25  C   UNK N   1      32.219  17.822   8.397  0.00  0.00     0.001 A 
HETATM   26  C   UNK N   1      31.493  17.301   7.320  0.00  0.00     0.009 A 
ENDBRANCH  17  21
ENDBRANCH  15  17
ENDBRANCH   7  13
ENDBRANCH   1   7
BRANCH   4  27
HETATM   27  C   UNK N   1      23.080  15.209   4.238  0.00  0.00     0.169 C 
BRANCH  27  28
HETATM   28  N   UNK N   1      22.024  15.707   3.342  0.00  0.00    -0.327 N 
HETATM   29  C   UNK N   1      21.617  16.989   3.141  0.00  0.00     0.047 A 
HETATM   30  C   UNK N   1      20.642  17.043   2.164  0.00  0.00     0.005 A 
HETATM   31  C   UNK N   1      22.082  18.153   3.753  0.00  0.00     0.030 A 
HETATM   32  C   UNK N   1      20.458  15.754   1.720  0.00  0.00     0.027 A 
HETATM   33  C   UNK N   1      20.061  18.245   1.764  0.00  0.00     0.014 A 
HETATM   34  C   UNK N   1      21.313  14.965   2.458  0.00  0.00     0.120 A 
HETATM   35  C   UNK N   1      19.653  15.200   0.726  0.00  0.00    -0.045 A 
HETATM   36  N   UNK N   1      21.421  13.628   2.249  0.00  0.00    -0.345 N 
HETATM   37  C   UNK N   1      20.651  13.044   1.278  0.00  0.00     0.007 A 
ATOM     38  HN  UNK N   1      22.064  13.068   2.808  1.00  0.00     0.167 HD
HETATM   39  C   UNK N   1      19.758  13.819   0.503  0.00  0.00     0.032 A 
HETATM   40  C   UNK N   1      20.768  11.585   1.018  0.00  0.00     0.068 C 
HETATM   41  C   UNK N   1      18.735  16.032  -0.102  0.00  0.00     0.049 C 
HETATM   42  C   UNK N   1      20.502  19.425   2.388  0.00  0.00     0.001 A 
HETATM   43  C   UNK N   1      21.512  19.379   3.371  0.00  0.00     0.002 A 
ENDBRANCH  27  28
ENDBRANCH   4  27
TORSDOF 9
ENDMDL
MODEL 8
REMARK VINA RESULT:      -8.6     12.379     15.793
REMARK  9 active torsions:
REMARK  status: ('A' for Active; 'I' for Inactive)
REMARK    1  A    between atoms: O_2  and  C_24 
REMARK       I    between atoms: N_3  and  C_14 
REMARK    2  A    between atoms: C_18  and  N_3 
REMARK    3  A    between atoms: N_4  and  C_19 
REMARK    4  A    between atoms: C_7  and  C_10 
REMARK    5  A    between atoms: C_10  and  C_13 
REMARK    6  A    between atoms: C_10  and  C_14 
REMARK    7  A    between atoms: C_17  and  C_19 
REMARK    8  A    between atoms: C_18  and  C_24 
REMARK    9  A    between atoms: C_18  and  C_25 
ROOT
HETATM    1  C   UNK N   1      30.807  22.001  -4.471  0.00  0.00    -0.044 A 
HETATM    2  C   UNK N   1      30.664  23.290  -4.986  0.00  0.00     0.017 A 
HETATM    3  C   UNK N   1      30.318  21.724  -3.185  0.00  0.00     0.008 A 
HETATM    4  C   UNK N   1      30.076  24.316  -4.247  0.00  0.00    -0.039 A 
HETATM    5  C   UNK N   1      29.719  22.743  -2.431  0.00  0.00     0.001 A 
HETATM    6  C   UNK N   1      29.597  24.037  -2.960  0.00  0.00     0.009 A 
ENDROOT
BRANCH   1   7
HETATM    7  C   UNK N   1      31.480  20.964  -5.343  0.00  0.00     0.115 C 
BRANCH   7   8
HETATM    8  C   UNK N   1      33.014  20.881  -5.230  0.00  0.00     0.003 C 
HETATM    9  C   UNK N   1      33.513  21.568  -3.978  0.00  0.00     0.006 C 
HETATM   10  C   UNK N   1      34.861  20.937  -3.688  0.00  0.00     0.000 C 
HETATM   11  C   UNK N   1      34.938  19.662  -4.514  0.00  0.00     0.000 C 
HETATM   12  C   UNK N   1      33.574  19.479  -5.149  0.00  0.00     0.006 C 
ENDBRANCH   7   8
BRANCH   7  13
HETATM   13  C   UNK N   1      30.998  21.080  -6.770  0.00  0.00     0.227 C 
HETATM   14  O   UNK N   1      31.777  21.421  -7.649  0.00  0.00    -0.273 OA
HETATM   15  N   UNK N   1      29.691  20.830  -7.053  0.00  0.00    -0.350 N 
HETATM   16  H   UNK N   1      29.116  20.539  -6.308  0.00  0.00     0.163 HD
BRANCH  15  17
HETATM   17  C   UNK N   1      29.070  20.958  -8.364  0.00  0.00     0.141 C 
BRANCH  17  18
HETATM   18  C   UNK N   1      29.244  19.728  -9.252  0.00  0.00     0.194 C 
BRANCH  18  19
HETATM   19  O   UNK N   1      30.484  19.771  -9.891  0.00  0.00    -0.399 OA
HETATM   20  H   UNK N   1      31.037  20.567  -9.860  0.00  0.00     0.209 HD
ENDBRANCH  18  19
ENDBRANCH  17  18
BRANCH  17  21
HETATM   21  C   UNK N   1      27.659  21.456  -8.286  0.00  0.00    -0.033 A 
HETATM   22  C   UNK N   1      26.828  21.313  -9.403  0.00  0.00     0.009 A 
HETATM   23  C   UNK N   1      25.500  21.747  -9.353  0.00  0.00     0.001 A 
HETATM   24  C   UNK N   1      25.000  22.331  -8.187  0.00  0.00     0.000 A 
HETATM   25  C   UNK N   1      25.828  22.480  -7.068  0.00  0.00     0.001 A 
HETATM   26  C   UNK N   1      27.155  22.039  -7.115  0.00  0.00     0.009 A 
ENDBRANCH  17  21
ENDBRANCH  15  17
ENDBRANCH   7  13
ENDBRANCH   1   7
BRANCH   4  27
HETATM   27  C   UNK N   1      29.842  25.669  -4.871  0.00  0.00     0.169 C 
BRANCH  27  28
HETATM   28  N   UNK N   1      28.633  25.771  -5.704  0.00  0.00    -0.327 N 
HETATM   29  C   UNK N   1      27.424  26.304  -5.383  0.00  0.00     0.047 A 
HETATM   30  C   UNK N   1      26.572  26.268  -6.470  0.00  0.00     0.005 A 
HETATM   31  C   UNK N   1      27.018  26.868  -4.174  0.00  0.00     0.030 A 
HETATM   32  C   UNK N   1      27.286  25.723  -7.512  0.00  0.00     0.027 A 
HETATM   33  C   UNK N   1      25.271  26.763  -6.406  0.00  0.00     0.014 A 
HETATM   34  C   UNK N   1      28.536  25.429  -7.012  0.00  0.00     0.120 A 
HETATM   35  C   UNK N   1      26.976  25.483  -8.849  0.00  0.00    -0.045 A 
HETATM   36  N   UNK N   1      29.519  24.908  -7.791  0.00  0.00    -0.345 N 
HETATM   37  C   UNK N   1      29.258  24.662  -9.113  0.00  0.00     0.007 A 
ATOM     38  HN  UNK N   1      30.436  24.703  -7.396  1.00  0.00     0.167 HD
HETATM   39  C   UNK N   1      27.986  24.945  -9.661  0.00  0.00     0.032 A 
HETATM   40  C   UNK N   1      30.326  24.112  -9.988  0.00  0.00     0.068 C 
HETATM   41  C   UNK N   1      25.640  25.810  -9.421  0.00  0.00     0.049 C 
HETATM   42  C   UNK N   1      24.837  27.312  -5.187  0.00  0.00     0.001 A 
HETATM   43  C   UNK N   1      25.710  27.371  -4.080  0.00  0.00     0.002 A 
ENDBRANCH  27  28
ENDBRANCH   4  27
TORSDOF 9
ENDMDL
MODEL 9
REMARK VINA RESULT:      -8.5     12.805     15.348
REMARK  9 active torsions:
REMARK  status: ('A' for Active; 'I' for Inactive)
REMARK    1  A    between atoms: O_2  and  C_24 
REMARK       I    between atoms: N_3  and  C_14 
REMARK    2  A    between atoms: C_18  and  N_3 
REMARK    3  A    between atoms: N_4  and  C_19 
REMARK    4  A    between atoms: C_7  and  C_10 
REMARK    5  A    between atoms: C_10  and  C_13 
REMARK    6  A    between atoms: C_10  and  C_14 
REMARK    7  A    between atoms: C_17  and  C_19 
REMARK    8  A    between atoms: C_18  and  C_24 
REMARK    9  A    between atoms: C_18  and  C_25 
ROOT
HETATM    1  C   UNK N   1      30.084  21.869  -5.535  0.00  0.00    -0.044 A 
HETATM    2  C   UNK N   1      30.660  23.109  -5.814  0.00  0.00     0.017 A 
HETATM    3  C   UNK N   1      30.222  21.329  -4.247  0.00  0.00     0.008 A 
HETATM    4  C   UNK N   1      31.393  23.811  -4.858  0.00  0.00    -0.039 A 
HETATM    5  C   UNK N   1      30.952  22.025  -3.272  0.00  0.00     0.001 A 
HETATM    6  C   UNK N   1      31.536  23.264  -3.576  0.00  0.00     0.009 A 
ENDROOT
BRANCH   1   7
HETATM    7  C   UNK N   1      29.328  21.176  -6.648  0.00  0.00     0.115 C 
BRANCH   7   8
HETATM    8  C   UNK N   1      30.190  20.488  -7.721  0.00  0.00     0.003 C 
HETATM    9  C   UNK N   1      31.583  20.196  -7.207  0.00  0.00     0.006 C 
HETATM   10  C   UNK N   1      32.097  19.060  -8.071  0.00  0.00     0.000 C 
HETATM   11  C   UNK N   1      30.889  18.465  -8.780  0.00  0.00     0.000 C 
HETATM   12  C   UNK N   1      29.669  19.151  -8.200  0.00  0.00     0.006 C 
ENDBRANCH   7   8
BRANCH   7  13
HETATM   13  C   UNK N   1      28.283  22.099  -7.230  0.00  0.00     0.227 C 
HETATM   14  O   UNK N   1      28.232  22.272  -8.439  0.00  0.00    -0.273 OA
HETATM   15  N   UNK N   1      27.428  22.747  -6.394  0.00  0.00    -0.350 N 
HETATM   16  H   UNK N   1      27.503  22.551  -5.431  0.00  0.00     0.163 HD
BRANCH  15  17
HETATM   17  C   UNK N   1      26.412  23.708  -6.802  0.00  0.00     0.141 C 
BRANCH  17  18
HETATM   18  C   UNK N   1      25.109  23.066  -7.272  0.00  0.00     0.194 C 
BRANCH  18  19
HETATM   19  O   UNK N   1      24.812  23.482  -8.570  0.00  0.00    -0.399 OA
HETATM   20  H   UNK N   1      23.962  23.265  -8.986  0.00  0.00     0.209 HD
ENDBRANCH  18  19
ENDBRANCH  17  18
BRANCH  17  21
HETATM   21  C   UNK N   1      26.221  24.804  -5.799  0.00  0.00    -0.033 A 
HETATM   22  C   UNK N   1      26.978  24.786  -4.622  0.00  0.00     0.009 A 
HETATM   23  C   UNK N   1      26.839  25.807  -3.679  0.00  0.00     0.001 A 
HETATM   24  C   UNK N   1      25.937  26.850  -3.906  0.00  0.00     0.000 A 
HETATM   25  C   UNK N   1      25.174  26.871  -5.080  0.00  0.00     0.001 A 
HETATM   26  C   UNK N   1      25.319  25.852  -6.028  0.00  0.00     0.009 A 
ENDBRANCH  17  21
ENDBRANCH  15  17
ENDBRANCH   7  13
ENDBRANCH   1   7
BRANCH   4  27
HETATM   27  C   UNK N   1      31.913  25.195  -5.159  0.00  0.00     0.169 C 
BRANCH  27  28
HETATM   28  N   UNK N   1      30.915  26.272  -5.055  0.00  0.00    -0.327 N 
HETATM   29  C   UNK N   1      30.788  27.220  -4.087  0.00  0.00     0.047 A 
HETATM   30  C   UNK N   1      29.762  28.092  -4.393  0.00  0.00     0.005 A 
HETATM   31  C   UNK N   1      31.558  27.395  -2.938  0.00  0.00     0.030 A 
HETATM   32  C   UNK N   1      29.254  27.693  -5.607  0.00  0.00     0.027 A 
HETATM   33  C   UNK N   1      29.431  29.163  -3.565  0.00  0.00     0.014 A 
HETATM   34  C   UNK N   1      29.976  26.581  -5.982  0.00  0.00     0.120 A 
HETATM   35  C   UNK N   1      28.254  28.207  -6.431  0.00  0.00    -0.045 A 
HETATM   36  N   UNK N   1      29.761  25.946  -7.162  0.00  0.00    -0.345 N 
HETATM   37  C   UNK N   1      28.792  26.422  -8.005  0.00  0.00     0.007 A 
ATOM     38  HN  UNK N   1      30.312  25.126  -7.416  1.00  0.00     0.167 HD
HETATM   39  C   UNK N   1      28.025  27.557  -7.654  0.00  0.00     0.032 A 
HETATM   40  C   UNK N   1      28.554  25.755  -9.312  0.00  0.00     0.068 C 
HETATM   41  C   UNK N   1      27.473  29.420  -6.062  0.00  0.00     0.049 C 
HETATM   42  C   UNK N   1      30.181  29.340  -2.390  0.00  0.00     0.001 A 
HETATM   43  C   UNK N   1      31.244  28.464  -2.083  0.00  0.00     0.002 A 
ENDBRANCH  27  28
ENDBRANCH   4  27
TORSDOF 9
ENDMDL
