REMARK  5 active torsions:
REMARK  status: ('A' for Active; 'I' for Inactive)
REMARK    1  A    between atoms: C_9  and  C_4 
REMARK    2  A    between atoms: C_14  and  C_4 
REMARK    3  A    between atoms: C_9  and  C_7 
REMARK    4  A    between atoms: N_22  and  C_7 
REMARK    5  A    between atoms: C_15  and  O_24 
ROOT
HETATM    1  C   UNK N   1       0.126  -0.938  -0.063  0.00  0.00     0.044 A 
HETATM    2  C   UNK N   1       0.490   1.813  -0.432  0.00  0.00     0.051 A 
HETATM    3  C   UNK N   1       3.940   0.677  -0.405  0.00  0.00     0.187 A 
HETATM    4  C   UNK N   1       1.420  -0.414  -0.181  0.00  0.00     0.060 A 
HETATM    5  C   UNK N   1      -0.801   1.292  -0.300  0.00  0.00     0.035 A 
HETATM    6  C   UNK N   1      -0.984  -0.091  -0.121  0.00  0.00     0.052 A 
HETATM    7  C   UNK N   1       1.598   0.967  -0.373  0.00  0.00     0.050 A 
HETATM    8  C   UNK N   1       2.553  -1.231  -0.095  0.00  0.00     0.261 A 
HETATM    9 Br   UNK N   1      -2.284   2.499  -0.352  0.00  0.00    -0.049 Br
HETATM   10 Cl   UNK N   1      -2.586  -0.788   0.049  0.00  0.00    -0.083 Cl
HETATM   11  N   UNK N   1       2.848   1.478  -0.489  0.00  0.00    -0.351 N 
ATOM     12  HN  UNK N   1       2.969   2.479  -0.642  1.00  0.00     0.166 HD
HETATM   13  N   UNK N   1       3.808  -0.667  -0.195  0.00  0.00    -0.303 N 
HETATM   14  O   UNK N   1       2.431  -2.434   0.079  0.00  0.00    -0.267 OA
ENDROOT
BRANCH  13  15
HETATM   15  C   UNK N   1       4.994  -1.522  -0.069  0.00  0.00     0.211 C 
BRANCH  15  16
HETATM   16  C   UNK N   1       6.191  -0.791   0.458  0.00  0.00     0.147 C 
HETATM   17  O   UNK N   1       6.138  -0.235   1.546  0.00  0.00    -0.296 OA
BRANCH  16  18
HETATM   18  C   UNK N   1       7.448  -0.795  -0.361  0.00  0.00     0.107 C 
BRANCH  18  19
HETATM   19  C   UNK N   1       8.584   0.089   0.157  0.00  0.00     0.112 C 
HETATM   20  C   UNK N   1       8.400   1.558  -0.290  0.00  0.00     0.140 C 
HETATM   21  C   UNK N   1       9.597   2.385   0.179  0.00  0.00     0.035 C 
HETATM   22  C   UNK N   1      10.900   1.767  -0.317  0.00  0.00     0.022 C 
HETATM   23  C   UNK N   1      10.972   0.312   0.134  0.00  0.00     0.114 C 
HETATM   24  N   UNK N   1       9.833  -0.435  -0.402  0.00  0.00    -0.414 N 
HETATM   25  H   UNK N   1       9.900  -1.206  -1.066  0.00  0.00     0.153 HD
BRANCH  20  26
HETATM   26  O   UNK N   1       7.234   2.105   0.248  0.00  0.00    -0.394 OA
HETATM   27  H   UNK N   1       7.158   2.997   0.622  0.00  0.00     0.210 HD
ENDBRANCH  20  26
ENDBRANCH  18  19
ENDBRANCH  16  18
ENDBRANCH  15  16
ENDBRANCH  13  15
TORSDOF 5
