MODEL 1
REMARK VINA RESULT:      -6.8      0.000      0.000
REMARK  10 active torsions:
REMARK  status: ('A' for Active; 'I' for Inactive)
REMARK    1  A    between atoms: N_2  and  C_4 
REMARK    2  A    between atoms: C_4  and  C_5 
REMARK    3  A    between atoms: C_5  and  N_6 
REMARK    4  A    between atoms: N_6  and  C_7 
REMARK    5  A    between atoms: C_10  and  N_25 
REMARK    6  A    between atoms: C_16  and  O_24 
REMARK    7  A    between atoms: C_19  and  O_23 
REMARK    8  A    between atoms: N_25  and  C_26 
REMARK    9  A    between atoms: C_26  and  C_27 
REMARK   10  A    between atoms: C_27  and  N_28 
ROOT
HETATM    1  C   UNK N   1      23.526  15.269   5.611  0.00  0.00     0.043 A 
HETATM    2  C   UNK N   1      24.852  15.076   5.990  0.00  0.00     0.032 A 
HETATM    3  C   UNK N   1      25.827  16.023   5.715  0.00  0.00     0.032 A 
HETATM    4  C   UNK N   1      25.514  17.220   5.075  0.00  0.00     0.043 A 
HETATM    5  C   UNK N   1      24.152  17.476   4.697  0.00  0.00     0.058 A 
HETATM    6  C   UNK N   1      23.165  16.475   4.918  0.00  0.00     0.058 A 
HETATM    7  C   UNK N   1      21.786  16.700   4.378  0.00  0.00     0.199 C 
HETATM    8  O   UNK N   1      21.010  15.774   4.313  0.00  0.00    -0.286 OA
HETATM    9  C   UNK N   1      21.388  17.991   3.766  0.00  0.00     0.065 A 
HETATM   10  C   UNK N   1      20.058  18.213   3.326  0.00  0.00     0.081 A 
HETATM   11  C   UNK N   1      19.710  19.425   2.733  0.00  0.00     0.040 A 
HETATM   12  C   UNK N   1      20.661  20.421   2.563  0.00  0.00     0.040 A 
HETATM   13  C   UNK N   1      21.970  20.227   3.000  0.00  0.00     0.081 A 
HETATM   14  C   UNK N   1      22.341  19.005   3.618  0.00  0.00     0.065 A 
HETATM   15  C   UNK N   1      23.722  18.787   4.112  0.00  0.00     0.199 C 
HETATM   16  O   UNK N   1      24.469  19.737   4.159  0.00  0.00    -0.286 OA
ENDROOT
BRANCH   1  17
HETATM   17  N   UNK N   1      22.595  14.258   6.003  0.00  0.00    -0.387 N 
HETATM   18  H   UNK N   1      21.799  14.114   5.441  0.00  0.00     0.159 HD
BRANCH  17  19
HETATM   19  C   UNK N   1      22.764  13.433   7.181  0.00  0.00     0.156 C 
BRANCH  19  20
HETATM   20  C   UNK N   1      22.376  14.200   8.456  0.00  0.00     0.330 C 
BRANCH  20  21
HETATM   21  N   UNK N   1      20.925  14.391   8.650  0.00  0.00     0.007 N 
HETATM   22  C   UNK N   1      20.491  15.783   8.658  0.00  0.00     0.355 C 
HETATM   23  C   UNK N   1      20.549  13.792   9.915  0.00  0.00     0.355 C 
HETATM   24  O   UNK N   1      20.250  13.733   7.680  0.00  0.00    -0.065 OA
ENDBRANCH  20  21
ENDBRANCH  19  20
ENDBRANCH  17  19
ENDBRANCH   1  17
BRANCH   4  25
HETATM   25  N   UNK N   1      26.607  18.094   4.785  0.00  0.00    -0.387 N 
HETATM   26  H   UNK N   1      26.459  18.831   4.150  0.00  0.00     0.159 HD
BRANCH  25  27
HETATM   27  C   UNK N   1      27.921  17.950   5.377  0.00  0.00     0.156 C 
BRANCH  27  28
HETATM   28  C   UNK N   1      27.987  18.632   6.753  0.00  0.00     0.330 C 
BRANCH  28  29
HETATM   29  N   UNK N   1      28.669  17.850   7.803  0.00  0.00     0.007 N 
HETATM   30  C   UNK N   1      29.407  18.649   8.774  0.00  0.00     0.355 C 
HETATM   31  C   UNK N   1      29.600  16.939   7.166  0.00  0.00     0.355 C 
HETATM   32  O   UNK N   1      27.762  17.095   8.464  0.00  0.00    -0.065 OA
ENDBRANCH  28  29
ENDBRANCH  27  28
ENDBRANCH  25  27
ENDBRANCH   4  25
BRANCH  10  33
HETATM   33  O   UNK N   1      19.106  17.278   3.479  0.00  0.00    -0.360 OA
HETATM   34  H   UNK N   1      19.198  16.423   3.104  0.00  0.00     0.217 HD
ENDBRANCH  10  33
BRANCH  13  35
HETATM   35  O   UNK N   1      22.861  21.213   2.810  0.00  0.00    -0.360 OA
HETATM   36  H   UNK N   1      22.694  21.911   2.208  0.00  0.00     0.217 HD
ENDBRANCH  13  35
TORSDOF 10
ENDMDL
MODEL 2
REMARK VINA RESULT:      -6.8      0.625      5.810
REMARK  10 active torsions:
REMARK  status: ('A' for Active; 'I' for Inactive)
REMARK    1  A    between atoms: N_2  and  C_4 
REMARK    2  A    between atoms: C_4  and  C_5 
REMARK    3  A    between atoms: C_5  and  N_6 
REMARK    4  A    between atoms: N_6  and  C_7 
REMARK    5  A    between atoms: C_10  and  N_25 
REMARK    6  A    between atoms: C_16  and  O_24 
REMARK    7  A    between atoms: C_19  and  O_23 
REMARK    8  A    between atoms: N_25  and  C_26 
REMARK    9  A    between atoms: C_26  and  C_27 
REMARK   10  A    between atoms: C_27  and  N_28 
ROOT
HETATM    1  C   UNK N   1      25.486  16.944   4.631  0.00  0.00     0.043 A 
HETATM    2  C   UNK N   1      25.780  15.679   5.136  0.00  0.00     0.032 A 
HETATM    3  C   UNK N   1      24.783  14.740   5.356  0.00  0.00     0.032 A 
HETATM    4  C   UNK N   1      23.451  15.012   5.054  0.00  0.00     0.043 A 
HETATM    5  C   UNK N   1      23.108  16.292   4.499  0.00  0.00     0.058 A 
HETATM    6  C   UNK N   1      24.120  17.279   4.337  0.00  0.00     0.058 A 
HETATM    7  C   UNK N   1      23.715  18.654   3.903  0.00  0.00     0.199 C 
HETATM    8  O   UNK N   1      24.496  19.571   4.013  0.00  0.00    -0.286 OA
HETATM    9  C   UNK N   1      22.325  18.964   3.491  0.00  0.00     0.065 A 
HETATM   10  C   UNK N   1      21.973  20.253   3.013  0.00  0.00     0.081 A 
HETATM   11  C   UNK N   1      20.657  20.531   2.652  0.00  0.00     0.040 A 
HETATM   12  C   UNK N   1      19.678  19.553   2.763  0.00  0.00     0.040 A 
HETATM   13  C   UNK N   1      20.005  18.278   3.217  0.00  0.00     0.081 A 
HETATM   14  C   UNK N   1      21.343  17.971   3.578  0.00  0.00     0.065 A 
HETATM   15  C   UNK N   1      21.717  16.613   4.042  0.00  0.00     0.199 C 
HETATM   16  O   UNK N   1      20.908  15.723   3.918  0.00  0.00    -0.286 OA
ENDROOT
BRANCH   1  17
HETATM   17  N   UNK N   1      26.597  17.807   4.383  0.00  0.00    -0.387 N 
HETATM   18  H   UNK N   1      26.484  18.538   3.734  0.00  0.00     0.159 HD
BRANCH  17  19
HETATM   19  C   UNK N   1      27.880  17.662   5.039  0.00  0.00     0.156 C 
BRANCH  19  20
HETATM   20  C   UNK N   1      27.957  18.528   6.307  0.00  0.00     0.330 C 
BRANCH  20  21
HETATM   21  N   UNK N   1      28.415  17.819   7.518  0.00  0.00     0.007 N 
HETATM   22  C   UNK N   1      28.502  18.650   8.713  0.00  0.00     0.355 C 
HETATM   23  C   UNK N   1      29.728  17.263   7.256  0.00  0.00     0.355 C 
HETATM   24  O   UNK N   1      27.585  16.780   7.773  0.00  0.00    -0.065 OA
ENDBRANCH  20  21
ENDBRANCH  19  20
ENDBRANCH  17  19
ENDBRANCH   1  17
BRANCH   4  25
HETATM   25  N   UNK N   1      22.502  13.996   5.381  0.00  0.00    -0.387 N 
HETATM   26  H   UNK N   1      21.964  13.608   4.654  0.00  0.00     0.159 HD
BRANCH  25  27
HETATM   27  C   UNK N   1      22.291  13.508   6.728  0.00  0.00     0.156 C 
BRANCH  27  28
HETATM   28  C   UNK N   1      22.115  14.669   7.720  0.00  0.00     0.330 C 
BRANCH  28  29
HETATM   29  N   UNK N   1      20.742  15.204   7.814  0.00  0.00     0.007 N 
HETATM   30  C   UNK N   1      20.636  16.645   7.620  0.00  0.00     0.355 C 
HETATM   31  C   UNK N   1      20.214  14.884   9.126  0.00  0.00     0.355 C 
HETATM   32  O   UNK N   1      19.954  14.586   6.905  0.00  0.00    -0.065 OA
ENDBRANCH  28  29
ENDBRANCH  27  28
ENDBRANCH  25  27
ENDBRANCH   4  25
BRANCH  10  33
HETATM   33  O   UNK N   1      22.891  21.225   2.884  0.00  0.00    -0.360 OA
HETATM   34  H   UNK N   1      23.775  21.031   2.637  0.00  0.00     0.217 HD
ENDBRANCH  10  33
BRANCH  13  35
HETATM   35  O   UNK N   1      19.027  17.363   3.316  0.00  0.00    -0.360 OA
HETATM   36  H   UNK N   1      19.128  16.501   2.963  0.00  0.00     0.217 HD
ENDBRANCH  13  35
TORSDOF 10
ENDMDL
MODEL 3
REMARK VINA RESULT:      -6.8      2.434      6.456
REMARK  10 active torsions:
REMARK  status: ('A' for Active; 'I' for Inactive)
REMARK    1  A    between atoms: N_2  and  C_4 
REMARK    2  A    between atoms: C_4  and  C_5 
REMARK    3  A    between atoms: C_5  and  N_6 
REMARK    4  A    between atoms: N_6  and  C_7 
REMARK    5  A    between atoms: C_10  and  N_25 
REMARK    6  A    between atoms: C_16  and  O_24 
REMARK    7  A    between atoms: C_19  and  O_23 
REMARK    8  A    between atoms: N_25  and  C_26 
REMARK    9  A    between atoms: C_26  and  C_27 
REMARK   10  A    between atoms: C_27  and  N_28 
ROOT
HETATM    1  C   UNK N   1      22.340  16.100   5.763  0.00  0.00     0.043 A 
HETATM    2  C   UNK N   1      23.393  16.460   4.926  0.00  0.00     0.032 A 
HETATM    3  C   UNK N   1      24.683  16.002   5.152  0.00  0.00     0.032 A 
HETATM    4  C   UNK N   1      24.972  15.140   6.206  0.00  0.00     0.043 A 
HETATM    5  C   UNK N   1      23.909  14.715   7.074  0.00  0.00     0.058 A 
HETATM    6  C   UNK N   1      22.599  15.239   6.883  0.00  0.00     0.058 A 
HETATM    7  C   UNK N   1      21.542  14.904   7.890  0.00  0.00     0.199 C 
HETATM    8  O   UNK N   1      20.511  15.535   7.908  0.00  0.00    -0.286 OA
HETATM    9  C   UNK N   1      21.783  13.925   8.978  0.00  0.00     0.065 A 
HETATM   10  C   UNK N   1      20.749  13.564   9.879  0.00  0.00     0.081 A 
HETATM   11  C   UNK N   1      21.001  12.659  10.908  0.00  0.00     0.040 A 
HETATM   12  C   UNK N   1      22.266  12.110  11.064  0.00  0.00     0.040 A 
HETATM   13  C   UNK N   1      23.291  12.442  10.182  0.00  0.00     0.081 A 
HETATM   14  C   UNK N   1      23.051  13.351   9.120  0.00  0.00     0.065 A 
HETATM   15  C   UNK N   1      24.122  13.700   8.155  0.00  0.00     0.199 C 
HETATM   16  O   UNK N   1      25.140  13.047   8.170  0.00  0.00    -0.286 OA
ENDROOT
BRANCH   1  17
HETATM   17  N   UNK N   1      21.043  16.577   5.399  0.00  0.00    -0.387 N 
HETATM   18  H   UNK N   1      20.280  16.337   5.972  0.00  0.00     0.159 HD
BRANCH  17  19
HETATM   19  C   UNK N   1      20.795  17.398   4.232  0.00  0.00     0.156 C 
BRANCH  19  20
HETATM   20  C   UNK N   1      21.065  18.882   4.528  0.00  0.00     0.330 C 
BRANCH  20  21
HETATM   21  N   UNK N   1      20.859  19.792   3.385  0.00  0.00     0.007 N 
HETATM   22  C   UNK N   1      20.085  19.223   2.287  0.00  0.00     0.355 C 
HETATM   23  C   UNK N   1      22.155  20.184   2.869  0.00  0.00     0.355 C 
HETATM   24  O   UNK N   1      20.241  20.918   3.811  0.00  0.00    -0.065 OA
ENDBRANCH  20  21
ENDBRANCH  19  20
ENDBRANCH  17  19
ENDBRANCH   1  17
BRANCH   4  25
HETATM   25  N   UNK N   1      26.345  14.784   6.382  0.00  0.00    -0.387 N 
HETATM   26  H   UNK N   1      26.670  14.621   7.297  0.00  0.00     0.159 HD
BRANCH  25  27
HETATM   27  C   UNK N   1      27.280  14.649   5.285  0.00  0.00     0.156 C 
BRANCH  27  28
HETATM   28  C   UNK N   1      28.569  15.443   5.553  0.00  0.00     0.330 C 
BRANCH  28  29
HETATM   29  N   UNK N   1      28.498  16.878   5.214  0.00  0.00     0.007 N 
HETATM   30  C   UNK N   1      27.979  17.162   3.881  0.00  0.00     0.355 C 
HETATM   31  C   UNK N   1      29.831  17.439   5.310  0.00  0.00     0.355 C 
HETATM   32  O   UNK N   1      27.728  17.518   6.124  0.00  0.00    -0.065 OA
ENDBRANCH  28  29
ENDBRANCH  27  28
ENDBRANCH  25  27
ENDBRANCH   4  25
BRANCH  10  33
HETATM   33  O   UNK N   1      19.509  14.067   9.759  0.00  0.00    -0.360 OA
HETATM   34  H   UNK N   1      18.849  13.623   9.263  0.00  0.00     0.217 HD
ENDBRANCH  10  33
BRANCH  13  35
HETATM   35  O   UNK N   1      24.503  11.893  10.372  0.00  0.00    -0.360 OA
HETATM   36  H   UNK N   1      25.165  11.933   9.711  0.00  0.00     0.217 HD
ENDBRANCH  13  35
TORSDOF 10
ENDMDL
MODEL 4
REMARK VINA RESULT:      -6.8      2.971      5.923
REMARK  10 active torsions:
REMARK  status: ('A' for Active; 'I' for Inactive)
REMARK    1  A    between atoms: N_2  and  C_4 
REMARK    2  A    between atoms: C_4  and  C_5 
REMARK    3  A    between atoms: C_5  and  N_6 
REMARK    4  A    between atoms: N_6  and  C_7 
REMARK    5  A    between atoms: C_10  and  N_25 
REMARK    6  A    between atoms: C_16  and  O_24 
REMARK    7  A    between atoms: C_19  and  O_23 
REMARK    8  A    between atoms: N_25  and  C_26 
REMARK    9  A    between atoms: C_26  and  C_27 
REMARK   10  A    between atoms: C_27  and  N_28 
ROOT
HETATM    1  C   UNK N   1      21.918  16.431   5.896  0.00  0.00     0.043 A 
HETATM    2  C   UNK N   1      22.885  16.897   5.009  0.00  0.00     0.032 A 
HETATM    3  C   UNK N   1      24.204  16.476   5.093  0.00  0.00     0.032 A 
HETATM    4  C   UNK N   1      24.610  15.547   6.048  0.00  0.00     0.043 A 
HETATM    5  C   UNK N   1      23.638  15.016   6.963  0.00  0.00     0.058 A 
HETATM    6  C   UNK N   1      22.300  15.498   6.920  0.00  0.00     0.058 A 
HETATM    7  C   UNK N   1      21.342  15.045   7.979  0.00  0.00     0.199 C 
HETATM    8  O   UNK N   1      20.295  15.631   8.130  0.00  0.00    -0.286 OA
HETATM    9  C   UNK N   1      21.706  13.997   8.963  0.00  0.00     0.065 A 
HETATM   10  C   UNK N   1      20.764  13.526   9.913  0.00  0.00     0.081 A 
HETATM   11  C   UNK N   1      21.132  12.557  10.844  0.00  0.00     0.040 A 
HETATM   12  C   UNK N   1      22.424  12.049  10.853  0.00  0.00     0.040 A 
HETATM   13  C   UNK N   1      23.360  12.488   9.920  0.00  0.00     0.081 A 
HETATM   14  C   UNK N   1      23.001  13.465   8.956  0.00  0.00     0.065 A 
HETATM   15  C   UNK N   1      23.975  13.930   7.939  0.00  0.00     0.199 C 
HETATM   16  O   UNK N   1      25.012  13.320   7.820  0.00  0.00    -0.286 OA
ENDROOT
BRANCH   1  17
HETATM   17  N   UNK N   1      20.580  16.882   5.677  0.00  0.00    -0.387 N 
HETATM   18  H   UNK N   1      20.201  17.540   6.304  0.00  0.00     0.159 HD
BRANCH  17  19
HETATM   19  C   UNK N   1      19.755  16.423   4.580  0.00  0.00     0.156 C 
BRANCH  19  20
HETATM   20  C   UNK N   1      18.726  15.384   5.055  0.00  0.00     0.330 C 
BRANCH  20  21
HETATM   21  N   UNK N   1      18.933  14.019   4.533  0.00  0.00     0.007 N 
HETATM   22  C   UNK N   1      19.937  13.240   5.249  0.00  0.00     0.355 C 
HETATM   23  C   UNK N   1      19.340  14.115   3.145  0.00  0.00     0.355 C 
HETATM   24  O   UNK N   1      17.762  13.343   4.560  0.00  0.00    -0.065 OA
ENDBRANCH  20  21
ENDBRANCH  19  20
ENDBRANCH  17  19
ENDBRANCH   1  17
BRANCH   4  25
HETATM   25  N   UNK N   1      26.003  15.235   6.085  0.00  0.00    -0.387 N 
HETATM   26  H   UNK N   1      26.300  14.382   5.694  0.00  0.00     0.159 HD
BRANCH  25  27
HETATM   27  C   UNK N   1      27.001  16.109   6.665  0.00  0.00     0.156 C 
BRANCH  27  28
HETATM   28  C   UNK N   1      28.185  16.316   5.706  0.00  0.00     0.330 C 
BRANCH  28  29
HETATM   29  N   UNK N   1      28.388  17.709   5.261  0.00  0.00     0.007 N 
HETATM   30  C   UNK N   1      28.095  18.719   6.270  0.00  0.00     0.355 C 
HETATM   31  C   UNK N   1      27.536  17.953   4.114  0.00  0.00     0.355 C 
HETATM   32  O   UNK N   1      29.668  17.868   4.849  0.00  0.00    -0.065 OA
ENDBRANCH  28  29
ENDBRANCH  27  28
ENDBRANCH  25  27
ENDBRANCH   4  25
BRANCH  10  33
HETATM   33  O   UNK N   1      19.502  13.987   9.934  0.00  0.00    -0.360 OA
HETATM   34  H   UNK N   1      18.942  13.842  10.672  0.00  0.00     0.217 HD
ENDBRANCH  10  33
BRANCH  13  35
HETATM   35  O   UNK N   1      24.601  11.976   9.968  0.00  0.00    -0.360 OA
HETATM   36  H   UNK N   1      24.960  11.644  10.766  0.00  0.00     0.217 HD
ENDBRANCH  13  35
TORSDOF 10
ENDMDL
MODEL 5
REMARK VINA RESULT:      -6.7      2.423      7.713
REMARK  10 active torsions:
REMARK  status: ('A' for Active; 'I' for Inactive)
REMARK    1  A    between atoms: N_2  and  C_4 
REMARK    2  A    between atoms: C_4  and  C_5 
REMARK    3  A    between atoms: C_5  and  N_6 
REMARK    4  A    between atoms: N_6  and  C_7 
REMARK    5  A    between atoms: C_10  and  N_25 
REMARK    6  A    between atoms: C_16  and  O_24 
REMARK    7  A    between atoms: C_19  and  O_23 
REMARK    8  A    between atoms: N_25  and  C_26 
REMARK    9  A    between atoms: C_26  and  C_27 
REMARK   10  A    between atoms: C_27  and  N_28 
ROOT
HETATM    1  C   UNK N   1      25.088  15.142   6.112  0.00  0.00     0.043 A 
HETATM    2  C   UNK N   1      24.843  16.014   5.054  0.00  0.00     0.032 A 
HETATM    3  C   UNK N   1      23.571  16.509   4.805  0.00  0.00     0.032 A 
HETATM    4  C   UNK N   1      22.492  16.178   5.621  0.00  0.00     0.043 A 
HETATM    5  C   UNK N   1      22.706  15.308   6.744  0.00  0.00     0.058 A 
HETATM    6  C   UNK N   1      23.997  14.748   6.959  0.00  0.00     0.058 A 
HETATM    7  C   UNK N   1      24.161  13.726   8.042  0.00  0.00     0.199 C 
HETATM    8  O   UNK N   1      25.159  13.044   8.076  0.00  0.00    -0.286 OA
HETATM    9  C   UNK N   1      23.062  13.407   8.986  0.00  0.00     0.065 A 
HETATM   10  C   UNK N   1      23.256  12.490  10.052  0.00  0.00     0.081 A 
HETATM   11  C   UNK N   1      22.206  12.187  10.914  0.00  0.00     0.040 A 
HETATM   12  C   UNK N   1      20.960  12.772  10.735  0.00  0.00     0.040 A 
HETATM   13  C   UNK N   1      20.753  13.684   9.703  0.00  0.00     0.081 A 
HETATM   14  C   UNK N   1      21.813  14.016   8.822  0.00  0.00     0.065 A 
HETATM   15  C   UNK N   1      21.621  15.003   7.731  0.00  0.00     0.199 C 
HETATM   16  O   UNK N   1      20.608  15.663   7.730  0.00  0.00    -0.286 OA
ENDROOT
BRANCH   1  17
HETATM   17  N   UNK N   1      26.446  14.747   6.313  0.00  0.00    -0.387 N 
HETATM   18  H   UNK N   1      26.671  14.252   7.134  0.00  0.00     0.159 HD
BRANCH  17  19
HETATM   19  C   UNK N   1      27.508  15.036   5.372  0.00  0.00     0.156 C 
BRANCH  19  20
HETATM   20  C   UNK N   1      28.471  16.097   5.930  0.00  0.00     0.330 C 
BRANCH  20  21
HETATM   21  N   UNK N   1      28.533  17.351   5.153  0.00  0.00     0.007 N 
HETATM   22  C   UNK N   1      27.662  18.413   5.643  0.00  0.00     0.355 C 
HETATM   23  C   UNK N   1      28.165  17.060   3.781  0.00  0.00     0.355 C 
HETATM   24  O   UNK N   1      29.806  17.809   5.136  0.00  0.00    -0.065 OA
ENDBRANCH  20  21
ENDBRANCH  19  20
ENDBRANCH  17  19
ENDBRANCH   1  17
BRANCH   4  25
HETATM   25  N   UNK N   1      21.217  16.692   5.233  0.00  0.00    -0.387 N 
HETATM   26  H   UNK N   1      20.484  16.054   5.080  0.00  0.00     0.159 HD
BRANCH  25  27
HETATM   27  C   UNK N   1      20.948  18.104   5.056  0.00  0.00     0.156 C 
BRANCH  27  28
HETATM   28  C   UNK N   1      20.500  18.408   3.617  0.00  0.00     0.330 C 
BRANCH  28  29
HETATM   29  N   UNK N   1      20.977  19.696   3.076  0.00  0.00     0.007 N 
HETATM   30  C   UNK N   1      20.698  19.901   1.660  0.00  0.00     0.355 C 
HETATM   31  C   UNK N   1      22.412  19.773   3.271  0.00  0.00     0.355 C 
HETATM   32  O   UNK N   1      20.424  20.713   3.778  0.00  0.00    -0.065 OA
ENDBRANCH  28  29
ENDBRANCH  27  28
ENDBRANCH  25  27
ENDBRANCH   4  25
BRANCH  10  33
HETATM   33  O   UNK N   1      24.448  11.907  10.264  0.00  0.00    -0.360 OA
HETATM   34  H   UNK N   1      24.555  10.978  10.191  0.00  0.00     0.217 HD
ENDBRANCH  10  33
BRANCH  13  35
HETATM   35  O   UNK N   1      19.530  14.223   9.561  0.00  0.00    -0.360 OA
HETATM   36  H   UNK N   1      18.806  13.931  10.077  0.00  0.00     0.217 HD
ENDBRANCH  13  35
TORSDOF 10
ENDMDL
MODEL 6
REMARK VINA RESULT:      -6.7      1.571      6.331
REMARK  10 active torsions:
REMARK  status: ('A' for Active; 'I' for Inactive)
REMARK    1  A    between atoms: N_2  and  C_4 
REMARK    2  A    between atoms: C_4  and  C_5 
REMARK    3  A    between atoms: C_5  and  N_6 
REMARK    4  A    between atoms: N_6  and  C_7 
REMARK    5  A    between atoms: C_10  and  N_25 
REMARK    6  A    between atoms: C_16  and  O_24 
REMARK    7  A    between atoms: C_19  and  O_23 
REMARK    8  A    between atoms: N_25  and  C_26 
REMARK    9  A    between atoms: C_26  and  C_27 
REMARK   10  A    between atoms: C_27  and  N_28 
ROOT
HETATM    1  C   UNK N   1      24.735  16.479   5.731  0.00  0.00     0.043 A 
HETATM    2  C   UNK N   1      24.619  15.274   6.420  0.00  0.00     0.032 A 
HETATM    3  C   UNK N   1      23.405  14.609   6.513  0.00  0.00     0.032 A 
HETATM    4  C   UNK N   1      22.259  15.103   5.894  0.00  0.00     0.043 A 
HETATM    5  C   UNK N   1      22.341  16.325   5.144  0.00  0.00     0.058 A 
HETATM    6  C   UNK N   1      23.570  17.042   5.106  0.00  0.00     0.058 A 
HETATM    7  C   UNK N   1      23.593  18.387   4.448  0.00  0.00     0.199 C 
HETATM    8  O   UNK N   1      24.532  19.127   4.630  0.00  0.00    -0.286 OA
HETATM    9  C   UNK N   1      22.421  18.913   3.706  0.00  0.00     0.065 A 
HETATM   10  C   UNK N   1      22.483  20.157   3.027  0.00  0.00     0.081 A 
HETATM   11  C   UNK N   1      21.364  20.644   2.355  0.00  0.00     0.040 A 
HETATM   12  C   UNK N   1      20.180  19.921   2.349  0.00  0.00     0.040 A 
HETATM   13  C   UNK N   1      20.102  18.692   2.999  0.00  0.00     0.081 A 
HETATM   14  C   UNK N   1      21.234  18.172   3.679  0.00  0.00     0.065 A 
HETATM   15  C   UNK N   1      21.181  16.854   4.357  0.00  0.00     0.199 C 
HETATM   16  O   UNK N   1      20.223  16.145   4.152  0.00  0.00    -0.286 OA
ENDROOT
BRANCH   1  17
HETATM   17  N   UNK N   1      26.045  17.042   5.645  0.00  0.00    -0.387 N 
HETATM   18  H   UNK N   1      26.136  17.961   5.303  0.00  0.00     0.159 HD
BRANCH  17  19
HETATM   19  C   UNK N   1      27.245  16.333   6.037  0.00  0.00     0.156 C 
BRANCH  19  20
HETATM   20  C   UNK N   1      28.361  16.511   4.996  0.00  0.00     0.330 C 
BRANCH  20  21
HETATM   21  N   UNK N   1      29.298  17.619   5.271  0.00  0.00     0.007 N 
HETATM   22  C   UNK N   1      30.594  17.496   4.614  0.00  0.00     0.355 C 
HETATM   23  C   UNK N   1      29.519  17.688   6.701  0.00  0.00     0.355 C 
HETATM   24  O   UNK N   1      28.733  18.790   4.897  0.00  0.00    -0.065 OA
ENDBRANCH  20  21
ENDBRANCH  19  20
ENDBRANCH  17  19
ENDBRANCH   1  17
BRANCH   4  25
HETATM   25  N   UNK N   1      21.051  14.371   6.110  0.00  0.00    -0.387 N 
HETATM   26  H   UNK N   1      20.552  14.052   5.323  0.00  0.00     0.159 HD
BRANCH  25  27
HETATM   27  C   UNK N   1      20.524  14.072   7.425  0.00  0.00     0.156 C 
BRANCH  27  28
HETATM   28  C   UNK N   1      20.599  15.301   8.346  0.00  0.00     0.330 C 
BRANCH  28  29
HETATM   29  N   UNK N   1      19.582  16.338   8.082  0.00  0.00     0.007 N 
HETATM   30  C   UNK N   1      20.123  17.667   7.819  0.00  0.00     0.355 C 
HETATM   31  C   UNK N   1      18.706  16.426   9.233  0.00  0.00     0.355 C 
HETATM   32  O   UNK N   1      18.820  15.966   7.028  0.00  0.00    -0.065 OA
ENDBRANCH  28  29
ENDBRANCH  27  28
ENDBRANCH  25  27
ENDBRANCH   4  25
BRANCH  10  33
HETATM   33  O   UNK N   1      23.612  20.885   3.002  0.00  0.00    -0.360 OA
HETATM   34  H   UNK N   1      23.910  21.348   3.761  0.00  0.00     0.217 HD
ENDBRANCH  10  33
BRANCH  13  35
HETATM   35  O   UNK N   1      18.935  18.027   2.976  0.00  0.00    -0.360 OA
HETATM   36  H   UNK N   1      18.239  18.284   2.404  0.00  0.00     0.217 HD
ENDBRANCH  13  35
TORSDOF 10
ENDMDL
MODEL 7
REMARK VINA RESULT:      -6.6      1.465      6.121
REMARK  10 active torsions:
REMARK  status: ('A' for Active; 'I' for Inactive)
REMARK    1  A    between atoms: N_2  and  C_4 
REMARK    2  A    between atoms: C_4  and  C_5 
REMARK    3  A    between atoms: C_5  and  N_6 
REMARK    4  A    between atoms: N_6  and  C_7 
REMARK    5  A    between atoms: C_10  and  N_25 
REMARK    6  A    between atoms: C_16  and  O_24 
REMARK    7  A    between atoms: C_19  and  O_23 
REMARK    8  A    between atoms: N_25  and  C_26 
REMARK    9  A    between atoms: C_26  and  C_27 
REMARK   10  A    between atoms: C_27  and  N_28 
ROOT
HETATM    1  C   UNK N   1      25.365  16.986   5.312  0.00  0.00     0.043 A 
HETATM    2  C   UNK N   1      25.609  15.821   6.035  0.00  0.00     0.032 A 
HETATM    3  C   UNK N   1      24.585  14.941   6.354  0.00  0.00     0.032 A 
HETATM    4  C   UNK N   1      23.275  15.172   5.940  0.00  0.00     0.043 A 
HETATM    5  C   UNK N   1      22.984  16.345   5.164  0.00  0.00     0.058 A 
HETATM    6  C   UNK N   1      24.022  17.281   4.894  0.00  0.00     0.058 A 
HETATM    7  C   UNK N   1      23.666  18.569   4.217  0.00  0.00     0.199 C 
HETATM    8  O   UNK N   1      24.457  19.483   4.215  0.00  0.00    -0.286 OA
HETATM    9  C   UNK N   1      22.304  18.820   3.685  0.00  0.00     0.065 A 
HETATM   10  C   UNK N   1      22.002  20.014   2.982  0.00  0.00     0.081 A 
HETATM   11  C   UNK N   1      20.711  20.241   2.510  0.00  0.00     0.040 A 
HETATM   12  C   UNK N   1      19.709  19.305   2.729  0.00  0.00     0.040 A 
HETATM   13  C   UNK N   1      19.989  18.121   3.406  0.00  0.00     0.081 A 
HETATM   14  C   UNK N   1      21.300  17.865   3.884  0.00  0.00     0.065 A 
HETATM   15  C   UNK N   1      21.625  16.599   4.586  0.00  0.00     0.199 C 
HETATM   16  O   UNK N   1      20.807  15.710   4.568  0.00  0.00    -0.286 OA
ENDROOT
BRANCH   1  17
HETATM   17  N   UNK N   1      26.503  17.785   4.984  0.00  0.00    -0.387 N 
HETATM   18  H   UNK N   1      26.657  18.011   4.039  0.00  0.00     0.159 HD
BRANCH  17  19
HETATM   19  C   UNK N   1      27.440  18.280   5.971  0.00  0.00     0.156 C 
BRANCH  19  20
HETATM   20  C   UNK N   1      28.864  18.354   5.397  0.00  0.00     0.330 C 
BRANCH  20  21
HETATM   21  N   UNK N   1      29.704  17.169   5.662  0.00  0.00     0.007 N 
HETATM   22  C   UNK N   1      30.111  17.012   7.054  0.00  0.00     0.355 C 
HETATM   23  C   UNK N   1      30.900  17.263   4.848  0.00  0.00     0.355 C 
HETATM   24  O   UNK N   1      29.044  16.053   5.276  0.00  0.00    -0.065 OA
ENDBRANCH  20  21
ENDBRANCH  19  20
ENDBRANCH  17  19
ENDBRANCH   1  17
BRANCH   4  25
HETATM   25  N   UNK N   1      22.291  14.235   6.381  0.00  0.00    -0.387 N 
HETATM   26  H   UNK N   1      21.978  13.554   5.743  0.00  0.00     0.159 HD
BRANCH  25  27
HETATM   27  C   UNK N   1      21.733  14.235   7.717  0.00  0.00     0.156 C 
BRANCH  27  28
HETATM   28  C   UNK N   1      21.598  12.804   8.263  0.00  0.00     0.330 C 
BRANCH  28  29
HETATM   29  N   UNK N   1      22.717  12.356   9.116  0.00  0.00     0.007 N 
HETATM   30  C   UNK N   1      23.464  11.219   8.590  0.00  0.00     0.355 C 
HETATM   31  C   UNK N   1      22.187  11.989  10.414  0.00  0.00     0.355 C 
HETATM   32  O   UNK N   1      23.575  13.384   9.311  0.00  0.00    -0.065 OA
ENDBRANCH  28  29
ENDBRANCH  27  28
ENDBRANCH  25  27
ENDBRANCH   4  25
BRANCH  10  33
HETATM   33  O   UNK N   1      22.943  20.942   2.743  0.00  0.00    -0.360 OA
HETATM   34  H   UNK N   1      22.971  21.744   3.228  0.00  0.00     0.217 HD
ENDBRANCH  10  33
BRANCH  13  35
HETATM   35  O   UNK N   1      18.990  17.244   3.603  0.00  0.00    -0.360 OA
HETATM   36  H   UNK N   1      18.772  16.940   4.462  0.00  0.00     0.217 HD
ENDBRANCH  13  35
TORSDOF 10
ENDMDL
MODEL 8
REMARK VINA RESULT:      -6.6      2.911      8.233
REMARK  10 active torsions:
REMARK  status: ('A' for Active; 'I' for Inactive)
REMARK    1  A    between atoms: N_2  and  C_4 
REMARK    2  A    between atoms: C_4  and  C_5 
REMARK    3  A    between atoms: C_5  and  N_6 
REMARK    4  A    between atoms: N_6  and  C_7 
REMARK    5  A    between atoms: C_10  and  N_25 
REMARK    6  A    between atoms: C_16  and  O_24 
REMARK    7  A    between atoms: C_19  and  O_23 
REMARK    8  A    between atoms: N_25  and  C_26 
REMARK    9  A    between atoms: C_26  and  C_27 
REMARK   10  A    between atoms: C_27  and  N_28 
ROOT
HETATM    1  C   UNK N   1      24.428  15.341   6.191  0.00  0.00     0.043 A 
HETATM    2  C   UNK N   1      23.937  16.123   5.149  0.00  0.00     0.032 A 
HETATM    3  C   UNK N   1      22.579  16.365   5.006  0.00  0.00     0.032 A 
HETATM    4  C   UNK N   1      21.653  15.862   5.917  0.00  0.00     0.043 A 
HETATM    5  C   UNK N   1      22.119  15.078   7.027  0.00  0.00     0.058 A 
HETATM    6  C   UNK N   1      23.505  14.774   7.135  0.00  0.00     0.058 A 
HETATM    7  C   UNK N   1      23.948  13.830   8.211  0.00  0.00     0.199 C 
HETATM    8  O   UNK N   1      25.056  13.347   8.165  0.00  0.00    -0.286 OA
HETATM    9  C   UNK N   1      23.012  13.338   9.251  0.00  0.00     0.065 A 
HETATM   10  C   UNK N   1      23.462  12.503  10.305  0.00  0.00     0.081 A 
HETATM   11  C   UNK N   1      22.563  12.033  11.259  0.00  0.00     0.040 A 
HETATM   12  C   UNK N   1      21.219  12.371  11.183  0.00  0.00     0.040 A 
HETATM   13  C   UNK N   1      20.759  13.200  10.163  0.00  0.00     0.081 A 
HETATM   14  C   UNK N   1      21.661  13.700   9.188  0.00  0.00     0.065 A 
HETATM   15  C   UNK N   1      21.197  14.603   8.107  0.00  0.00     0.199 C 
HETATM   16  O   UNK N   1      20.081  15.063   8.188  0.00  0.00    -0.286 OA
ENDROOT
BRANCH   1  17
HETATM   17  N   UNK N   1      25.848  15.211   6.278  0.00  0.00    -0.387 N 
HETATM   18  H   UNK N   1      26.233  14.847   7.108  0.00  0.00     0.159 HD
BRANCH  17  19
HETATM   19  C   UNK N   1      26.750  15.587   5.209  0.00  0.00     0.156 C 
BRANCH  19  20
HETATM   20  C   UNK N   1      28.199  15.683   5.712  0.00  0.00     0.330 C 
BRANCH  20  21
HETATM   21  N   UNK N   1      28.524  16.924   6.442  0.00  0.00     0.007 N 
HETATM   22  C   UNK N   1      28.288  18.151   5.690  0.00  0.00     0.355 C 
HETATM   23  C   UNK N   1      29.923  16.884   6.817  0.00  0.00     0.355 C 
HETATM   24  O   UNK N   1      27.804  16.974   7.587  0.00  0.00    -0.065 OA
ENDBRANCH  20  21
ENDBRANCH  19  20
ENDBRANCH  17  19
ENDBRANCH   1  17
BRANCH   4  25
HETATM   25  N   UNK N   1      20.276  16.119   5.636  0.00  0.00    -0.387 N 
HETATM   26  H   UNK N   1      19.710  16.473   6.360  0.00  0.00     0.159 HD
BRANCH  25  27
HETATM   27  C   UNK N   1      19.670  15.887   4.341  0.00  0.00     0.156 C 
BRANCH  27  28
HETATM   28  C   UNK N   1      20.025  14.491   3.803  0.00  0.00     0.330 C 
BRANCH  28  29
HETATM   29  N   UNK N   1      19.196  13.391   4.332  0.00  0.00     0.007 N 
HETATM   30  C   UNK N   1      19.877  12.518   5.280  0.00  0.00     0.355 C 
HETATM   31  C   UNK N   1      18.741  12.582   3.218  0.00  0.00     0.355 C 
HETATM   32  O   UNK N   1      18.095  13.903   4.929  0.00  0.00    -0.065 OA
ENDBRANCH  28  29
ENDBRANCH  27  28
ENDBRANCH  25  27
ENDBRANCH   4  25
BRANCH  10  33
HETATM   33  O   UNK N   1      24.756  12.158  10.419  0.00  0.00    -0.360 OA
HETATM   34  H   UNK N   1      25.126  11.476   9.893  0.00  0.00     0.217 HD
ENDBRANCH  10  33
BRANCH  13  35
HETATM   35  O   UNK N   1      19.450  13.498  10.121  0.00  0.00    -0.360 OA
HETATM   36  H   UNK N   1      18.799  12.826  10.071  0.00  0.00     0.217 HD
ENDBRANCH  13  35
TORSDOF 10
ENDMDL
MODEL 9
REMARK VINA RESULT:      -6.5     12.966     16.180
REMARK  10 active torsions:
REMARK  status: ('A' for Active; 'I' for Inactive)
REMARK    1  A    between atoms: N_2  and  C_4 
REMARK    2  A    between atoms: C_4  and  C_5 
REMARK    3  A    between atoms: C_5  and  N_6 
REMARK    4  A    between atoms: N_6  and  C_7 
REMARK    5  A    between atoms: C_10  and  N_25 
REMARK    6  A    between atoms: C_16  and  O_24 
REMARK    7  A    between atoms: C_19  and  O_23 
REMARK    8  A    between atoms: N_25  and  C_26 
REMARK    9  A    between atoms: C_26  and  C_27 
REMARK   10  A    between atoms: C_27  and  N_28 
ROOT
HETATM    1  C   UNK N   1      26.744  24.859  -4.681  0.00  0.00     0.043 A 
HETATM    2  C   UNK N   1      25.878  25.127  -5.738  0.00  0.00     0.032 A 
HETATM    3  C   UNK N   1      26.024  24.503  -6.968  0.00  0.00     0.032 A 
HETATM    4  C   UNK N   1      27.025  23.560  -7.187  0.00  0.00     0.043 A 
HETATM    5  C   UNK N   1      27.920  23.228  -6.114  0.00  0.00     0.058 A 
HETATM    6  C   UNK N   1      27.812  23.918  -4.874  0.00  0.00     0.058 A 
HETATM    7  C   UNK N   1      28.850  23.666  -3.823  0.00  0.00     0.199 C 
HETATM    8  O   UNK N   1      28.942  24.419  -2.881  0.00  0.00    -0.286 OA
HETATM    9  C   UNK N   1      29.881  22.613  -3.981  0.00  0.00     0.065 A 
HETATM   10  C   UNK N   1      30.812  22.338  -2.946  0.00  0.00     0.081 A 
HETATM   11  C   UNK N   1      31.787  21.359  -3.123  0.00  0.00     0.040 A 
HETATM   12  C   UNK N   1      31.862  20.651  -4.314  0.00  0.00     0.040 A 
HETATM   13  C   UNK N   1      30.949  20.897  -5.338  0.00  0.00     0.081 A 
HETATM   14  C   UNK N   1      29.940  21.880  -5.172  0.00  0.00     0.065 A 
HETATM   15  C   UNK N   1      28.945  22.141  -6.240  0.00  0.00     0.199 C 
HETATM   16  O   UNK N   1      28.885  21.368  -7.167  0.00  0.00    -0.286 OA
ENDROOT
BRANCH   1  17
HETATM   17  N   UNK N   1      26.460  25.510  -3.441  0.00  0.00    -0.387 N 
HETATM   18  H   UNK N   1      26.414  24.961  -2.626  0.00  0.00     0.159 HD
BRANCH  17  19
HETATM   19  C   UNK N   1      26.239  26.936  -3.323  0.00  0.00     0.156 C 
BRANCH  19  20
HETATM   20  C   UNK N   1      27.521  27.726  -3.632  0.00  0.00     0.330 C 
BRANCH  20  21
HETATM   21  N   UNK N   1      27.333  28.902  -4.503  0.00  0.00     0.007 N 
HETATM   22  C   UNK N   1      28.566  29.588  -4.873  0.00  0.00     0.355 C 
HETATM   23  C   UNK N   1      26.477  29.849  -3.818  0.00  0.00     0.355 C 
HETATM   24  O   UNK N   1      26.691  28.528  -5.634  0.00  0.00    -0.065 OA
ENDBRANCH  20  21
ENDBRANCH  19  20
ENDBRANCH  17  19
ENDBRANCH   1  17
BRANCH   4  25
HETATM   25  N   UNK N   1      27.124  23.029  -8.510  0.00  0.00    -0.387 N 
HETATM   26  H   UNK N   1      26.769  22.125  -8.677  0.00  0.00     0.159 HD
BRANCH  25  27
HETATM   27  C   UNK N   1      27.717  23.751  -9.616  0.00  0.00     0.156 C 
BRANCH  27  28
HETATM   28  C   UNK N   1      26.830  23.671 -10.870  0.00  0.00     0.330 C 
BRANCH  28  29
HETATM   29  N   UNK N   1      25.771  24.696 -10.949  0.00  0.00     0.007 N 
HETATM   30  C   UNK N   1      25.187  24.867 -12.274  0.00  0.00     0.355 C 
HETATM   31  C   UNK N   1      26.329  25.967 -10.532  0.00  0.00     0.355 C 
HETATM   32  O   UNK N   1      24.782  24.389 -10.078  0.00  0.00    -0.065 OA
ENDBRANCH  28  29
ENDBRANCH  27  28
ENDBRANCH  25  27
ENDBRANCH   4  25
BRANCH  10  33
HETATM   33  O   UNK N   1      30.770  22.996  -1.776  0.00  0.00    -0.360 OA
HETATM   34  H   UNK N   1      30.163  22.754  -1.102  0.00  0.00     0.217 HD
ENDBRANCH  10  33
BRANCH  13  35
HETATM   35  O   UNK N   1      31.061  20.194  -6.477  0.00  0.00    -0.360 OA
HETATM   36  H   UNK N   1      30.665  19.350  -6.569  0.00  0.00     0.217 HD
ENDBRANCH  13  35
TORSDOF 10
ENDMDL
