REMARK  10 active torsions:
REMARK  status: ('A' for Active; 'I' for Inactive)
REMARK    1  A    between atoms: C_2  and  O_66 
REMARK    2  A    between atoms: C_14  and  O_65 
REMARK    3  A    between atoms: C_16  and  N_18 
REMARK    4  A    between atoms: N_21  and  C_24 
REMARK    5  A    between atoms: C_24  and  C_25 
REMARK    6  A    between atoms: C_39  and  O_58 
REMARK    7  A    between atoms: C_41  and  O_59 
REMARK    8  A    between atoms: C_43  and  O_44 
REMARK    9  A    between atoms: O_44  and  C_62 
REMARK   10  A    between atoms: C_46  and  O_48 
ROOT
HETATM    1  C   UNK N   1      -3.721   0.947   0.948  0.00  0.00     0.007 C 
HETATM    2  C   UNK N   1      -2.426   1.218   1.170  0.00  0.00     0.089 C 
HETATM    3  C   UNK N   1      -1.449   0.297   0.748  0.00  0.00     0.064 C 
HETATM    4  C   UNK N   1      -1.837  -1.054   0.374  0.00  0.00     0.027 C 
HETATM    5  C   UNK N   1       0.914  -0.122   0.388  0.00  0.00     0.123 C 
HETATM    6  C   UNK N   1      -0.129   0.742   0.687  0.00  0.00     0.215 C 
HETATM    7  C   UNK N   1       0.615  -1.463   0.200  0.00  0.00     0.134 A 
HETATM    8  C   UNK N   1      -0.791  -1.978   0.157  0.00  0.00     0.082 A 
HETATM    9  N   UNK N   1      -0.976  -3.318  -0.071  0.00  0.00    -0.349 N 
ATOM     10  HN  UNK N   1      -1.914  -3.695  -0.206  1.00  0.00     0.166 HD
HETATM   11  O   UNK N   1       1.606  -2.296   0.099  0.00  0.00    -0.303 OA
HETATM   12  C   UNK N   1       1.414  -3.583   0.004  0.00  0.00     0.107 A 
HETATM   13  C   UNK N   1       0.123  -4.144  -0.114  0.00  0.00     0.100 A 
HETATM   14  C   UNK N   1       0.015  -5.553  -0.206  0.00  0.00     0.097 A 
HETATM   15  C   UNK N   1       1.182  -6.359  -0.093  0.00  0.00     0.068 A 
HETATM   16  C   UNK N   1       2.435  -5.745   0.121  0.00  0.00     0.035 A 
HETATM   17  C   UNK N   1       2.514  -4.370   0.129  0.00  0.00     0.069 A 
HETATM   18  O   UNK N   1       0.089   1.930   0.824  0.00  0.00    -0.285 OA
HETATM   19  N   UNK N   1       2.272   0.328   0.204  0.00  0.00    -0.317 N 
HETATM   20  C   UNK N   1       2.819   1.495   0.660  0.00  0.00     0.252 C 
HETATM   21  C   UNK N   1       4.043   2.054   0.026  0.00  0.00     0.006 C 
HETATM   22  O   UNK N   1       2.302   2.110   1.578  0.00  0.00    -0.268 OA
HETATM   23  C   UNK N   1       4.252   3.392  -0.036  0.00  0.00     0.012 C 
HETATM   24  C   UNK N   1       4.996   1.144  -0.674  0.00  0.00     0.054 C 
HETATM   25  C   UNK N   1       3.224   4.354   0.435  0.00  0.00    -0.003 C 
HETATM   26  C   UNK N   1       2.282   4.760  -0.430  0.00  0.00    -0.020 C 
HETATM   27  C   UNK N   1       1.016   5.458   0.013  0.00  0.00     0.033 C 
HETATM   28  C   UNK N   1       1.194   6.964  -0.084  0.00  0.00     0.017 C 
HETATM   29  C   UNK N   1      -0.251   4.991  -0.783  0.00  0.00     0.131 C 
HETATM   30  C   UNK N   1      -1.531   4.918   0.110  0.00  0.00     0.040 C 
HETATM   31  C   UNK N   1      -2.805   4.085  -0.321  0.00  0.00     0.130 C 
HETATM   32  C   UNK N   1      -4.122   4.784  -0.741  0.00  0.00     0.041 C 
HETATM   33  C   UNK N   1      -5.527   4.148  -0.343  0.00  0.00     0.144 C 
HETATM   34  C   UNK N   1      -6.004   2.751  -0.923  0.00  0.00     0.044 C 
HETATM   35  C   UNK N   1      -7.407   2.122  -0.468  0.00  0.00     0.151 C 
HETATM   36  C   UNK N   1      -5.787   2.618  -2.417  0.00  0.00     0.015 C 
HETATM   37  C   UNK N   1      -7.407   0.576  -0.553  0.00  0.00     0.029 C 
HETATM   38  C   UNK N   1      -7.547  -0.425   0.407  0.00  0.00     0.137 C 
HETATM   39  C   UNK N   1      -3.247  -1.291   0.209  0.00  0.00     0.063 C 
HETATM   40  C   UNK N   1      -4.042  -0.219   0.329  0.00  0.00     0.096 C 
HETATM   41  O   UNK N   1      -5.193  -0.375  -0.231  0.00  0.00    -0.305 OA
HETATM   42  C   UNK N   1      -5.612  -1.637  -0.462  0.00  0.00     0.237 C 
HETATM   43  C   UNK N   1      -4.257  -2.347  -0.125  0.00  0.00     0.225 C 
HETATM   44  O   UNK N   1      -4.040  -3.547  -0.198  0.00  0.00    -0.286 OA
HETATM   45  C   UNK N   1      -4.062   5.331  -2.157  0.00  0.00     0.015 C 
HETATM   46  C   UNK N   1      -1.877   6.239   0.781  0.00  0.00     0.015 C 
HETATM   47  C   UNK N   1      -4.773   1.888   1.401  0.00  0.00     0.054 C 
HETATM   48  C   UNK N   1      -5.922  -1.874  -1.933  0.00  0.00     0.089 C 
HETATM   49  O   UNK N   1      -6.830  -1.647   0.263  0.00  0.00    -0.319 OA
HETATM   50  H   UNK N   1       2.868  -0.268  -0.304  0.00  0.00     0.169 HD
ENDROOT
BRANCH  16  51
HETATM   51  N   UNK N   1       3.619  -6.452   0.473  0.00  0.00    -0.377 N 
HETATM   52  C   UNK N   1       3.935  -7.775  -0.002  0.00  0.00     0.153 C 
HETATM   53  C   UNK N   1       5.293  -7.699  -0.747  0.00  0.00     0.292 C 
HETATM   54  N   UNK N   1       6.317  -6.986   0.045  0.00  0.00     0.091 N 
HETATM   55  C   UNK N   1       5.844  -5.640   0.349  0.00  0.00     0.292 C 
HETATM   56  C   UNK N   1       4.634  -5.752   1.227  0.00  0.00     0.153 C 
BRANCH  54  57
HETATM   57  C   UNK N   1       7.536  -6.870  -0.756  0.00  0.00     0.276 C 
BRANCH  57  58
HETATM   58  C   UNK N   1       8.673  -6.191   0.021  0.00  0.00     0.006 C 
HETATM   59  C   UNK N   1      10.009  -6.669  -0.503  0.00  0.00     0.011 C 
HETATM   60  C   UNK N   1       8.613  -4.679  -0.136  0.00  0.00     0.011 C 
ENDBRANCH  57  58
ENDBRANCH  54  57
ENDBRANCH  16  51
BRANCH  14  61
HETATM   61  O   UNK N   1      -1.189  -6.137  -0.336  0.00  0.00    -0.358 OA
HETATM   62  H   UNK N   1      -1.961  -5.613  -0.427  0.00  0.00     0.217 HD
ENDBRANCH  14  61
BRANCH   2  63
HETATM   63  O   UNK N   1      -2.106   2.387   1.761  0.00  0.00    -0.359 OA
HETATM   64  H   UNK N   1      -1.291   2.601   2.171  0.00  0.00     0.217 HD
ENDBRANCH   2  63
BRANCH  35  65
HETATM   65  O   UNK N   1      -7.818   2.582   0.782  0.00  0.00    -0.386 OA
HETATM   66  C   UNK N   1      -8.965   3.330   0.497  0.00  0.00     0.202 C 
ENDBRANCH  35  65
BRANCH  29  67
HETATM   67  O   UNK N   1      -0.009   3.741  -1.358  0.00  0.00    -0.394 OA
HETATM   68  H   UNK N   1      -0.676   3.161  -1.757  0.00  0.00     0.210 HD
ENDBRANCH  29  67
BRANCH  33  69
HETATM   69  O   UNK N   1      -6.527   5.093  -0.455  0.00  0.00    -0.315 OA
BRANCH  69  70
HETATM   70  C   UNK N   1      -6.541   6.251   0.260  0.00  0.00     0.255 C 
HETATM   71  C   UNK N   1      -7.688   7.187   0.113  0.00  0.00     0.126 C 
HETATM   72  O   UNK N   1      -5.629   6.534   1.025  0.00  0.00    -0.266 OA
ENDBRANCH  69  70
ENDBRANCH  33  69
BRANCH  31  73
HETATM   73  O   UNK N   1      -2.499   3.016  -1.164  0.00  0.00    -0.395 OA
HETATM   74  H   UNK N   1      -3.035   2.460  -1.750  0.00  0.00     0.210 HD
ENDBRANCH  31  73
TORSDOF 10
