MODEL 1
REMARK VINA RESULT:      -9.1      0.000      0.000
REMARK  7 active torsions:
REMARK  status: ('A' for Active; 'I' for Inactive)
REMARK    1  A    between atoms: O_1  and  C_21 
REMARK    2  A    between atoms: O_3  and  C_31 
REMARK    3  A    between atoms: O_4  and  C_42 
REMARK    4  A    between atoms: C_11  and  C_21 
REMARK    5  A    between atoms: C_13  and  C_19 
REMARK    6  A    between atoms: C_28  and  C_29 
REMARK    7  A    between atoms: C_33  and  C_42 
ROOT
HETATM    1  N   UNK N   1      27.425  19.157   5.577  0.00  0.00    -0.406 N 
HETATM    2  N   UNK N   1      25.020  15.717   4.411  0.00  0.00    -0.357 N 
HETATM    3  C   UNK N   1      27.079  17.902   6.263  0.00  0.00     0.107 C 
HETATM    4  C   UNK N   1      27.095  16.685   5.261  0.00  0.00     0.111 C 
HETATM    5  C   UNK N   1      29.368  17.734   5.013  0.00  0.00     0.005 C 
HETATM    6  C   UNK N   1      28.206  17.664   7.283  0.00  0.00     0.010 C 
HETATM    7  C   UNK N   1      28.427  16.643   4.491  0.00  0.00     0.034 C 
HETATM    8  C   UNK N   1      29.563  17.580   6.545  0.00  0.00     0.013 C 
HETATM    9  C   UNK N   1      28.640  19.068   4.736  0.00  0.00     0.122 C 
HETATM   10  C   UNK N   1      25.861  16.761   4.385  0.00  0.00     0.037 A 
HETATM   11  C   UNK N   1      26.304  19.926   5.049  0.00  0.00     0.122 C 
HETATM   12  C   UNK N   1      25.162  17.920   3.996  0.00  0.00    -0.020 A 
HETATM   13  C   UNK N   1      25.677  19.314   3.819  0.00  0.00     0.061 C 
HETATM   14  C   UNK N   1      23.831  17.537   3.960  0.00  0.00     0.002 A 
HETATM   15  C   UNK N   1      23.832  16.201   4.186  0.00  0.00     0.044 A 
HETATM   16  C   UNK N   1      22.627  18.244   3.895  0.00  0.00     0.051 A 
HETATM   17  C   UNK N   1      22.720  15.480   4.366  0.00  0.00     0.041 A 
HETATM   18  C   UNK N   1      21.484  16.097   4.366  0.00  0.00    -0.013 A 
HETATM   19  C   UNK N   1      21.415  17.514   4.128  0.00  0.00     0.076 A 
HETATM   20  H   UNK N   1      25.253  14.773   4.568  0.00  0.00     0.166 HD
ENDROOT
BRANCH  18  21
HETATM   21  C   UNK N   1      20.274  15.194   4.539  0.00  0.00     0.072 C 
HETATM   22  C   UNK N   1      20.458  14.325   3.322  0.00  0.00     0.025 C 
HETATM   23  C   UNK N   1      19.416  13.336   2.895  0.00  0.00     0.033 C 
HETATM   24  C   UNK N   1      19.044  12.339   3.989  0.00  0.00     0.127 C 
HETATM   25  C   UNK N   1      20.075  12.640   1.726  0.00  0.00    -0.051 C 
HETATM   26  C   UNK N   1      20.239  11.435   4.368  0.00  0.00     0.241 C 
HETATM   27  N   UNK N   1      20.742  10.660   3.217  0.00  0.00     0.093 N 
HETATM   28  C   UNK N   1      21.420  12.207   4.975  0.00  0.00     0.078 C 
HETATM   29  C   UNK N   1      20.839  11.340   1.909  0.00  0.00     0.306 C 
HETATM   30  C   UNK N   1      20.038   9.398   3.045  0.00  0.00     0.310 C 
HETATM   31  C   UNK N   1      21.017  13.176   6.044  0.00  0.00    -0.020 A 
HETATM   32  C   UNK N   1      20.431  14.437   5.876  0.00  0.00     0.025 A 
HETATM   33  C   UNK N   1      21.314  13.072   7.384  0.00  0.00    -0.001 A 
HETATM   34  N   UNK N   1      20.351  15.073   7.078  0.00  0.00    -0.358 N 
HETATM   35  C   UNK N   1      20.892  14.230   7.981  0.00  0.00     0.043 A 
HETATM   36  H   UNK N   1      19.976  15.967   7.252  0.00  0.00     0.166 HD
HETATM   37  C   UNK N   1      21.112  14.480   9.334  0.00  0.00     0.030 A 
HETATM   38  C   UNK N   1      21.785  13.495  10.084  0.00  0.00     0.002 A 
HETATM   39  C   UNK N   1      22.221  12.300   9.467  0.00  0.00     0.001 A 
HETATM   40  C   UNK N   1      21.987  12.080   8.096  0.00  0.00     0.014 A 
HETATM   41  C   UNK N   1      20.205  13.257   0.538  0.00  0.00    -0.026 C 
HETATM   42  C   UNK N   1      19.622  14.606   0.243  0.00  0.00     0.036 C 
BRANCH  24  43
HETATM   43  C   UNK N   1      17.810  11.585   3.556  0.00  0.00     0.265 C 
HETATM   44  O   UNK N   1      17.291  10.793   4.329  0.00  0.00    -0.265 OA
BRANCH  43  45
HETATM   45  O   UNK N   1      17.228  11.870   2.364  0.00  0.00    -0.326 OA
HETATM   46  C   UNK N   1      16.943  10.911   1.423  0.00  0.00     0.213 C 
ENDBRANCH  43  45
ENDBRANCH  24  43
ENDBRANCH  18  21
BRANCH  19  47
HETATM   47  O   UNK N   1      20.209  18.133   4.144  0.00  0.00    -0.355 OA
HETATM   48  C   UNK N   1      19.537  18.505   3.002  0.00  0.00     0.210 C 
ENDBRANCH  19  47
BRANCH   4  49
HETATM   49  C   UNK N   1      26.954  15.379   6.076  0.00  0.00     0.275 C 
HETATM   50  O   UNK N   1      27.475  14.349   5.664  0.00  0.00    -0.264 OA
BRANCH  49  51
HETATM   51  O   UNK N   1      26.067  15.324   7.107  0.00  0.00    -0.326 OA
HETATM   52  C   UNK N   1      25.367  14.184   7.426  0.00  0.00     0.213 C 
ENDBRANCH  49  51
ENDBRANCH   4  49
BRANCH   6  53
HETATM   53  C   UNK N   1      28.208  18.661   8.448  0.00  0.00     0.002 C 
HETATM   54  C   UNK N   1      29.337  18.436   9.443  0.00  0.00     0.005 C 
ENDBRANCH   6  53
TORSDOF 7
ENDMDL
MODEL 2
REMARK VINA RESULT:      -8.2      3.248     10.230
REMARK  7 active torsions:
REMARK  status: ('A' for Active; 'I' for Inactive)
REMARK    1  A    between atoms: O_1  and  C_21 
REMARK    2  A    between atoms: O_3  and  C_31 
REMARK    3  A    between atoms: O_4  and  C_42 
REMARK    4  A    between atoms: C_11  and  C_21 
REMARK    5  A    between atoms: C_13  and  C_19 
REMARK    6  A    between atoms: C_28  and  C_29 
REMARK    7  A    between atoms: C_33  and  C_42 
ROOT
HETATM    1  N   UNK N   1      21.494  14.371   5.273  0.00  0.00    -0.406 N 
HETATM    2  N   UNK N   1      25.568  14.787   6.758  0.00  0.00    -0.357 N 
HETATM    3  C   UNK N   1      22.677  13.498   5.203  0.00  0.00     0.107 C 
HETATM    4  C   UNK N   1      23.485  13.528   6.555  0.00  0.00     0.111 C 
HETATM    5  C   UNK N   1      21.143  12.907   7.235  0.00  0.00     0.005 C 
HETATM    6  C   UNK N   1      22.126  12.071   5.035  0.00  0.00     0.010 C 
HETATM    7  C   UNK N   1      22.549  13.241   7.744  0.00  0.00     0.034 C 
HETATM    8  C   UNK N   1      21.206  11.727   6.230  0.00  0.00     0.013 C 
HETATM    9  C   UNK N   1      20.670  14.173   6.486  0.00  0.00     0.122 C 
HETATM   10  C   UNK N   1      24.232  14.843   6.644  0.00  0.00     0.037 A 
HETATM   11  C   UNK N   1      21.686  15.743   4.813  0.00  0.00     0.122 C 
HETATM   12  C   UNK N   1      23.860  16.076   6.077  0.00  0.00    -0.020 A 
HETATM   13  C   UNK N   1      22.490  16.593   5.767  0.00  0.00     0.061 C 
HETATM   14  C   UNK N   1      25.054  16.673   5.706  0.00  0.00     0.002 A 
HETATM   15  C   UNK N   1      26.028  15.858   6.176  0.00  0.00     0.044 A 
HETATM   16  C   UNK N   1      25.373  17.761   4.889  0.00  0.00     0.051 A 
HETATM   17  C   UNK N   1      27.326  16.020   5.900  0.00  0.00     0.041 A 
HETATM   18  C   UNK N   1      27.737  17.038   5.063  0.00  0.00    -0.013 A 
HETATM   19  C   UNK N   1      26.751  17.941   4.532  0.00  0.00     0.076 A 
HETATM   20  H   UNK N   1      26.095  14.079   7.194  0.00  0.00     0.166 HD
ENDROOT
BRANCH  18  21
HETATM   21  C   UNK N   1      29.233  17.170   4.835  0.00  0.00     0.072 C 
HETATM   22  C   UNK N   1      29.694  17.076   6.267  0.00  0.00     0.025 C 
HETATM   23  C   UNK N   1      31.120  17.325   6.653  0.00  0.00     0.033 C 
HETATM   24  C   UNK N   1      32.112  16.440   5.904  0.00  0.00     0.127 C 
HETATM   25  C   UNK N   1      31.124  17.014   8.133  0.00  0.00    -0.051 C 
HETATM   26  C   UNK N   1      31.920  14.945   6.250  0.00  0.00     0.241 C 
HETATM   27  N   UNK N   1      32.089  14.677   7.691  0.00  0.00     0.093 N 
HETATM   28  C   UNK N   1      30.553  14.392   5.821  0.00  0.00     0.078 C 
HETATM   29  C   UNK N   1      31.511  15.640   8.651  0.00  0.00     0.306 C 
HETATM   30  C   UNK N   1      33.477  14.425   8.050  0.00  0.00     0.310 C 
HETATM   31  C   UNK N   1      30.173  14.754   4.417  0.00  0.00    -0.020 A 
HETATM   32  C   UNK N   1      29.688  15.985   3.955  0.00  0.00     0.025 A 
HETATM   33  C   UNK N   1      30.066  13.883   3.358  0.00  0.00    -0.001 A 
HETATM   34  N   UNK N   1      29.319  15.874   2.649  0.00  0.00    -0.358 N 
HETATM   35  C   UNK N   1      29.555  14.592   2.303  0.00  0.00     0.043 A 
HETATM   36  H   UNK N   1      28.954  16.585   2.074  0.00  0.00     0.166 HD
HETATM   37  C   UNK N   1      29.251  13.982   1.087  0.00  0.00     0.030 A 
HETATM   38  C   UNK N   1      29.491  12.599   0.967  0.00  0.00     0.002 A 
HETATM   39  C   UNK N   1      30.018  11.867   2.056  0.00  0.00     0.001 A 
HETATM   40  C   UNK N   1      30.310  12.512   3.273  0.00  0.00     0.014 A 
HETATM   41  C   UNK N   1      30.569  17.861   9.019  0.00  0.00    -0.026 C 
HETATM   42  C   UNK N   1      30.018  19.202   8.640  0.00  0.00     0.036 C 
BRANCH  24  43
HETATM   43  C   UNK N   1      33.508  16.958   6.157  0.00  0.00     0.265 C 
HETATM   44  O   UNK N   1      34.458  16.400   5.628  0.00  0.00    -0.265 OA
BRANCH  43  45
HETATM   45  O   UNK N   1      33.686  18.096   6.874  0.00  0.00    -0.326 OA
HETATM   46  C   UNK N   1      34.484  18.158   7.991  0.00  0.00     0.213 C 
ENDBRANCH  43  45
ENDBRANCH  24  43
ENDBRANCH  18  21
BRANCH  19  47
HETATM   47  O   UNK N   1      27.139  18.933   3.695  0.00  0.00    -0.355 OA
HETATM   48  C   UNK N   1      26.358  20.029   3.409  0.00  0.00     0.210 C 
ENDBRANCH  19  47
BRANCH   4  49
HETATM   49  C   UNK N   1      24.569  12.428   6.502  0.00  0.00     0.275 C 
HETATM   50  O   UNK N   1      24.799  11.756   7.501  0.00  0.00    -0.264 OA
BRANCH  49  51
HETATM   51  O   UNK N   1      25.414  12.371   5.437  0.00  0.00    -0.326 OA
HETATM   52  C   UNK N   1      25.680  11.203   4.761  0.00  0.00     0.213 C 
ENDBRANCH  49  51
ENDBRANCH   4  49
BRANCH   6  53
HETATM   53  C   UNK N   1      21.474  11.814   3.671  0.00  0.00     0.002 C 
HETATM   54  C   UNK N   1      20.017  11.387   3.762  0.00  0.00     0.005 C 
ENDBRANCH   6  53
TORSDOF 7
ENDMDL
MODEL 3
REMARK VINA RESULT:      -7.9      2.475      3.241
REMARK  7 active torsions:
REMARK  status: ('A' for Active; 'I' for Inactive)
REMARK    1  A    between atoms: O_1  and  C_21 
REMARK    2  A    between atoms: O_3  and  C_31 
REMARK    3  A    between atoms: O_4  and  C_42 
REMARK    4  A    between atoms: C_11  and  C_21 
REMARK    5  A    between atoms: C_13  and  C_19 
REMARK    6  A    between atoms: C_28  and  C_29 
REMARK    7  A    between atoms: C_33  and  C_42 
ROOT
HETATM    1  N   UNK N   1      30.388  17.036   5.646  0.00  0.00    -0.406 N 
HETATM    2  N   UNK N   1      27.391  14.901   3.316  0.00  0.00    -0.357 N 
HETATM    3  C   UNK N   1      30.075  15.606   5.492  0.00  0.00     0.107 C 
HETATM    4  C   UNK N   1      29.707  15.265   3.998  0.00  0.00     0.111 C 
HETATM    5  C   UNK N   1      31.959  16.379   3.852  0.00  0.00     0.005 C 
HETATM    6  C   UNK N   1      31.381  14.860   5.818  0.00  0.00     0.010 C 
HETATM    7  C   UNK N   1      30.799  15.785   3.045  0.00  0.00     0.034 C 
HETATM    8  C   UNK N   1      32.500  15.329   4.858  0.00  0.00     0.013 C 
HETATM    9  C   UNK N   1      31.344  17.555   4.643  0.00  0.00     0.122 C 
HETATM   10  C   UNK N   1      28.316  15.789   3.709  0.00  0.00     0.037 A 
HETATM   11  C   UNK N   1      29.269  17.898   6.009  0.00  0.00     0.122 C 
HETATM   12  C   UNK N   1      27.682  16.898   4.302  0.00  0.00    -0.020 A 
HETATM   13  C   UNK N   1      28.296  18.134   4.879  0.00  0.00     0.061 C 
HETATM   14  C   UNK N   1      26.347  16.539   4.390  0.00  0.00     0.002 A 
HETATM   15  C   UNK N   1      26.248  15.349   3.751  0.00  0.00     0.044 A 
HETATM   16  C   UNK N   1      25.253  17.063   5.086  0.00  0.00     0.051 A 
HETATM   17  C   UNK N   1      25.137  14.605   3.740  0.00  0.00     0.041 A 
HETATM   18  C   UNK N   1      24.017  15.016   4.437  0.00  0.00    -0.013 A 
HETATM   19  C   UNK N   1      24.057  16.273   5.136  0.00  0.00     0.076 A 
HETATM   20  H   UNK N   1      27.544  14.076   2.801  0.00  0.00     0.166 HD
ENDROOT
BRANCH  18  21
HETATM   21  C   UNK N   1      22.790  14.127   4.336  0.00  0.00     0.072 C 
HETATM   22  C   UNK N   1      23.276  13.180   3.269  0.00  0.00     0.025 C 
HETATM   23  C   UNK N   1      22.368  12.166   2.643  0.00  0.00     0.033 C 
HETATM   24  C   UNK N   1      21.701  11.242   3.657  0.00  0.00     0.127 C 
HETATM   25  C   UNK N   1      23.303  11.396   1.737  0.00  0.00    -0.051 C 
HETATM   26  C   UNK N   1      22.736  10.364   4.397  0.00  0.00     0.241 C 
HETATM   27  N   UNK N   1      23.514   9.516   3.473  0.00  0.00     0.093 N 
HETATM   28  C   UNK N   1      23.726  11.173   5.248  0.00  0.00     0.078 C 
HETATM   29  C   UNK N   1      23.967  10.110   2.198  0.00  0.00     0.306 C 
HETATM   30  C   UNK N   1      22.858   8.246   3.198  0.00  0.00     0.310 C 
HETATM   31  C   UNK N   1      23.069  12.210   6.109  0.00  0.00    -0.020 A 
HETATM   32  C   UNK N   1      22.571  13.458   5.711  0.00  0.00     0.025 A 
HETATM   33  C   UNK N   1      22.996  12.193   7.482  0.00  0.00    -0.001 A 
HETATM   34  N   UNK N   1      22.185  14.170   6.806  0.00  0.00    -0.358 N 
HETATM   35  C   UNK N   1      22.451  13.387   7.872  0.00  0.00     0.043 A 
HETATM   36  H   UNK N   1      21.793  15.073   6.818  0.00  0.00     0.166 HD
HETATM   37  C   UNK N   1      22.307  13.724   9.216  0.00  0.00     0.030 A 
HETATM   38  C   UNK N   1      22.738  12.790  10.179  0.00  0.00     0.002 A 
HETATM   39  C   UNK N   1      23.302  11.558   9.776  0.00  0.00     0.001 A 
HETATM   40  C   UNK N   1      23.438  11.249   8.409  0.00  0.00     0.014 A 
HETATM   41  C   UNK N   1      23.756  11.934   0.591  0.00  0.00    -0.026 C 
HETATM   42  C   UNK N   1      23.296  13.261   0.068  0.00  0.00     0.036 C 
BRANCH  24  43
HETATM   43  C   UNK N   1      20.614  10.462   2.958  0.00  0.00     0.265 C 
HETATM   44  O   UNK N   1      19.922   9.689   3.605  0.00  0.00    -0.265 OA
BRANCH  43  45
HETATM   45  O   UNK N   1      20.343  10.703   1.650  0.00  0.00    -0.326 OA
HETATM   46  C   UNK N   1      20.208   9.703   0.719  0.00  0.00     0.213 C 
ENDBRANCH  43  45
ENDBRANCH  24  43
ENDBRANCH  18  21
BRANCH  19  47
HETATM   47  O   UNK N   1      22.972  16.678   5.838  0.00  0.00    -0.355 OA
HETATM   48  C   UNK N   1      22.371  17.903   5.658  0.00  0.00     0.210 C 
ENDBRANCH  19  47
BRANCH   4  49
HETATM   49  C   UNK N   1      29.618  13.728   3.855  0.00  0.00     0.275 C 
HETATM   50  O   UNK N   1      30.024  13.190   2.831  0.00  0.00    -0.264 OA
BRANCH  49  51
HETATM   51  O   UNK N   1      28.884  13.014   4.751  0.00  0.00    -0.326 OA
HETATM   52  C   UNK N   1      28.541  11.697   4.549  0.00  0.00     0.213 C 
ENDBRANCH  49  51
ENDBRANCH   4  49
BRANCH   6  53
HETATM   53  C   UNK N   1      31.780  14.929   7.298  0.00  0.00     0.002 C 
HETATM   54  C   UNK N   1      33.158  15.531   7.531  0.00  0.00     0.005 C 
ENDBRANCH   6  53
TORSDOF 7
ENDMDL
MODEL 4
REMARK VINA RESULT:      -7.9      4.488      8.480
REMARK  7 active torsions:
REMARK  status: ('A' for Active; 'I' for Inactive)
REMARK    1  A    between atoms: O_1  and  C_21 
REMARK    2  A    between atoms: O_3  and  C_31 
REMARK    3  A    between atoms: O_4  and  C_42 
REMARK    4  A    between atoms: C_11  and  C_21 
REMARK    5  A    between atoms: C_13  and  C_19 
REMARK    6  A    between atoms: C_28  and  C_29 
REMARK    7  A    between atoms: C_33  and  C_42 
ROOT
HETATM    1  N   UNK N   1      26.243   5.599   5.429  0.00  0.00    -0.406 N 
HETATM    2  N   UNK N   1      23.661   9.098   5.169  0.00  0.00    -0.357 N 
HETATM    3  C   UNK N   1      25.267   6.191   6.358  0.00  0.00     0.107 C 
HETATM    4  C   UNK N   1      23.996   6.715   5.586  0.00  0.00     0.111 C 
HETATM    5  C   UNK N   1      24.205   4.305   4.892  0.00  0.00     0.005 C 
HETATM    6  C   UNK N   1      24.803   5.035   7.262  0.00  0.00     0.010 C 
HETATM    7  C   UNK N   1      23.425   5.608   4.681  0.00  0.00     0.034 C 
HETATM    8  C   UNK N   1      24.189   3.912   6.393  0.00  0.00     0.013 C 
HETATM    9  C   UNK N   1      25.658   4.628   4.478  0.00  0.00     0.122 C 
HETATM   10  C   UNK N   1      24.362   7.995   4.863  0.00  0.00     0.037 A 
HETATM   11  C   UNK N   1      27.264   6.505   4.914  0.00  0.00     0.122 C 
HETATM   12  C   UNK N   1      25.626   8.363   4.367  0.00  0.00    -0.020 A 
HETATM   13  C   UNK N   1      26.742   7.486   3.892  0.00  0.00     0.061 C 
HETATM   14  C   UNK N   1      25.698   9.734   4.556  0.00  0.00     0.002 A 
HETATM   15  C   UNK N   1      24.475  10.102   5.007  0.00  0.00     0.044 A 
HETATM   16  C   UNK N   1      26.746  10.658   4.514  0.00  0.00     0.051 A 
HETATM   17  C   UNK N   1      24.186  11.334   5.439  0.00  0.00     0.041 A 
HETATM   18  C   UNK N   1      25.167  12.305   5.480  0.00  0.00    -0.013 A 
HETATM   19  C   UNK N   1      26.488  11.978   5.012  0.00  0.00     0.076 A 
HETATM   20  H   UNK N   1      22.721   9.141   5.458  0.00  0.00     0.166 HD
ENDROOT
BRANCH  18  21
HETATM   21  C   UNK N   1      24.739  13.685   5.949  0.00  0.00     0.072 C 
HETATM   22  C   UNK N   1      23.648  13.943   4.942  0.00  0.00     0.025 C 
HETATM   23  C   UNK N   1      22.977  15.279   4.833  0.00  0.00     0.033 C 
HETATM   24  C   UNK N   1      22.366  15.758   6.147  0.00  0.00     0.127 C 
HETATM   25  C   UNK N   1      21.907  15.030   3.794  0.00  0.00    -0.051 C 
HETATM   26  C   UNK N   1      21.217  14.834   6.613  0.00  0.00     0.241 C 
HETATM   27  N   UNK N   1      20.127  14.754   5.623  0.00  0.00     0.093 N 
HETATM   28  C   UNK N   1      21.676  13.404   6.933  0.00  0.00     0.078 C 
HETATM   29  C   UNK N   1      20.489  14.659   4.193  0.00  0.00     0.306 C 
HETATM   30  C   UNK N   1      19.142  15.812   5.792  0.00  0.00     0.310 C 
HETATM   31  C   UNK N   1      22.902  13.346   7.794  0.00  0.00    -0.020 A 
HETATM   32  C   UNK N   1      24.230  13.559   7.402  0.00  0.00     0.025 A 
HETATM   33  C   UNK N   1      22.957  12.897   9.093  0.00  0.00    -0.001 A 
HETATM   34  N   UNK N   1      25.068  13.272   8.437  0.00  0.00    -0.358 N 
HETATM   35  C   UNK N   1      24.278  12.872   9.455  0.00  0.00     0.043 A 
HETATM   36  H   UNK N   1      26.050  13.341   8.442  0.00  0.00     0.166 HD
HETATM   37  C   UNK N   1      24.690  12.391  10.696  0.00  0.00     0.030 A 
HETATM   38  C   UNK N   1      23.699  11.929  11.585  0.00  0.00     0.002 A 
HETATM   39  C   UNK N   1      22.336  11.955  11.211  0.00  0.00     0.001 A 
HETATM   40  C   UNK N   1      21.953  12.443   9.947  0.00  0.00     0.014 A 
HETATM   41  C   UNK N   1      22.223  14.904   2.493  0.00  0.00    -0.026 C 
HETATM   42  C   UNK N   1      23.608  15.107   1.959  0.00  0.00     0.036 C 
BRANCH  24  43
HETATM   43  C   UNK N   1      21.973  17.207   5.996  0.00  0.00     0.265 C 
HETATM   44  O   UNK N   1      21.417  17.776   6.924  0.00  0.00    -0.265 OA
BRANCH  43  45
HETATM   45  O   UNK N   1      22.334  17.893   4.882  0.00  0.00    -0.326 OA
HETATM   46  C   UNK N   1      21.467  18.704   4.190  0.00  0.00     0.213 C 
ENDBRANCH  43  45
ENDBRANCH  24  43
ENDBRANCH  18  21
BRANCH  19  47
HETATM   47  O   UNK N   1      27.464  12.917   5.064  0.00  0.00    -0.355 OA
HETATM   48  C   UNK N   1      28.666  12.792   4.408  0.00  0.00     0.210 C 
ENDBRANCH  19  47
BRANCH   4  49
HETATM   49  C   UNK N   1      22.922   7.108   6.625  0.00  0.00     0.275 C 
HETATM   50  O   UNK N   1      23.262   7.630   7.681  0.00  0.00    -0.264 OA
BRANCH  49  51
HETATM   51  O   UNK N   1      21.645   6.664   6.470  0.00  0.00    -0.326 OA
HETATM   52  C   UNK N   1      20.660   7.422   5.882  0.00  0.00     0.213 C 
ENDBRANCH  49  51
ENDBRANCH   4  49
BRANCH   6  53
HETATM   53  C   UNK N   1      25.883   4.535   8.229  0.00  0.00     0.002 C 
HETATM   54  C   UNK N   1      26.707   5.650   8.855  0.00  0.00     0.005 C 
ENDBRANCH   6  53
TORSDOF 7
ENDMDL
MODEL 5
REMARK VINA RESULT:      -7.5     13.873     17.128
REMARK  7 active torsions:
REMARK  status: ('A' for Active; 'I' for Inactive)
REMARK    1  A    between atoms: O_1  and  C_21 
REMARK    2  A    between atoms: O_3  and  C_31 
REMARK    3  A    between atoms: O_4  and  C_42 
REMARK    4  A    between atoms: C_11  and  C_21 
REMARK    5  A    between atoms: C_13  and  C_19 
REMARK    6  A    between atoms: C_28  and  C_29 
REMARK    7  A    between atoms: C_33  and  C_42 
ROOT
HETATM    1  N   UNK N   1      26.678  29.034  -3.637  0.00  0.00    -0.406 N 
HETATM    2  N   UNK N   1      28.410  26.654  -6.847  0.00  0.00    -0.357 N 
HETATM    3  C   UNK N   1      28.019  28.463  -3.846  0.00  0.00     0.107 C 
HETATM    4  C   UNK N   1      28.458  28.585  -5.354  0.00  0.00     0.111 C 
HETATM    5  C   UNK N   1      27.867  30.936  -4.679  0.00  0.00     0.005 C 
HETATM    6  C   UNK N   1      28.975  29.344  -3.023  0.00  0.00     0.010 C 
HETATM    7  C   UNK N   1      28.300  30.037  -5.842  0.00  0.00     0.034 C 
HETATM    8  C   UNK N   1      28.874  30.810  -3.505  0.00  0.00     0.013 C 
HETATM    9  C   UNK N   1      26.500  30.382  -4.223  0.00  0.00     0.122 C 
HETATM   10  C   UNK N   1      27.694  27.560  -6.166  0.00  0.00     0.037 A 
HETATM   11  C   UNK N   1      25.563  28.102  -3.756  0.00  0.00     0.122 C 
HETATM   12  C   UNK N   1      26.412  27.043  -5.898  0.00  0.00    -0.020 A 
HETATM   13  C   UNK N   1      25.270  27.687  -5.178  0.00  0.00     0.061 C 
HETATM   14  C   UNK N   1      26.469  25.721  -6.307  0.00  0.00     0.002 A 
HETATM   15  C   UNK N   1      27.682  25.574  -6.893  0.00  0.00     0.044 A 
HETATM   16  C   UNK N   1      25.645  24.611  -6.097  0.00  0.00     0.051 A 
HETATM   17  C   UNK N   1      28.172  24.397  -7.296  0.00  0.00     0.041 A 
HETATM   18  C   UNK N   1      27.453  23.236  -7.089  0.00  0.00    -0.013 A 
HETATM   19  C   UNK N   1      26.155  23.324  -6.474  0.00  0.00     0.076 A 
HETATM   20  H   UNK N   1      29.306  26.778  -7.236  0.00  0.00     0.166 HD
ENDROOT
BRANCH  18  21
HETATM   21  C   UNK N   1      28.070  21.951  -7.613  0.00  0.00     0.072 C 
HETATM   22  C   UNK N   1      28.330  22.382  -9.034  0.00  0.00     0.025 C 
HETATM   23  C   UNK N   1      28.792  21.413 -10.079  0.00  0.00     0.033 C 
HETATM   24  C   UNK N   1      30.070  20.673  -9.694  0.00  0.00     0.127 C 
HETATM   25  C   UNK N   1      29.019  22.301 -11.281  0.00  0.00    -0.051 C 
HETATM   26  C   UNK N   1      31.272  21.636  -9.566  0.00  0.00     0.241 C 
HETATM   27  N   UNK N   1      31.543  22.363 -10.821  0.00  0.00     0.093 N 
HETATM   28  C   UNK N   1      31.107  22.671  -8.443  0.00  0.00     0.078 C 
HETATM   29  C   UNK N   1      30.392  22.870 -11.596  0.00  0.00     0.306 C 
HETATM   30  C   UNK N   1      32.425  21.624 -11.712  0.00  0.00     0.310 C 
HETATM   31  C   UNK N   1      30.650  22.078  -7.144  0.00  0.00    -0.020 A 
HETATM   32  C   UNK N   1      29.354  21.672  -6.801  0.00  0.00     0.025 A 
HETATM   33  C   UNK N   1      31.393  21.990  -5.990  0.00  0.00    -0.001 A 
HETATM   34  N   UNK N   1      29.312  21.326  -5.485  0.00  0.00    -0.358 N 
HETATM   35  C   UNK N   1      30.559  21.525  -5.009  0.00  0.00     0.043 A 
HETATM   36  H   UNK N   1      28.532  20.997  -4.982  0.00  0.00     0.166 HD
HETATM   37  C   UNK N   1      30.982  21.390  -3.687  0.00  0.00     0.030 A 
HETATM   38  C   UNK N   1      32.311  21.746  -3.384  0.00  0.00     0.002 A 
HETATM   39  C   UNK N   1      33.172  22.227  -4.397  0.00  0.00     0.001 A 
HETATM   40  C   UNK N   1      32.712  22.355  -5.721  0.00  0.00     0.014 A 
HETATM   41  C   UNK N   1      27.982  22.802 -11.976  0.00  0.00    -0.026 C 
HETATM   42  C   UNK N   1      26.554  22.441 -11.698  0.00  0.00     0.036 C 
BRANCH  24  43
HETATM   43  C   UNK N   1      30.285  19.542 -10.671  0.00  0.00     0.265 C 
HETATM   44  O   UNK N   1      31.251  18.806 -10.531  0.00  0.00    -0.265 OA
BRANCH  43  45
HETATM   45  O   UNK N   1      29.353  19.284 -11.623  0.00  0.00    -0.326 OA
HETATM   46  C   UNK N   1      29.312  18.108 -12.331  0.00  0.00     0.213 C 
ENDBRANCH  43  45
ENDBRANCH  24  43
ENDBRANCH  18  21
BRANCH  19  47
HETATM   47  O   UNK N   1      25.447  22.191  -6.249  0.00  0.00    -0.355 OA
HETATM   48  C   UNK N   1      24.568  21.657  -7.162  0.00  0.00     0.210 C 
ENDBRANCH  19  47
BRANCH   4  49
HETATM   49  C   UNK N   1      29.947  28.186  -5.463  0.00  0.00     0.275 C 
HETATM   50  O   UNK N   1      30.680  28.788  -6.240  0.00  0.00    -0.264 OA
BRANCH  49  51
HETATM   51  O   UNK N   1      30.376  27.032  -4.884  0.00  0.00    -0.326 OA
HETATM   52  C   UNK N   1      31.666  26.858  -4.439  0.00  0.00     0.213 C 
ENDBRANCH  49  51
ENDBRANCH   4  49
BRANCH   6  53
HETATM   53  C   UNK N   1      28.809  29.190  -1.506  0.00  0.00     0.002 C 
HETATM   54  C   UNK N   1      28.428  30.482  -0.799  0.00  0.00     0.005 C 
ENDBRANCH   6  53
TORSDOF 7
ENDMDL
MODEL 6
REMARK VINA RESULT:      -7.4     17.911     22.215
REMARK  7 active torsions:
REMARK  status: ('A' for Active; 'I' for Inactive)
REMARK    1  A    between atoms: O_1  and  C_21 
REMARK    2  A    between atoms: O_3  and  C_31 
REMARK    3  A    between atoms: O_4  and  C_42 
REMARK    4  A    between atoms: C_11  and  C_21 
REMARK    5  A    between atoms: C_13  and  C_19 
REMARK    6  A    between atoms: C_28  and  C_29 
REMARK    7  A    between atoms: C_33  and  C_42 
ROOT
HETATM    1  N   UNK N   1      43.790   8.925  19.073  0.00  0.00    -0.406 N 
HETATM    2  N   UNK N   1      39.844   7.494  20.236  0.00  0.00    -0.357 N 
HETATM    3  C   UNK N   1      42.750   9.473  19.959  0.00  0.00     0.107 C 
HETATM    4  C   UNK N   1      42.067   8.331  20.804  0.00  0.00     0.111 C 
HETATM    5  C   UNK N   1      44.525   8.078  21.278  0.00  0.00     0.005 C 
HETATM    6  C   UNK N   1      43.492  10.387  20.950  0.00  0.00     0.010 C 
HETATM    7  C   UNK N   1      43.134   7.483  21.521  0.00  0.00     0.034 C 
HETATM    8  C   UNK N   1      44.553   9.566  21.719  0.00  0.00     0.013 C 
HETATM    9  C   UNK N   1      44.736   8.010  19.749  0.00  0.00     0.122 C 
HETATM   10  C   UNK N   1      41.141   7.546  19.898  0.00  0.00     0.037 A 
HETATM   11  C   UNK N   1      43.356   8.562  17.728  0.00  0.00     0.122 C 
HETATM   12  C   UNK N   1      41.274   7.343  18.511  0.00  0.00    -0.020 A 
HETATM   13  C   UNK N   1      42.519   7.307  17.682  0.00  0.00     0.061 C 
HETATM   14  C   UNK N   1      39.977   7.339  18.026  0.00  0.00     0.002 A 
HETATM   15  C   UNK N   1      39.180   7.400  19.119  0.00  0.00     0.044 A 
HETATM   16  C   UNK N   1      39.429   7.432  16.743  0.00  0.00     0.051 A 
HETATM   17  C   UNK N   1      37.853   7.556  19.061  0.00  0.00     0.041 A 
HETATM   18  C   UNK N   1      37.223   7.704  17.841  0.00  0.00    -0.013 A 
HETATM   19  C   UNK N   1      38.014   7.646  16.640  0.00  0.00     0.076 A 
HETATM   20  H   UNK N   1      39.468   7.521  21.146  0.00  0.00     0.166 HD
ENDROOT
BRANCH  18  21
HETATM   21  C   UNK N   1      35.710   7.838  17.868  0.00  0.00     0.072 C 
HETATM   22  C   UNK N   1      35.453   7.267  19.239  0.00  0.00     0.025 C 
HETATM   23  C   UNK N   1      34.064   6.995  19.730  0.00  0.00     0.033 C 
HETATM   24  C   UNK N   1      33.154   8.218  19.680  0.00  0.00     0.127 C 
HETATM   25  C   UNK N   1      34.296   6.548  21.156  0.00  0.00    -0.051 C 
HETATM   26  C   UNK N   1      33.642   9.333  20.634  0.00  0.00     0.241 C 
HETATM   27  N   UNK N   1      33.699   8.883  22.038  0.00  0.00     0.093 N 
HETATM   28  C   UNK N   1      35.020   9.897  20.258  0.00  0.00     0.078 C 
HETATM   29  C   UNK N   1      34.217   7.527  22.314  0.00  0.00     0.306 C 
HETATM   30  C   UNK N   1      32.431   9.056  22.730  0.00  0.00     0.310 C 
HETATM   31  C   UNK N   1      35.155  10.228  18.802  0.00  0.00    -0.020 A 
HETATM   32  C   UNK N   1      35.361   9.337  17.741  0.00  0.00     0.025 A 
HETATM   33  C   UNK N   1      35.279  11.489  18.267  0.00  0.00    -0.001 A 
HETATM   34  N   UNK N   1      35.580  10.032  16.590  0.00  0.00    -0.358 N 
HETATM   35  C   UNK N   1      35.526  11.337  16.929  0.00  0.00     0.043 A 
HETATM   36  H   UNK N   1      35.744   9.659  15.694  0.00  0.00     0.166 HD
HETATM   37  C   UNK N   1      35.778  12.429  16.100  0.00  0.00     0.030 A 
HETATM   38  C   UNK N   1      35.767  13.712  16.681  0.00  0.00     0.002 A 
HETATM   39  C   UNK N   1      35.512  13.869  18.063  0.00  0.00     0.001 A 
HETATM   40  C   UNK N   1      35.266  12.745  18.874  0.00  0.00     0.014 A 
HETATM   41  C   UNK N   1      34.802   5.331  21.425  0.00  0.00    -0.026 C 
HETATM   42  C   UNK N   1      35.063   4.297  20.372  0.00  0.00     0.036 C 
BRANCH  24  43
HETATM   43  C   UNK N   1      31.732   7.773  19.925  0.00  0.00     0.265 C 
HETATM   44  O   UNK N   1      30.838   8.607  19.941  0.00  0.00    -0.265 OA
BRANCH  43  45
HETATM   45  O   UNK N   1      31.444   6.450  20.016  0.00  0.00    -0.326 OA
HETATM   46  C   UNK N   1      30.812   5.896  21.102  0.00  0.00     0.213 C 
ENDBRANCH  43  45
ENDBRANCH  24  43
ENDBRANCH  18  21
BRANCH  19  47
HETATM   47  O   UNK N   1      37.410   7.808  15.438  0.00  0.00    -0.355 OA
HETATM   48  C   UNK N   1      38.004   8.449  14.375  0.00  0.00     0.210 C 
ENDBRANCH  19  47
BRANCH   4  49
HETATM   49  C   UNK N   1      41.159   8.988  21.868  0.00  0.00     0.275 C 
HETATM   50  O   UNK N   1      41.074   8.487  22.984  0.00  0.00    -0.264 OA
BRANCH  49  51
HETATM   51  O   UNK N   1      40.289   9.965  21.497  0.00  0.00    -0.326 OA
HETATM   52  C   UNK N   1      39.298  10.434  22.328  0.00  0.00     0.213 C 
ENDBRANCH  49  51
ENDBRANCH   4  49
BRANCH   6  53
HETATM   53  C   UNK N   1      44.055  11.663  20.312  0.00  0.00     0.002 C 
HETATM   54  C   UNK N   1      42.989  12.690  19.957  0.00  0.00     0.005 C 
ENDBRANCH   6  53
TORSDOF 7
ENDMDL
MODEL 7
REMARK VINA RESULT:      -7.0     17.629     20.903
REMARK  7 active torsions:
REMARK  status: ('A' for Active; 'I' for Inactive)
REMARK    1  A    between atoms: O_1  and  C_21 
REMARK    2  A    between atoms: O_3  and  C_31 
REMARK    3  A    between atoms: O_4  and  C_42 
REMARK    4  A    between atoms: C_11  and  C_21 
REMARK    5  A    between atoms: C_13  and  C_19 
REMARK    6  A    between atoms: C_28  and  C_29 
REMARK    7  A    between atoms: C_33  and  C_42 
ROOT
HETATM    1  N   UNK N   1      38.203   9.230  13.141  0.00  0.00    -0.406 N 
HETATM    2  N   UNK N   1      35.595   7.988  16.402  0.00  0.00    -0.357 N 
HETATM    3  C   UNK N   1      38.375   8.277  14.251  0.00  0.00     0.107 C 
HETATM    4  C   UNK N   1      37.049   7.466  14.511  0.00  0.00     0.111 C 
HETATM    5  C   UNK N   1      37.541   7.101  12.070  0.00  0.00     0.005 C 
HETATM    6  C   UNK N   1      39.435   7.271  13.770  0.00  0.00     0.010 C 
HETATM    7  C   UNK N   1      36.542   6.835  13.201  0.00  0.00     0.034 C 
HETATM    8  C   UNK N   1      38.949   6.586  12.471  0.00  0.00     0.013 C 
HETATM    9  C   UNK N   1      37.595   8.638  11.929  0.00  0.00     0.122 C 
HETATM   10  C   UNK N   1      36.052   8.373  15.201  0.00  0.00     0.037 A 
HETATM   11  C   UNK N   1      37.774  10.573  13.515  0.00  0.00     0.122 C 
HETATM   12  C   UNK N   1      35.950   9.773  15.086  0.00  0.00    -0.020 A 
HETATM   13  C   UNK N   1      36.325  10.651  13.934  0.00  0.00     0.061 C 
HETATM   14  C   UNK N   1      35.568  10.207  16.345  0.00  0.00     0.002 A 
HETATM   15  C   UNK N   1      35.344   9.082  17.064  0.00  0.00     0.044 A 
HETATM   16  C   UNK N   1      35.537  11.461  16.961  0.00  0.00     0.051 A 
HETATM   17  C   UNK N   1      35.090   9.081  18.377  0.00  0.00     0.041 A 
HETATM   18  C   UNK N   1      35.083  10.266  19.085  0.00  0.00    -0.013 A 
HETATM   19  C   UNK N   1      35.313  11.498  18.378  0.00  0.00     0.076 A 
HETATM   20  H   UNK N   1      35.473   7.064  16.720  0.00  0.00     0.166 HD
ENDROOT
BRANCH  18  21
HETATM   21  C   UNK N   1      34.748  10.174  20.564  0.00  0.00     0.072 C 
HETATM   22  C   UNK N   1      33.842   8.970  20.520  0.00  0.00     0.025 C 
HETATM   23  C   UNK N   1      33.066   8.525  21.722  0.00  0.00     0.033 C 
HETATM   24  C   UNK N   1      33.941   8.265  22.945  0.00  0.00     0.127 C 
HETATM   25  C   UNK N   1      32.409   7.250  21.242  0.00  0.00    -0.051 C 
HETATM   26  C   UNK N   1      34.914   7.087  22.711  0.00  0.00     0.241 C 
HETATM   27  N   UNK N   1      34.208   5.830  22.398  0.00  0.00     0.093 N 
HETATM   28  C   UNK N   1      35.933   7.351  21.592  0.00  0.00     0.078 C 
HETATM   29  C   UNK N   1      33.043   5.892  21.490  0.00  0.00     0.306 C 
HETATM   30  C   UNK N   1      33.838   5.087  23.593  0.00  0.00     0.310 C 
HETATM   31  C   UNK N   1      36.598   8.691  21.691  0.00  0.00    -0.020 A 
HETATM   32  C   UNK N   1      36.063   9.936  21.338  0.00  0.00     0.025 A 
HETATM   33  C   UNK N   1      37.923   8.916  21.983  0.00  0.00    -0.001 A 
HETATM   34  N   UNK N   1      37.026  10.896  21.434  0.00  0.00    -0.358 N 
HETATM   35  C   UNK N   1      38.148  10.258  21.827  0.00  0.00     0.043 A 
HETATM   36  H   UNK N   1      36.924  11.858  21.253  0.00  0.00     0.166 HD
HETATM   37  C   UNK N   1      39.418  10.812  21.975  0.00  0.00     0.030 A 
HETATM   38  C   UNK N   1      40.480   9.945  22.300  0.00  0.00     0.002 A 
HETATM   39  C   UNK N   1      40.248   8.560  22.460  0.00  0.00     0.001 A 
HETATM   40  C   UNK N   1      38.953   8.031  22.299  0.00  0.00     0.014 A 
HETATM   41  C   UNK N   1      31.372   7.287  20.386  0.00  0.00    -0.026 C 
HETATM   42  C   UNK N   1      30.720   8.559  19.938  0.00  0.00     0.036 C 
BRANCH  24  43
HETATM   43  C   UNK N   1      33.048   8.099  24.151  0.00  0.00     0.265 C 
HETATM   44  O   UNK N   1      33.515   7.636  25.182  0.00  0.00    -0.265 OA
BRANCH  43  45
HETATM   45  O   UNK N   1      31.773   8.563  24.117  0.00  0.00    -0.326 OA
HETATM   46  C   UNK N   1      31.187   9.218  25.172  0.00  0.00     0.213 C 
ENDBRANCH  43  45
ENDBRANCH  24  43
ENDBRANCH  18  21
BRANCH  19  47
HETATM   47  O   UNK N   1      35.326  12.667  19.065  0.00  0.00    -0.355 OA
HETATM   48  C   UNK N   1      35.312  13.900  18.456  0.00  0.00     0.210 C 
ENDBRANCH  19  47
BRANCH   4  49
HETATM   49  C   UNK N   1      37.359   6.335  15.518  0.00  0.00     0.275 C 
HETATM   50  O   UNK N   1      36.821   5.241  15.384  0.00  0.00    -0.264 OA
BRANCH  49  51
HETATM   51  O   UNK N   1      38.030   6.624  16.665  0.00  0.00    -0.326 OA
HETATM   52  C   UNK N   1      39.033   5.824  17.162  0.00  0.00     0.213 C 
ENDBRANCH  49  51
ENDBRANCH   4  49
BRANCH   6  53
HETATM   53  C   UNK N   1      40.844   7.865  13.654  0.00  0.00     0.002 C 
HETATM   54  C   UNK N   1      41.319   8.562  14.920  0.00  0.00     0.005 C 
ENDBRANCH   6  53
TORSDOF 7
ENDMDL
MODEL 8
REMARK VINA RESULT:      -7.0      8.432     13.385
REMARK  7 active torsions:
REMARK  status: ('A' for Active; 'I' for Inactive)
REMARK    1  A    between atoms: O_1  and  C_21 
REMARK    2  A    between atoms: O_3  and  C_31 
REMARK    3  A    between atoms: O_4  and  C_42 
REMARK    4  A    between atoms: C_11  and  C_21 
REMARK    5  A    between atoms: C_13  and  C_19 
REMARK    6  A    between atoms: C_28  and  C_29 
REMARK    7  A    between atoms: C_33  and  C_42 
ROOT
HETATM    1  N   UNK N   1      35.441  12.920  12.417  0.00  0.00    -0.406 N 
HETATM    2  N   UNK N   1      36.710  12.766   8.253  0.00  0.00    -0.357 N 
HETATM    3  C   UNK N   1      35.244  11.927  11.349  0.00  0.00     0.107 C 
HETATM    4  C   UNK N   1      36.546  11.767  10.475  0.00  0.00     0.111 C 
HETATM    5  C   UNK N   1      37.319  11.366  12.836  0.00  0.00     0.005 C 
HETATM    6  C   UNK N   1      35.014  10.586  12.069  0.00  0.00     0.010 C 
HETATM    7  C   UNK N   1      37.766  11.501  11.376  0.00  0.00     0.034 C 
HETATM    8  C   UNK N   1      36.236  10.262  12.961  0.00  0.00     0.013 C 
HETATM    9  C   UNK N   1      36.684  12.728  13.196  0.00  0.00     0.122 C 
HETATM   10  C   UNK N   1      36.678  12.979   9.576  0.00  0.00     0.037 A 
HETATM   11  C   UNK N   1      35.063  14.291  12.091  0.00  0.00     0.122 C 
HETATM   12  C   UNK N   1      36.217  14.285   9.832  0.00  0.00    -0.020 A 
HETATM   13  C   UNK N   1      36.023  14.974  11.146  0.00  0.00     0.061 C 
HETATM   14  C   UNK N   1      35.818  14.769   8.596  0.00  0.00     0.002 A 
HETATM   15  C   UNK N   1      36.175  13.818   7.701  0.00  0.00     0.044 A 
HETATM   16  C   UNK N   1      35.057  15.871   8.195  0.00  0.00     0.051 A 
HETATM   17  C   UNK N   1      35.834  13.852   6.409  0.00  0.00     0.041 A 
HETATM   18  C   UNK N   1      35.044  14.877   5.925  0.00  0.00    -0.013 A 
HETATM   19  C   UNK N   1      34.633  15.921   6.825  0.00  0.00     0.076 A 
HETATM   20  H   UNK N   1      37.066  11.973   7.790  0.00  0.00     0.166 HD
ENDROOT
BRANCH  18  21
HETATM   21  C   UNK N   1      34.738  14.856   4.437  0.00  0.00     0.072 C 
HETATM   22  C   UNK N   1      35.592  13.678   4.043  0.00  0.00     0.025 C 
HETATM   23  C   UNK N   1      35.805  13.306   2.607  0.00  0.00     0.033 C 
HETATM   24  C   UNK N   1      34.505  13.071   1.843  0.00  0.00     0.127 C 
HETATM   25  C   UNK N   1      36.613  12.031   2.709  0.00  0.00    -0.051 C 
HETATM   26  C   UNK N   1      33.726  11.857   2.399  0.00  0.00     0.241 C 
HETATM   27  N   UNK N   1      34.510  10.609   2.329  0.00  0.00     0.093 N 
HETATM   28  C   UNK N   1      33.259  12.045   3.850  0.00  0.00     0.078 C 
HETATM   29  C   UNK N   1      35.945  10.668   2.677  0.00  0.00     0.306 C 
HETATM   30  C   UNK N   1      34.359   9.928   1.052  0.00  0.00     0.310 C 
HETATM   31  C   UNK N   1      32.601  13.368   4.101  0.00  0.00    -0.020 A 
HETATM   32  C   UNK N   1      33.223  14.613   4.264  0.00  0.00     0.025 A 
HETATM   33  C   UNK N   1      31.272  13.568   4.394  0.00  0.00    -0.001 A 
HETATM   34  N   UNK N   1      32.298  15.547   4.622  0.00  0.00    -0.358 N 
HETATM   35  C   UNK N   1      31.120  14.895   4.696  0.00  0.00     0.043 A 
HETATM   36  H   UNK N   1      32.457  16.504   4.792  0.00  0.00     0.166 HD
HETATM   37  C   UNK N   1      29.897  15.418   5.113  0.00  0.00     0.030 A 
HETATM   38  C   UNK N   1      28.804  14.535   5.213  0.00  0.00     0.002 A 
HETATM   39  C   UNK N   1      28.961  13.165   4.902  0.00  0.00     0.001 A 
HETATM   40  C   UNK N   1      30.211  12.667   4.488  0.00  0.00     0.014 A 
HETATM   41  C   UNK N   1      37.911  12.062   3.061  0.00  0.00    -0.026 C 
HETATM   42  C   UNK N   1      38.679  13.333   3.263  0.00  0.00     0.036 C 
BRANCH  24  43
HETATM   43  C   UNK N   1      34.820  12.982   0.369  0.00  0.00     0.265 C 
HETATM   44  O   UNK N   1      35.988  12.968   0.007  0.00  0.00    -0.265 OA
BRANCH  43  45
HETATM   45  O   UNK N   1      33.816  12.809  -0.527  0.00  0.00    -0.326 OA
HETATM   46  C   UNK N   1      34.039  12.529  -1.854  0.00  0.00     0.213 C 
ENDBRANCH  43  45
ENDBRANCH  24  43
ENDBRANCH  18  21
BRANCH  19  47
HETATM   47  O   UNK N   1      33.842  16.922   6.367  0.00  0.00    -0.355 OA
HETATM   48  C   UNK N   1      33.354  17.926   7.170  0.00  0.00     0.210 C 
ENDBRANCH  19  47
BRANCH   4  49
HETATM   49  C   UNK N   1      36.356  10.559   9.530  0.00  0.00     0.275 C 
HETATM   50  O   UNK N   1      37.306   9.824   9.289  0.00  0.00    -0.264 OA
BRANCH  49  51
HETATM   51  O   UNK N   1      35.216  10.456   8.794  0.00  0.00    -0.326 OA
HETATM   52  C   UNK N   1      34.755   9.258   8.301  0.00  0.00     0.213 C 
ENDBRANCH  49  51
ENDBRANCH   4  49
BRANCH   6  53
HETATM   53  C   UNK N   1      33.677  10.505  12.814  0.00  0.00     0.002 C 
HETATM   54  C   UNK N   1      33.818  10.546  14.329  0.00  0.00     0.005 C 
ENDBRANCH   6  53
TORSDOF 7
ENDMDL
MODEL 9
REMARK VINA RESULT:      -6.9     10.376     15.230
REMARK  7 active torsions:
REMARK  status: ('A' for Active; 'I' for Inactive)
REMARK    1  A    between atoms: O_1  and  C_21 
REMARK    2  A    between atoms: O_3  and  C_31 
REMARK    3  A    between atoms: O_4  and  C_42 
REMARK    4  A    between atoms: C_11  and  C_21 
REMARK    5  A    between atoms: C_13  and  C_19 
REMARK    6  A    between atoms: C_28  and  C_29 
REMARK    7  A    between atoms: C_33  and  C_42 
ROOT
HETATM    1  N   UNK N   1      31.990  15.550   6.776  0.00  0.00    -0.406 N 
HETATM    2  N   UNK N   1      35.147  13.245   8.699  0.00  0.00    -0.357 N 
HETATM    3  C   UNK N   1      32.534  15.548   8.144  0.00  0.00     0.107 C 
HETATM    4  C   UNK N   1      34.101  15.377   8.131  0.00  0.00     0.111 C 
HETATM    5  C   UNK N   1      33.672  17.359   6.641  0.00  0.00     0.005 C 
HETATM    6  C   UNK N   1      32.235  16.948   8.708  0.00  0.00     0.010 C 
HETATM    7  C   UNK N   1      34.744  16.413   7.190  0.00  0.00     0.034 C 
HETATM    8  C   UNK N   1      32.895  18.020   7.810  0.00  0.00     0.013 C 
HETATM    9  C   UNK N   1      32.701  16.457   5.847  0.00  0.00     0.122 C 
HETATM   10  C   UNK N   1      34.429  13.936   7.801  0.00  0.00     0.037 A 
HETATM   11  C   UNK N   1      31.574  14.253   6.253  0.00  0.00     0.122 C 
HETATM   12  C   UNK N   1      33.668  13.044   7.021  0.00  0.00    -0.020 A 
HETATM   13  C   UNK N   1      32.727  13.346   5.897  0.00  0.00     0.061 C 
HETATM   14  C   UNK N   1      33.845  11.807   7.620  0.00  0.00     0.002 A 
HETATM   15  C   UNK N   1      34.767  12.003   8.593  0.00  0.00     0.044 A 
HETATM   16  C   UNK N   1      33.190  10.578   7.501  0.00  0.00     0.051 A 
HETATM   17  C   UNK N   1      35.106  11.072   9.490  0.00  0.00     0.041 A 
HETATM   18  C   UNK N   1      34.481   9.840   9.484  0.00  0.00    -0.013 A 
HETATM   19  C   UNK N   1      33.494   9.568   8.474  0.00  0.00     0.076 A 
HETATM   20  H   UNK N   1      35.826  13.603   9.316  0.00  0.00     0.166 HD
ENDROOT
BRANCH  18  21
HETATM   21  C   UNK N   1      34.957   8.831  10.515  0.00  0.00     0.072 C 
HETATM   22  C   UNK N   1      36.204   8.356   9.814  0.00  0.00     0.025 C 
HETATM   23  C   UNK N   1      37.001   7.195  10.326  0.00  0.00     0.033 C 
HETATM   24  C   UNK N   1      37.452   7.362  11.774  0.00  0.00     0.127 C 
HETATM   25  C   UNK N   1      38.186   7.164   9.388  0.00  0.00    -0.051 C 
HETATM   26  C   UNK N   1      38.432   8.547  11.934  0.00  0.00     0.241 C 
HETATM   27  N   UNK N   1      39.645   8.386  11.111  0.00  0.00     0.093 N 
HETATM   28  C   UNK N   1      37.804   9.907  11.597  0.00  0.00     0.078 C 
HETATM   29  C   UNK N   1      39.490   7.860   9.739  0.00  0.00     0.306 C 
HETATM   30  C   UNK N   1      40.685   7.631  11.793  0.00  0.00     0.310 C 
HETATM   31  C   UNK N   1      36.464  10.124  12.233  0.00  0.00    -0.020 A 
HETATM   32  C   UNK N   1      35.233   9.588  11.832  0.00  0.00     0.025 A 
HETATM   33  C   UNK N   1      36.177  11.034  13.224  0.00  0.00    -0.001 A 
HETATM   34  N   UNK N   1      34.229  10.137  12.572  0.00  0.00    -0.358 N 
HETATM   35  C   UNK N   1      34.821  11.012  13.411  0.00  0.00     0.043 A 
HETATM   36  H   UNK N   1      33.267   9.936  12.507  0.00  0.00     0.166 HD
HETATM   37  C   UNK N   1      34.188  11.878  14.301  0.00  0.00     0.030 A 
HETATM   38  C   UNK N   1      34.991  12.787  15.017  0.00  0.00     0.002 A 
HETATM   39  C   UNK N   1      36.392  12.810  14.823  0.00  0.00     0.001 A 
HETATM   40  C   UNK N   1      37.000  11.924  13.913  0.00  0.00     0.014 A 
HETATM   41  C   UNK N   1      38.056   6.723   8.124  0.00  0.00    -0.026 C 
HETATM   42  C   UNK N   1      36.789   6.133   7.585  0.00  0.00     0.036 C 
BRANCH  24  43
HETATM   43  C   UNK N   1      37.991   6.041  12.267  0.00  0.00     0.265 C 
HETATM   44  O   UNK N   1      38.279   5.916  13.449  0.00  0.00    -0.265 OA
BRANCH  43  45
HETATM   45  O   UNK N   1      38.050   4.978  11.425  0.00  0.00    -0.326 OA
HETATM   46  C   UNK N   1      39.150   4.161  11.329  0.00  0.00     0.213 C 
ENDBRANCH  43  45
ENDBRANCH  24  43
ENDBRANCH  18  21
BRANCH  19  47
HETATM   47  O   UNK N   1      32.860   8.370   8.469  0.00  0.00    -0.355 OA
HETATM   48  C   UNK N   1      33.179   7.351   7.601  0.00  0.00     0.210 C 
ENDBRANCH  19  47
BRANCH   4  49
HETATM   49  C   UNK N   1      34.630  15.614   9.564  0.00  0.00     0.275 C 
HETATM   50  O   UNK N   1      35.690  16.208   9.727  0.00  0.00    -0.264 OA
BRANCH  49  51
HETATM   51  O   UNK N   1      34.049  14.965  10.609  0.00  0.00    -0.326 OA
HETATM   52  C   UNK N   1      34.753  14.563  11.719  0.00  0.00     0.213 C 
ENDBRANCH  49  51
ENDBRANCH   4  49
BRANCH   6  53
HETATM   53  C   UNK N   1      30.746  17.205   8.970  0.00  0.00     0.002 C 
HETATM   54  C   UNK N   1      30.388  18.681   9.060  0.00  0.00     0.005 C 
ENDBRANCH   6  53
TORSDOF 7
ENDMDL
