REMARK  5 active torsions:
REMARK  status: ('A' for Active; 'I' for Inactive)
REMARK    1  A    between atoms: O_3  and  C_15 
REMARK    2  A    between atoms: N_5  and  C_13 
REMARK    3  A    between atoms: C_8  and  C_15 
REMARK    4  A    between atoms: C_9  and  C_14 
REMARK    5  A    between atoms: C_13  and  C_16 
ROOT
HETATM    1  N   UNK N   1       6.966   0.534  -0.299  0.00  0.00     0.102 N 
HETATM    2  C   UNK N   1       7.247  -0.885  -0.514  0.00  0.00     0.238 C 
HETATM    3  C   UNK N   1       6.540   0.554   1.102  0.00  0.00     0.224 C 
HETATM    4  C   UNK N   1       5.934  -1.735  -0.555  0.00  0.00     0.127 C 
HETATM    5  C   UNK N   1       5.049  -1.487   0.693  0.00  0.00     0.036 C 
HETATM    6  C   UNK N   1       5.133  -0.056   1.253  0.00  0.00     0.046 C 
HETATM    7  C   UNK N   1       8.090  -1.241   0.710  0.00  0.00     0.039 C 
HETATM    8  C   UNK N   1       7.567  -0.320   1.809  0.00  0.00     0.038 C 
ENDROOT
BRANCH   5   9
HETATM    9  C   UNK N   1       3.611  -1.888   0.484  0.00  0.00    -0.053 A 
HETATM   10  C   UNK N   1       3.163  -3.137   0.931  0.00  0.00     0.010 A 
HETATM   11  C   UNK N   1       1.832  -3.521   0.732  0.00  0.00     0.043 A 
HETATM   12  C   UNK N   1       0.936  -2.649   0.108  0.00  0.00     0.116 A 
HETATM   13  F   UNK N   1      -0.354  -3.019  -0.075  0.00  0.00    -0.206 F 
HETATM   14  C   UNK N   1       1.373  -1.394  -0.328  0.00  0.00     0.043 A 
HETATM   15  C   UNK N   1       2.708  -1.018  -0.150  0.00  0.00     0.010 A 
ENDBRANCH   5   9
BRANCH   4  16
HETATM   16  C   UNK N   1       6.233  -3.220  -0.675  0.00  0.00     0.265 C 
HETATM   17  O   UNK N   1       5.306  -4.009  -0.869  0.00  0.00    -0.265 OA
BRANCH  16  18
HETATM   18  O   UNK N   1       7.495  -3.687  -0.534  0.00  0.00    -0.326 OA
HETATM   19  C   UNK N   1       7.801  -5.026  -0.486  0.00  0.00     0.213 C 
ENDBRANCH  16  18
ENDBRANCH   4  16
BRANCH   1  20
HETATM   20  C   UNK N   1       6.013   1.127  -1.246  0.00  0.00     0.301 C 
BRANCH  20  21
HETATM   21  C   UNK N   1       6.250   2.604  -1.361  0.00  0.00     0.009 C 
HETATM   22  C   UNK N   1       5.991   3.417  -0.339  0.00  0.00     0.048 C 
HETATM   23  I   UNK N   1       6.390   5.481  -0.473  0.00  0.00    -0.057 I 
ENDBRANCH  20  21
ENDBRANCH   1  20
TORSDOF 5
