REMARK  1 active torsions:
REMARK  status: ('A' for Active; 'I' for Inactive)
REMARK    1  A    between atoms: C_2  and  C_7 
ROOT
HETATM    1  N   UNK N   1       1.202  -3.178  -0.081  0.00  0.00    -0.420 N 
HETATM    2  C   UNK N   1       2.978  -1.569  -0.395  0.00  0.00     0.008 A 
HETATM    3  C   UNK N   1       3.429  -2.542   0.663  0.00  0.00     0.019 A 
HETATM    4  C   UNK N   1       3.999  -2.637  -0.741  0.00  0.00     0.024 A 
HETATM    5  C   UNK N   1       1.501  -1.849  -0.597  0.00  0.00     0.128 C 
HETATM    6  C   UNK N   1       2.314  -3.565   0.782  0.00  0.00     0.119 C 
HETATM    7  H   UNK N   1       0.371  -3.733  -0.284  0.00  0.00     0.153 HD
ENDROOT
BRANCH   2   8
HETATM    8  C   UNK N   1       3.472  -0.158  -0.167  0.00  0.00    -0.047 A 
HETATM    9  C   UNK N   1       4.846   0.135  -0.154  0.00  0.00     0.008 A 
HETATM   10  C   UNK N   1       5.287   1.452   0.016  0.00  0.00     0.007 A 
HETATM   11  C   UNK N   1       4.359   2.484   0.172  0.00  0.00    -0.062 A 
HETATM   12  C   UNK N   1       2.992   2.201   0.169  0.00  0.00     0.007 A 
HETATM   13  C   UNK N   1       4.827   3.886   0.333  0.00  0.00     0.048 C 
HETATM   14  C   UNK N   1       2.549   0.885  -0.000  0.00  0.00     0.008 A 
ENDBRANCH   2   8
TORSDOF 1
