MODEL 1
REMARK VINA RESULT:      -8.3      0.000      0.000
REMARK  7 active torsions:
REMARK  status: ('A' for Active; 'I' for Inactive)
REMARK    1  A    between atoms: C_5  and  O_21 
REMARK    2  A    between atoms: C_9  and  O_20 
REMARK    3  A    between atoms: C_10  and  C_13 
REMARK       I    between atoms: C_13  and  N_15 
REMARK    4  A    between atoms: N_15  and  C_16 
REMARK    5  A    between atoms: C_16  and  C_17 
REMARK    6  A    between atoms: C_17  and  O_19 
REMARK    7  A    between atoms: O_21  and  C_22 
ROOT
HETATM    1  C   UNK N   1      29.768  17.224   9.274  0.00  0.00     0.069 C 
HETATM    2  C   UNK N   1      30.992  17.290   8.422  0.00  0.00     0.017 A 
HETATM    3  C   UNK N   1      30.905  17.290   7.017  0.00  0.00     0.002 A 
HETATM    4  C   UNK N   1      29.667  17.230   6.341  0.00  0.00     0.051 A 
HETATM    5  C   UNK N   1      29.621  17.233   4.935  0.00  0.00     0.077 A 
HETATM    6  C   UNK N   1      30.826  17.297   4.222  0.00  0.00     0.038 A 
HETATM    7  C   UNK N   1      32.046  17.356   4.877  0.00  0.00     0.018 A 
HETATM    8  C   UNK N   1      32.098  17.353   6.269  0.00  0.00     0.012 A 
HETATM    9  C   UNK N   1      33.334  17.414   6.915  0.00  0.00     0.109 A 
HETATM   10  C   UNK N   1      33.386  17.411   8.324  0.00  0.00     0.135 A 
HETATM   11  N   UNK N   1      32.214  17.350   9.026  0.00  0.00    -0.352 N 
ATOM     12  HN  UNK N   1      32.255  17.348  10.045  1.00  0.00     0.166 HD
ENDROOT
BRANCH  10  13
HETATM   13  C   UNK N   1      34.708  17.476   9.041  0.00  0.00     0.271 C 
HETATM   14  O   UNK N   1      35.292  18.547   9.111  0.00  0.00    -0.266 OA
HETATM   15  N   UNK N   1      35.298  16.401   9.622  0.00  0.00    -0.346 N 
HETATM   16  H   UNK N   1      36.164  16.549  10.067  0.00  0.00     0.163 HD
BRANCH  15  17
HETATM   17  C   UNK N   1      34.766  15.061   9.645  0.00  0.00     0.232 C 
BRANCH  17  18
HETATM   18  C   UNK N   1      34.009  14.818  10.916  0.00  0.00     0.158 C 
HETATM   19  O   UNK N   1      34.576  14.398  11.914  0.00  0.00    -0.649 OA
BRANCH  18  20
HETATM   20  O   UNK N   1      32.688  15.067  10.959  0.00  0.00    -0.775 OA
HETATM   21  H   UNK N   1      32.099  14.555  10.441  0.00  0.00     0.167 HD
ENDBRANCH  18  20
ENDBRANCH  17  18
ENDBRANCH  15  17
ENDBRANCH  10  13
BRANCH   9  22
HETATM   22  O   UNK N   1      34.461  17.474   6.179  0.00  0.00    -0.357 OA
HETATM   23  H   UNK N   1      34.470  17.956   5.375  0.00  0.00     0.217 HD
ENDBRANCH   9  22
BRANCH   5  24
HETATM   24  O   UNK N   1      28.415  17.174   4.299  0.00  0.00    -0.311 OA
BRANCH  24  25
HETATM   25  C   UNK N   1      27.506  18.182   4.122  0.00  0.00     0.076 A 
HETATM   26  C   UNK N   1      26.214  17.858   3.687  0.00  0.00     0.037 A 
HETATM   27  C   UNK N   1      25.257  18.861   3.495  0.00  0.00     0.003 A 
HETATM   28  C   UNK N   1      25.581  20.199   3.737  0.00  0.00     0.000 A 
HETATM   29  C   UNK N   1      26.863  20.536   4.170  0.00  0.00     0.003 A 
HETATM   30  C   UNK N   1      27.815  19.536   4.361  0.00  0.00     0.037 A 
ENDBRANCH  24  25
ENDBRANCH   5  24
TORSDOF 7
ENDMDL
MODEL 2
REMARK VINA RESULT:      -7.9      5.399     10.850
REMARK  7 active torsions:
REMARK  status: ('A' for Active; 'I' for Inactive)
REMARK    1  A    between atoms: C_5  and  O_21 
REMARK    2  A    between atoms: C_9  and  O_20 
REMARK    3  A    between atoms: C_10  and  C_13 
REMARK       I    between atoms: C_13  and  N_15 
REMARK    4  A    between atoms: N_15  and  C_16 
REMARK    5  A    between atoms: C_16  and  C_17 
REMARK    6  A    between atoms: C_17  and  O_19 
REMARK    7  A    between atoms: O_21  and  C_22 
ROOT
HETATM    1  C   UNK N   1      23.535  16.294   5.659  0.00  0.00     0.069 C 
HETATM    2  C   UNK N   1      23.433  17.560   4.874  0.00  0.00     0.017 A 
HETATM    3  C   UNK N   1      24.583  18.276   4.492  0.00  0.00     0.002 A 
HETATM    4  C   UNK N   1      25.884  17.842   4.824  0.00  0.00     0.051 A 
HETATM    5  C   UNK N   1      27.009  18.585   4.422  0.00  0.00     0.077 A 
HETATM    6  C   UNK N   1      26.811  19.763   3.688  0.00  0.00     0.038 A 
HETATM    7  C   UNK N   1      25.537  20.197   3.357  0.00  0.00     0.018 A 
HETATM    8  C   UNK N   1      24.419  19.465   3.752  0.00  0.00     0.012 A 
HETATM    9  C   UNK N   1      23.143  19.915   3.412  0.00  0.00     0.109 A 
HETATM   10  C   UNK N   1      22.012  19.174   3.811  0.00  0.00     0.135 A 
HETATM   11  N   UNK N   1      22.198  18.024   4.528  0.00  0.00    -0.352 N 
ATOM     12  HN  UNK N   1      21.378  17.490   4.815  1.00  0.00     0.166 HD
ENDROOT
BRANCH  10  13
HETATM   13  C   UNK N   1      20.626  19.641   3.455  0.00  0.00     0.271 C 
HETATM   14  O   UNK N   1      20.234  20.715   3.886  0.00  0.00    -0.266 OA
HETATM   15  N   UNK N   1      19.774  18.930   2.672  0.00  0.00    -0.346 N 
HETATM   16  H   UNK N   1      18.889  19.324   2.499  0.00  0.00     0.163 HD
BRANCH  15  17
HETATM   17  C   UNK N   1      20.055  17.649   2.074  0.00  0.00     0.232 C 
BRANCH  17  18
HETATM   18  C   UNK N   1      20.268  17.795   0.597  0.00  0.00     0.158 C 
HETATM   19  O   UNK N   1      20.254  16.819  -0.139  0.00  0.00    -0.649 OA
BRANCH  18  20
HETATM   20  O   UNK N   1      20.478  19.016   0.075  0.00  0.00    -0.775 OA
HETATM   21  H   UNK N   1      20.053  19.764   0.448  0.00  0.00     0.167 HD
ENDBRANCH  18  20
ENDBRANCH  17  18
ENDBRANCH  15  17
ENDBRANCH  10  13
BRANCH   9  22
HETATM   22  O   UNK N   1      23.011  21.055   2.704  0.00  0.00    -0.357 OA
HETATM   23  H   UNK N   1      23.053  21.032   1.768  0.00  0.00     0.217 HD
ENDBRANCH   9  22
BRANCH   5  24
HETATM   24  O   UNK N   1      28.259  18.149   4.753  0.00  0.00    -0.311 OA
BRANCH  24  25
HETATM   25  C   UNK N   1      28.817  18.057   5.999  0.00  0.00     0.076 A 
HETATM   26  C   UNK N   1      29.917  17.210   6.186  0.00  0.00     0.037 A 
HETATM   27  C   UNK N   1      30.515  17.089   7.446  0.00  0.00     0.003 A 
HETATM   28  C   UNK N   1      30.018  17.815   8.533  0.00  0.00     0.000 A 
HETATM   29  C   UNK N   1      28.924  18.662   8.361  0.00  0.00     0.003 A 
HETATM   30  C   UNK N   1      28.330  18.781   7.106  0.00  0.00     0.037 A 
ENDBRANCH  24  25
ENDBRANCH   5  24
TORSDOF 7
ENDMDL
MODEL 3
REMARK VINA RESULT:      -7.6      1.292      2.398
REMARK  7 active torsions:
REMARK  status: ('A' for Active; 'I' for Inactive)
REMARK    1  A    between atoms: C_5  and  O_21 
REMARK    2  A    between atoms: C_9  and  O_20 
REMARK    3  A    between atoms: C_10  and  C_13 
REMARK       I    between atoms: C_13  and  N_15 
REMARK    4  A    between atoms: N_15  and  C_16 
REMARK    5  A    between atoms: C_16  and  C_17 
REMARK    6  A    between atoms: C_17  and  O_19 
REMARK    7  A    between atoms: O_21  and  C_22 
ROOT
HETATM    1  C   UNK N   1      32.695  17.189   3.737  0.00  0.00     0.069 C 
HETATM    2  C   UNK N   1      32.405  17.381   5.189  0.00  0.00     0.017 A 
HETATM    3  C   UNK N   1      31.084  17.378   5.676  0.00  0.00     0.002 A 
HETATM    4  C   UNK N   1      29.971  17.195   4.828  0.00  0.00     0.051 A 
HETATM    5  C   UNK N   1      28.666  17.197   5.353  0.00  0.00     0.077 A 
HETATM    6  C   UNK N   1      28.495  17.386   6.731  0.00  0.00     0.038 A 
HETATM    7  C   UNK N   1      29.581  17.567   7.572  0.00  0.00     0.018 A 
HETATM    8  C   UNK N   1      30.876  17.565   7.058  0.00  0.00     0.012 A 
HETATM    9  C   UNK N   1      31.961  17.749   7.916  0.00  0.00     0.109 A 
HETATM   10  C   UNK N   1      33.272  17.746   7.396  0.00  0.00     0.135 A 
HETATM   11  N   UNK N   1      33.446  17.562   6.052  0.00  0.00    -0.352 N 
ATOM     12  HN  UNK N   1      34.394  17.562   5.678  1.00  0.00     0.166 HD
ENDROOT
BRANCH  10  13
HETATM   13  C   UNK N   1      34.456  17.942   8.304  0.00  0.00     0.271 C 
HETATM   14  O   UNK N   1      35.023  19.024   8.313  0.00  0.00    -0.266 OA
HETATM   15  N   UNK N   1      34.938  16.975   9.126  0.00  0.00    -0.346 N 
HETATM   16  H   UNK N   1      35.718  17.205   9.681  0.00  0.00     0.163 HD
BRANCH  15  17
HETATM   17  C   UNK N   1      34.405  15.642   9.256  0.00  0.00     0.232 C 
BRANCH  17  18
HETATM   18  C   UNK N   1      34.419  15.209  10.691  0.00  0.00     0.158 C 
HETATM   19  O   UNK N   1      35.470  15.099  11.304  0.00  0.00    -0.649 OA
BRANCH  18  20
HETATM   20  O   UNK N   1      33.257  14.937  11.312  0.00  0.00    -0.775 OA
HETATM   21  H   UNK N   1      33.240  14.339  12.033  0.00  0.00     0.167 HD
ENDBRANCH  18  20
ENDBRANCH  17  18
ENDBRANCH  15  17
ENDBRANCH  10  13
BRANCH   9  22
HETATM   22  O   UNK N   1      31.738  17.925   9.234  0.00  0.00    -0.357 OA
HETATM   23  H   UNK N   1      31.198  18.632   9.527  0.00  0.00     0.217 HD
ENDBRANCH   9  22
BRANCH   5  24
HETATM   24  O   UNK N   1      27.602  17.018   4.517  0.00  0.00    -0.311 OA
BRANCH  24  25
HETATM   25  C   UNK N   1      26.638  17.927   4.174  0.00  0.00     0.076 A 
HETATM   26  C   UNK N   1      27.027  19.222   3.812  0.00  0.00     0.037 A 
HETATM   27  C   UNK N   1      26.070  20.179   3.455  0.00  0.00     0.003 A 
HETATM   28  C   UNK N   1      24.711  19.850   3.455  0.00  0.00     0.000 A 
HETATM   29  C   UNK N   1      24.309  18.564   3.813  0.00  0.00     0.003 A 
HETATM   30  C   UNK N   1      25.264  17.612   4.168  0.00  0.00     0.037 A 
ENDBRANCH  24  25
ENDBRANCH   5  24
TORSDOF 7
ENDMDL
MODEL 4
REMARK VINA RESULT:      -7.4      3.114      5.268
REMARK  7 active torsions:
REMARK  status: ('A' for Active; 'I' for Inactive)
REMARK    1  A    between atoms: C_5  and  O_21 
REMARK    2  A    between atoms: C_9  and  O_20 
REMARK    3  A    between atoms: C_10  and  C_13 
REMARK       I    between atoms: C_13  and  N_15 
REMARK    4  A    between atoms: N_15  and  C_16 
REMARK    5  A    between atoms: C_16  and  C_17 
REMARK    6  A    between atoms: C_17  and  O_19 
REMARK    7  A    between atoms: O_21  and  C_22 
ROOT
HETATM    1  C   UNK N   1      33.243  12.445   8.798  0.00  0.00     0.069 C 
HETATM    2  C   UNK N   1      34.199  13.451   9.347  0.00  0.00     0.017 A 
HETATM    3  C   UNK N   1      34.045  14.825   9.082  0.00  0.00     0.002 A 
HETATM    4  C   UNK N   1      32.989  15.324   8.290  0.00  0.00     0.051 A 
HETATM    5  C   UNK N   1      32.869  16.705   8.048  0.00  0.00     0.077 A 
HETATM    6  C   UNK N   1      33.817  17.571   8.607  0.00  0.00     0.038 A 
HETATM    7  C   UNK N   1      34.858  17.091   9.386  0.00  0.00     0.018 A 
HETATM    8  C   UNK N   1      34.982  15.725   9.629  0.00  0.00     0.012 A 
HETATM    9  C   UNK N   1      36.036  15.255  10.415  0.00  0.00     0.109 A 
HETATM   10  C   UNK N   1      36.161  13.873  10.662  0.00  0.00     0.135 A 
HETATM   11  N   UNK N   1      35.238  13.021  10.119  0.00  0.00    -0.352 N 
ATOM     12  HN  UNK N   1      35.332  12.022  10.299  1.00  0.00     0.166 HD
ENDROOT
BRANCH  10  13
HETATM   13  C   UNK N   1      37.289  13.345  11.507  0.00  0.00     0.271 C 
HETATM   14  O   UNK N   1      38.282  12.893  10.955  0.00  0.00    -0.266 OA
HETATM   15  N   UNK N   1      37.270  13.341  12.864  0.00  0.00    -0.346 N 
HETATM   16  H   UNK N   1      38.059  12.973  13.324  0.00  0.00     0.163 HD
BRANCH  15  17
HETATM   17  C   UNK N   1      36.193  13.829  13.690  0.00  0.00     0.232 C 
BRANCH  17  18
HETATM   18  C   UNK N   1      36.620  13.889  15.127  0.00  0.00     0.158 C 
HETATM   19  O   UNK N   1      36.019  13.261  15.986  0.00  0.00    -0.649 OA
BRANCH  18  20
HETATM   20  O   UNK N   1      37.677  14.644  15.473  0.00  0.00    -0.775 OA
HETATM   21  H   UNK N   1      38.385  14.264  15.956  0.00  0.00     0.167 HD
ENDBRANCH  18  20
ENDBRANCH  17  18
ENDBRANCH  15  17
ENDBRANCH  10  13
BRANCH   9  22
HETATM   22  O   UNK N   1      36.919  16.135  10.929  0.00  0.00    -0.357 OA
HETATM   23  H   UNK N   1      36.857  17.043  10.709  0.00  0.00     0.217 HD
ENDBRANCH   9  22
BRANCH   5  24
HETATM   24  O   UNK N   1      31.840  17.168   7.280  0.00  0.00    -0.311 OA
BRANCH  24  25
HETATM   25  C   UNK N   1      30.594  17.559   7.687  0.00  0.00     0.076 A 
HETATM   26  C   UNK N   1      30.429  18.041   8.992  0.00  0.00     0.037 A 
HETATM   27  C   UNK N   1      29.169  18.451   9.445  0.00  0.00     0.003 A 
HETATM   28  C   UNK N   1      28.060  18.383   8.596  0.00  0.00     0.000 A 
HETATM   29  C   UNK N   1      28.209  17.905   7.295  0.00  0.00     0.003 A 
HETATM   30  C   UNK N   1      29.465  17.498   6.846  0.00  0.00     0.037 A 
ENDBRANCH  24  25
ENDBRANCH   5  24
TORSDOF 7
ENDMDL
MODEL 5
REMARK VINA RESULT:      -7.2      3.340      5.412
REMARK  7 active torsions:
REMARK  status: ('A' for Active; 'I' for Inactive)
REMARK    1  A    between atoms: C_5  and  O_21 
REMARK    2  A    between atoms: C_9  and  O_20 
REMARK    3  A    between atoms: C_10  and  C_13 
REMARK       I    between atoms: C_13  and  N_15 
REMARK    4  A    between atoms: N_15  and  C_16 
REMARK    5  A    between atoms: C_16  and  C_17 
REMARK    6  A    between atoms: C_17  and  O_19 
REMARK    7  A    between atoms: O_21  and  C_22 
ROOT
HETATM    1  C   UNK N   1      33.267  12.536   8.708  0.00  0.00     0.069 C 
HETATM    2  C   UNK N   1      34.225  13.521   9.293  0.00  0.00     0.017 A 
HETATM    3  C   UNK N   1      34.107  14.899   9.028  0.00  0.00     0.002 A 
HETATM    4  C   UNK N   1      33.087  15.422   8.205  0.00  0.00     0.051 A 
HETATM    5  C   UNK N   1      33.003  16.805   7.965  0.00  0.00     0.077 A 
HETATM    6  C   UNK N   1      33.950  17.651   8.559  0.00  0.00     0.038 A 
HETATM    7  C   UNK N   1      34.955  17.147   9.369  0.00  0.00     0.018 A 
HETATM    8  C   UNK N   1      35.044  15.778   9.610  0.00  0.00     0.012 A 
HETATM    9  C   UNK N   1      36.062  15.284  10.428  0.00  0.00     0.109 A 
HETATM   10  C   UNK N   1      36.151  13.898  10.672  0.00  0.00     0.135 A 
HETATM   11  N   UNK N   1      35.230  13.068  10.096  0.00  0.00    -0.352 N 
ATOM     12  HN  UNK N   1      35.297  12.066  10.274  1.00  0.00     0.166 HD
ENDROOT
BRANCH  10  13
HETATM   13  C   UNK N   1      37.241  13.345  11.551  0.00  0.00     0.271 C 
HETATM   14  O   UNK N   1      38.225  12.844  11.029  0.00  0.00    -0.266 OA
HETATM   15  N   UNK N   1      37.194  13.370  12.907  0.00  0.00    -0.346 N 
HETATM   16  H   UNK N   1      37.958  12.982  13.391  0.00  0.00     0.163 HD
BRANCH  15  17
HETATM   17  C   UNK N   1      36.121  13.916  13.700  0.00  0.00     0.232 C 
BRANCH  17  18
HETATM   18  C   UNK N   1      36.517  13.981  15.145  0.00  0.00     0.158 C 
HETATM   19  O   UNK N   1      35.820  13.471  16.011  0.00  0.00    -0.649 OA
BRANCH  18  20
HETATM   20  O   UNK N   1      37.654  14.609  15.493  0.00  0.00    -0.775 OA
HETATM   21  H   UNK N   1      38.461  14.381  15.075  0.00  0.00     0.167 HD
ENDBRANCH  18  20
ENDBRANCH  17  18
ENDBRANCH  15  17
ENDBRANCH  10  13
BRANCH   9  22
HETATM   22  O   UNK N   1      36.945  16.144  10.973  0.00  0.00    -0.357 OA
HETATM   23  H   UNK N   1      36.650  16.802  11.572  0.00  0.00     0.217 HD
ENDBRANCH   9  22
BRANCH   5  24
HETATM   24  O   UNK N   1      32.009  17.292   7.166  0.00  0.00    -0.311 OA
BRANCH  24  25
HETATM   25  C   UNK N   1      31.857  17.129   5.816  0.00  0.00     0.076 A 
HETATM   26  C   UNK N   1      32.944  17.401   4.975  0.00  0.00     0.037 A 
HETATM   27  C   UNK N   1      32.827  17.245   3.589  0.00  0.00     0.003 A 
HETATM   28  C   UNK N   1      31.621  16.814   3.029  0.00  0.00     0.000 A 
HETATM   29  C   UNK N   1      30.531  16.539   3.853  0.00  0.00     0.003 A 
HETATM   30  C   UNK N   1      30.649  16.694   5.234  0.00  0.00     0.037 A 
ENDBRANCH  24  25
ENDBRANCH   5  24
TORSDOF 7
ENDMDL
MODEL 6
REMARK VINA RESULT:      -7.2      8.537     11.886
REMARK  7 active torsions:
REMARK  status: ('A' for Active; 'I' for Inactive)
REMARK    1  A    between atoms: C_5  and  O_21 
REMARK    2  A    between atoms: C_9  and  O_20 
REMARK    3  A    between atoms: C_10  and  C_13 
REMARK       I    between atoms: C_13  and  N_15 
REMARK    4  A    between atoms: N_15  and  C_16 
REMARK    5  A    between atoms: C_16  and  C_17 
REMARK    6  A    between atoms: C_17  and  O_19 
REMARK    7  A    between atoms: O_21  and  C_22 
ROOT
HETATM    1  C   UNK N   1      21.804  14.189   3.794  0.00  0.00     0.069 C 
HETATM    2  C   UNK N   1      21.582  15.427   4.598  0.00  0.00     0.017 A 
HETATM    3  C   UNK N   1      21.338  15.363   5.984  0.00  0.00     0.002 A 
HETATM    4  C   UNK N   1      21.291  14.138   6.683  0.00  0.00     0.051 A 
HETATM    5  C   UNK N   1      21.046  14.116   8.068  0.00  0.00     0.077 A 
HETATM    6  C   UNK N   1      20.849  15.332   8.736  0.00  0.00     0.038 A 
HETATM    7  C   UNK N   1      20.893  16.540   8.058  0.00  0.00     0.018 A 
HETATM    8  C   UNK N   1      21.135  16.568   6.687  0.00  0.00     0.012 A 
HETATM    9  C   UNK N   1      21.177  17.792   6.017  0.00  0.00     0.109 A 
HETATM   10  C   UNK N   1      21.424  17.820   4.629  0.00  0.00     0.135 A 
HETATM   11  N   UNK N   1      21.617  16.637   3.971  0.00  0.00    -0.352 N 
ATOM     12  HN  UNK N   1      21.795  16.661   2.967  1.00  0.00     0.166 HD
ENDROOT
BRANCH  10  13
HETATM   13  C   UNK N   1      21.473  19.129   3.887  0.00  0.00     0.271 C 
HETATM   14  O   UNK N   1      20.424  19.695   3.615  0.00  0.00    -0.266 OA
HETATM   15  N   UNK N   1      22.627  19.726   3.497  0.00  0.00    -0.346 N 
HETATM   16  H   UNK N   1      22.551  20.582   3.017  0.00  0.00     0.163 HD
BRANCH  15  17
HETATM   17  C   UNK N   1      23.956  19.215   3.726  0.00  0.00     0.232 C 
BRANCH  17  18
HETATM   18  C   UNK N   1      24.978  20.103   3.081  0.00  0.00     0.158 C 
HETATM   19  O   UNK N   1      24.680  20.824   2.140  0.00  0.00    -0.649 OA
BRANCH  18  20
HETATM   20  O   UNK N   1      26.240  20.105   3.545  0.00  0.00    -0.775 OA
HETATM   21  H   UNK N   1      26.860  19.482   3.220  0.00  0.00     0.167 HD
ENDBRANCH  18  20
ENDBRANCH  17  18
ENDBRANCH  15  17
ENDBRANCH  10  13
BRANCH   9  22
HETATM   22  O   UNK N   1      20.981  18.931   6.711  0.00  0.00    -0.357 OA
HETATM   23  H   UNK N   1      20.272  19.501   6.485  0.00  0.00     0.217 HD
ENDBRANCH   9  22
BRANCH   5  24
HETATM   24  O   UNK N   1      21.004  12.922   8.727  0.00  0.00    -0.311 OA
BRANCH  24  25
HETATM   25  C   UNK N   1      21.699  12.553   9.847  0.00  0.00     0.076 A 
HETATM   26  C   UNK N   1      23.093  12.450   9.775  0.00  0.00     0.037 A 
HETATM   27  C   UNK N   1      23.838  12.075  10.900  0.00  0.00     0.003 A 
HETATM   28  C   UNK N   1      23.194  11.801  12.111  0.00  0.00     0.000 A 
HETATM   29  C   UNK N   1      21.806  11.900  12.197  0.00  0.00     0.003 A 
HETATM   30  C   UNK N   1      21.067  12.273  11.076  0.00  0.00     0.037 A 
ENDBRANCH  24  25
ENDBRANCH   5  24
TORSDOF 7
ENDMDL
MODEL 7
REMARK VINA RESULT:      -6.9      3.377      9.392
REMARK  7 active torsions:
REMARK  status: ('A' for Active; 'I' for Inactive)
REMARK    1  A    between atoms: C_5  and  O_21 
REMARK    2  A    between atoms: C_9  and  O_20 
REMARK    3  A    between atoms: C_10  and  C_13 
REMARK       I    between atoms: C_13  and  N_15 
REMARK    4  A    between atoms: N_15  and  C_16 
REMARK    5  A    between atoms: C_16  and  C_17 
REMARK    6  A    between atoms: C_17  and  O_19 
REMARK    7  A    between atoms: O_21  and  C_22 
ROOT
HETATM    1  C   UNK N   1      33.981  12.553   8.267  0.00  0.00     0.069 C 
HETATM    2  C   UNK N   1      34.166  14.018   8.485  0.00  0.00     0.017 A 
HETATM    3  C   UNK N   1      34.787  14.510   9.649  0.00  0.00     0.002 A 
HETATM    4  C   UNK N   1      35.266  13.654  10.664  0.00  0.00     0.051 A 
HETATM    5  C   UNK N   1      35.882  14.184  11.812  0.00  0.00     0.077 A 
HETATM    6  C   UNK N   1      36.009  15.575  11.927  0.00  0.00     0.038 A 
HETATM    7  C   UNK N   1      35.542  16.424  10.936  0.00  0.00     0.018 A 
HETATM    8  C   UNK N   1      34.931  15.905   9.796  0.00  0.00     0.012 A 
HETATM    9  C   UNK N   1      34.465  16.771   8.806  0.00  0.00     0.109 A 
HETATM   10  C   UNK N   1      33.847  16.245   7.653  0.00  0.00     0.135 A 
HETATM   11  N   UNK N   1      33.720  14.889   7.534  0.00  0.00    -0.352 N 
ATOM     12  HN  UNK N   1      33.273  14.512   6.699  1.00  0.00     0.166 HD
ENDROOT
BRANCH  10  13
HETATM   13  C   UNK N   1      33.338  17.162   6.573  0.00  0.00     0.271 C 
HETATM   14  O   UNK N   1      34.143  17.771   5.885  0.00  0.00    -0.266 OA
HETATM   15  N   UNK N   1      32.019  17.354   6.314  0.00  0.00    -0.346 N 
HETATM   16  H   UNK N   1      31.790  17.975   5.585  0.00  0.00     0.163 HD
BRANCH  15  17
HETATM   17  C   UNK N   1      30.926  16.727   7.014  0.00  0.00     0.232 C 
BRANCH  17  18
HETATM   18  C   UNK N   1      30.378  17.647   8.064  0.00  0.00     0.158 C 
HETATM   19  O   UNK N   1      29.229  18.058   8.000  0.00  0.00    -0.649 OA
BRANCH  18  20
HETATM   20  O   UNK N   1      31.163  18.025   9.088  0.00  0.00    -0.775 OA
HETATM   21  H   UNK N   1      31.122  17.564   9.903  0.00  0.00     0.167 HD
ENDBRANCH  18  20
ENDBRANCH  17  18
ENDBRANCH  15  17
ENDBRANCH  10  13
BRANCH   9  22
HETATM   22  O   UNK N   1      34.614  18.101   8.969  0.00  0.00    -0.357 OA
HETATM   23  H   UNK N   1      34.703  18.460   9.829  0.00  0.00     0.217 HD
ENDBRANCH   9  22
BRANCH   5  24
HETATM   24  O   UNK N   1      36.339  13.341  12.783  0.00  0.00    -0.311 OA
BRANCH  24  25
HETATM   25  C   UNK N   1      35.965  13.289  14.098  0.00  0.00     0.076 A 
HETATM   26  C   UNK N   1      36.696  14.025  15.039  0.00  0.00     0.037 A 
HETATM   27  C   UNK N   1      36.343  13.997  16.394  0.00  0.00     0.003 A 
HETATM   28  C   UNK N   1      35.254  13.232  16.821  0.00  0.00     0.000 A 
HETATM   29  C   UNK N   1      34.517  12.494  15.896  0.00  0.00     0.003 A 
HETATM   30  C   UNK N   1      34.870  12.523  14.548  0.00  0.00     0.037 A 
ENDBRANCH  24  25
ENDBRANCH   5  24
TORSDOF 7
ENDMDL
MODEL 8
REMARK VINA RESULT:      -6.8      1.910      2.780
REMARK  7 active torsions:
REMARK  status: ('A' for Active; 'I' for Inactive)
REMARK    1  A    between atoms: C_5  and  O_21 
REMARK    2  A    between atoms: C_9  and  O_20 
REMARK    3  A    between atoms: C_10  and  C_13 
REMARK       I    between atoms: C_13  and  N_15 
REMARK    4  A    between atoms: N_15  and  C_16 
REMARK    5  A    between atoms: C_16  and  C_17 
REMARK    6  A    between atoms: C_17  and  O_19 
REMARK    7  A    between atoms: O_21  and  C_22 
ROOT
HETATM    1  C   UNK N   1      30.768  14.424   5.300  0.00  0.00     0.069 C 
HETATM    2  C   UNK N   1      31.517  15.142   6.373  0.00  0.00     0.017 A 
HETATM    3  C   UNK N   1      30.943  16.225   7.065  0.00  0.00     0.002 A 
HETATM    4  C   UNK N   1      29.639  16.688   6.786  0.00  0.00     0.051 A 
HETATM    5  C   UNK N   1      29.100  17.774   7.500  0.00  0.00     0.077 A 
HETATM    6  C   UNK N   1      29.883  18.384   8.490  0.00  0.00     0.038 A 
HETATM    7  C   UNK N   1      31.164  17.937   8.770  0.00  0.00     0.018 A 
HETATM    8  C   UNK N   1      31.703  16.862   8.067  0.00  0.00     0.012 A 
HETATM    9  C   UNK N   1      32.995  16.422   8.360  0.00  0.00     0.109 A 
HETATM   10  C   UNK N   1      33.540  15.334   7.648  0.00  0.00     0.135 A 
HETATM   11  N   UNK N   1      32.782  14.734   6.681  0.00  0.00    -0.352 N 
ATOM     12  HN  UNK N   1      33.179  13.947   6.167  1.00  0.00     0.166 HD
ENDROOT
BRANCH  10  13
HETATM   13  C   UNK N   1      34.931  14.843   7.948  0.00  0.00     0.271 C 
HETATM   14  O   UNK N   1      35.839  15.131   7.182  0.00  0.00    -0.266 OA
HETATM   15  N   UNK N   1      35.241  14.090   9.033  0.00  0.00    -0.346 N 
HETATM   16  H   UNK N   1      36.182  13.819   9.139  0.00  0.00     0.163 HD
BRANCH  15  17
HETATM   17  C   UNK N   1      34.312  13.651  10.044  0.00  0.00     0.232 C 
BRANCH  17  18
HETATM   18  C   UNK N   1      34.593  14.336  11.349  0.00  0.00     0.158 C 
HETATM   19  O   UNK N   1      34.927  15.511  11.381  0.00  0.00    -0.649 OA
BRANCH  18  20
HETATM   20  O   UNK N   1      34.476  13.647  12.498  0.00  0.00    -0.775 OA
HETATM   21  H   UNK N   1      34.964  12.857  12.621  0.00  0.00     0.167 HD
ENDBRANCH  18  20
ENDBRANCH  17  18
ENDBRANCH  15  17
ENDBRANCH  10  13
BRANCH   9  22
HETATM   22  O   UNK N   1      33.702  17.046   9.323  0.00  0.00    -0.357 OA
HETATM   23  H   UNK N   1      34.093  16.548  10.014  0.00  0.00     0.217 HD
ENDBRANCH   9  22
BRANCH   5  24
HETATM   24  O   UNK N   1      27.837  18.208   7.217  0.00  0.00    -0.311 OA
BRANCH  24  25
HETATM   25  C   UNK N   1      27.427  18.972   6.159  0.00  0.00     0.076 A 
HETATM   26  C   UNK N   1      27.268  20.351   6.341  0.00  0.00     0.037 A 
HETATM   27  C   UNK N   1      26.849  21.165   5.282  0.00  0.00     0.003 A 
HETATM   28  C   UNK N   1      26.586  20.608   4.028  0.00  0.00     0.000 A 
HETATM   29  C   UNK N   1      26.739  19.236   3.831  0.00  0.00     0.003 A 
HETATM   30  C   UNK N   1      27.156  18.427   4.887  0.00  0.00     0.037 A 
ENDBRANCH  24  25
ENDBRANCH   5  24
TORSDOF 7
ENDMDL
MODEL 9
REMARK VINA RESULT:      -6.8      9.387     13.668
REMARK  7 active torsions:
REMARK  status: ('A' for Active; 'I' for Inactive)
REMARK    1  A    between atoms: C_5  and  O_21 
REMARK    2  A    between atoms: C_9  and  O_20 
REMARK    3  A    between atoms: C_10  and  C_13 
REMARK       I    between atoms: C_13  and  N_15 
REMARK    4  A    between atoms: N_15  and  C_16 
REMARK    5  A    between atoms: C_16  and  C_17 
REMARK    6  A    between atoms: C_17  and  O_19 
REMARK    7  A    between atoms: O_21  and  C_22 
ROOT
HETATM    1  C   UNK N   1      35.640   8.300  16.836  0.00  0.00     0.069 C 
HETATM    2  C   UNK N   1      35.608   9.476  17.755  0.00  0.00     0.017 A 
HETATM    3  C   UNK N   1      35.312  10.767  17.278  0.00  0.00     0.002 A 
HETATM    4  C   UNK N   1      35.032  11.019  15.918  0.00  0.00     0.051 A 
HETATM    5  C   UNK N   1      34.740  12.324  15.480  0.00  0.00     0.077 A 
HETATM    6  C   UNK N   1      34.734  13.364  16.418  0.00  0.00     0.038 A 
HETATM    7  C   UNK N   1      35.008  13.126  17.756  0.00  0.00     0.018 A 
HETATM    8  C   UNK N   1      35.298  11.836  18.196  0.00  0.00     0.012 A 
HETATM    9  C   UNK N   1      35.572  11.612  19.546  0.00  0.00     0.109 A 
HETATM   10  C   UNK N   1      35.864  10.306  19.991  0.00  0.00     0.135 A 
HETATM   11  N   UNK N   1      35.871   9.286  19.080  0.00  0.00    -0.352 N 
ATOM     12  HN  UNK N   1      36.084   8.343  19.405  1.00  0.00     0.166 HD
ENDROOT
BRANCH  10  13
HETATM   13  C   UNK N   1      36.162  10.041  21.443  0.00  0.00     0.271 C 
HETATM   14  O   UNK N   1      37.302  10.205  21.852  0.00  0.00    -0.266 OA
HETATM   15  N   UNK N   1      35.228   9.627  22.335  0.00  0.00    -0.346 N 
HETATM   16  H   UNK N   1      35.526   9.482  23.263  0.00  0.00     0.163 HD
BRANCH  15  17
HETATM   17  C   UNK N   1      33.839   9.380  22.043  0.00  0.00     0.232 C 
BRANCH  17  18
HETATM   18  C   UNK N   1      32.975  10.434  22.668  0.00  0.00     0.158 C 
HETATM   19  O   UNK N   1      32.176  10.151  23.549  0.00  0.00    -0.649 OA
BRANCH  18  20
HETATM   20  O   UNK N   1      33.082  11.709  22.254  0.00  0.00    -0.775 OA
HETATM   21  H   UNK N   1      33.070  12.407  22.879  0.00  0.00     0.167 HD
ENDBRANCH  18  20
ENDBRANCH  17  18
ENDBRANCH  15  17
ENDBRANCH  10  13
BRANCH   9  22
HETATM   22  O   UNK N   1      35.551  12.650  20.405  0.00  0.00    -0.357 OA
HETATM   23  H   UNK N   1      35.291  13.499  20.108  0.00  0.00     0.217 HD
ENDBRANCH   9  22
BRANCH   5  24
HETATM   24  O   UNK N   1      34.471  12.548  14.160  0.00  0.00    -0.311 OA
BRANCH  24  25
HETATM   25  C   UNK N   1      35.357  12.835  13.157  0.00  0.00     0.076 A 
HETATM   26  C   UNK N   1      36.509  12.049  13.026  0.00  0.00     0.037 A 
HETATM   27  C   UNK N   1      37.437  12.312  12.013  0.00  0.00     0.003 A 
HETATM   28  C   UNK N   1      37.223  13.364  11.117  0.00  0.00     0.000 A 
HETATM   29  C   UNK N   1      36.081  14.155  11.235  0.00  0.00     0.003 A 
HETATM   30  C   UNK N   1      35.157  13.892  12.245  0.00  0.00     0.037 A 
ENDBRANCH  24  25
ENDBRANCH   5  24
TORSDOF 7
ENDMDL
