MODEL 1
REMARK VINA RESULT:      -7.6      0.000      0.000
REMARK  7 active torsions:
REMARK  status: ('A' for Active; 'I' for Inactive)
REMARK    1  A    between atoms: O_3  and  C_12 
REMARK    2  A    between atoms: O_3  and  C_14 
REMARK    3  A    between atoms: O_5  and  C_18 
REMARK    4  A    between atoms: O_5  and  C_21 
REMARK    5  A    between atoms: C_7  and  C_11 
REMARK    6  A    between atoms: C_8  and  C_12 
REMARK    7  A    between atoms: C_14  and  C_15 
ROOT
HETATM    1  C   UNK N   1      26.911  24.480  -3.800  0.00  0.00    -0.031 A 
HETATM    2  C   UNK N   1      26.613  25.838  -3.673  0.00  0.00     0.046 A 
HETATM    3  C   UNK N   1      26.485  23.775  -4.931  0.00  0.00     0.009 A 
HETATM    4  C   UNK N   1      25.870  26.488  -4.658  0.00  0.00     0.076 A 
HETATM    5  C   UNK N   1      25.769  24.428  -5.937  0.00  0.00     0.003 A 
HETATM    6  C   UNK N   1      25.449  25.781  -5.797  0.00  0.00     0.037 A 
ENDROOT
BRANCH   1   7
HETATM    7  C   UNK N   1      27.641  23.773  -2.709  0.00  0.00     0.217 C 
BRANCH   7   8
HETATM    8  O   UNK N   1      29.004  23.892  -2.876  0.00  0.00    -0.317 OA
BRANCH   8   9
HETATM    9  C   UNK N   1      29.889  22.919  -2.530  0.00  0.00     0.264 C 
HETATM   10  O   UNK N   1      30.512  23.032  -1.488  0.00  0.00    -0.265 OA
BRANCH   9  11
HETATM   11  C   UNK N   1      30.163  21.735  -3.435  0.00  0.00     0.102 A 
HETATM   12  C   UNK N   1      30.381  22.086  -4.907  0.00  0.00    -0.027 A 
HETATM   13  C   UNK N   1      31.582  21.835  -4.006  0.00  0.00     0.034 A 
HETATM   14  C   UNK N   1      30.053  21.000  -5.921  0.00  0.00     0.016 C 
HETATM   15  C   UNK N   1      30.289  23.535  -5.359  0.00  0.00     0.016 C 
BRANCH  13  16
HETATM   16  C   UNK N   1      32.126  20.435  -4.041  0.00  0.00     0.016 C 
HETATM   17  C   UNK N   1      33.434  20.176  -4.124  0.00  0.00     0.100 C 
HETATM   18 Cl   UNK N   1      34.630  21.464  -4.224  0.00  0.00    -0.071 Cl
HETATM   19 Cl   UNK N   1      33.973  18.508  -4.137  0.00  0.00    -0.071 Cl
ENDBRANCH  13  16
ENDBRANCH   9  11
ENDBRANCH   8   9
ENDBRANCH   7   8
ENDBRANCH   1   7
BRANCH   4  20
HETATM   20  O   UNK N   1      25.524  27.783  -4.469  0.00  0.00    -0.311 OA
BRANCH  20  21
HETATM   21  C   UNK N   1      26.369  28.825  -4.678  0.00  0.00     0.076 A 
HETATM   22  C   UNK N   1      26.427  29.915  -3.785  0.00  0.00     0.037 A 
HETATM   23  C   UNK N   1      27.352  30.942  -3.982  0.00  0.00     0.003 A 
HETATM   24  C   UNK N   1      28.230  30.888  -5.066  0.00  0.00     0.000 A 
HETATM   25  C   UNK N   1      28.178  29.812  -5.957  0.00  0.00     0.003 A 
HETATM   26  C   UNK N   1      27.252  28.782  -5.761  0.00  0.00     0.037 A 
ENDBRANCH  20  21
ENDBRANCH   4  20
TORSDOF 7
ENDMDL
MODEL 2
REMARK VINA RESULT:      -7.5      1.978      4.429
REMARK  7 active torsions:
REMARK  status: ('A' for Active; 'I' for Inactive)
REMARK    1  A    between atoms: O_3  and  C_12 
REMARK    2  A    between atoms: O_3  and  C_14 
REMARK    3  A    between atoms: O_5  and  C_18 
REMARK    4  A    between atoms: O_5  and  C_21 
REMARK    5  A    between atoms: C_7  and  C_11 
REMARK    6  A    between atoms: C_8  and  C_12 
REMARK    7  A    between atoms: C_14  and  C_15 
ROOT
HETATM    1  C   UNK N   1      26.815  24.579  -3.731  0.00  0.00    -0.031 A 
HETATM    2  C   UNK N   1      26.268  23.975  -4.864  0.00  0.00     0.046 A 
HETATM    3  C   UNK N   1      26.683  25.959  -3.543  0.00  0.00     0.009 A 
HETATM    4  C   UNK N   1      25.612  24.747  -5.823  0.00  0.00     0.076 A 
HETATM    5  C   UNK N   1      25.999  26.734  -4.483  0.00  0.00     0.003 A 
HETATM    6  C   UNK N   1      25.473  26.132  -5.630  0.00  0.00     0.037 A 
ENDROOT
BRANCH   1   7
HETATM    7  C   UNK N   1      27.579  23.761  -2.747  0.00  0.00     0.217 C 
BRANCH   7   8
HETATM    8  O   UNK N   1      28.935  23.874  -2.965  0.00  0.00    -0.317 OA
BRANCH   8   9
HETATM    9  C   UNK N   1      29.836  22.927  -2.590  0.00  0.00     0.264 C 
HETATM   10  O   UNK N   1      30.453  23.080  -1.549  0.00  0.00    -0.265 OA
BRANCH   9  11
HETATM   11  C   UNK N   1      30.135  21.724  -3.461  0.00  0.00     0.102 A 
HETATM   12  C   UNK N   1      30.329  22.036  -4.945  0.00  0.00    -0.027 A 
HETATM   13  C   UNK N   1      31.545  21.846  -4.050  0.00  0.00     0.034 A 
HETATM   14  C   UNK N   1      30.023  20.911  -5.923  0.00  0.00     0.016 C 
HETATM   15  C   UNK N   1      30.193  23.467  -5.440  0.00  0.00     0.016 C 
BRANCH  13  16
HETATM   16  C   UNK N   1      32.128  20.461  -4.048  0.00  0.00     0.016 C 
HETATM   17  C   UNK N   1      33.437  20.234  -4.189  0.00  0.00     0.100 C 
HETATM   18 Cl   UNK N   1      34.587  21.548  -4.415  0.00  0.00    -0.071 Cl
HETATM   19 Cl   UNK N   1      34.024  18.582  -4.153  0.00  0.00    -0.071 Cl
ENDBRANCH  13  16
ENDBRANCH   9  11
ENDBRANCH   8   9
ENDBRANCH   7   8
ENDBRANCH   1   7
BRANCH   4  20
HETATM   20  O   UNK N   1      25.164  24.148  -6.951  0.00  0.00    -0.311 OA
BRANCH  20  21
HETATM   21  C   UNK N   1      25.791  23.102  -7.547  0.00  0.00     0.076 A 
HETATM   22  C   UNK N   1      27.123  23.203  -7.997  0.00  0.00     0.037 A 
HETATM   23  C   UNK N   1      27.771  22.094  -8.544  0.00  0.00     0.003 A 
HETATM   24  C   UNK N   1      27.099  20.875  -8.642  0.00  0.00     0.000 A 
HETATM   25  C   UNK N   1      25.777  20.766  -8.200  0.00  0.00     0.003 A 
HETATM   26  C   UNK N   1      25.126  21.876  -7.651  0.00  0.00     0.037 A 
ENDBRANCH  20  21
ENDBRANCH   4  20
TORSDOF 7
ENDMDL
MODEL 3
REMARK VINA RESULT:      -7.5     10.835     13.330
REMARK  7 active torsions:
REMARK  status: ('A' for Active; 'I' for Inactive)
REMARK    1  A    between atoms: O_3  and  C_12 
REMARK    2  A    between atoms: O_3  and  C_14 
REMARK    3  A    between atoms: O_5  and  C_18 
REMARK    4  A    between atoms: O_5  and  C_21 
REMARK    5  A    between atoms: C_7  and  C_11 
REMARK    6  A    between atoms: C_8  and  C_12 
REMARK    7  A    between atoms: C_14  and  C_15 
ROOT
HETATM    1  C   UNK N   1      30.779  17.883   8.364  0.00  0.00    -0.031 A 
HETATM    2  C   UNK N   1      30.049  17.385   7.283  0.00  0.00     0.046 A 
HETATM    3  C   UNK N   1      30.109  18.398   9.480  0.00  0.00     0.009 A 
HETATM    4  C   UNK N   1      28.655  17.421   7.302  0.00  0.00     0.076 A 
HETATM    5  C   UNK N   1      28.714  18.407   9.519  0.00  0.00     0.003 A 
HETATM    6  C   UNK N   1      27.984  17.931   8.426  0.00  0.00     0.037 A 
ENDROOT
BRANCH   1   7
HETATM    7  C   UNK N   1      32.268  17.910   8.307  0.00  0.00     0.217 C 
BRANCH   7   8
HETATM    8  O   UNK N   1      32.738  17.015   7.370  0.00  0.00    -0.317 OA
BRANCH   8   9
HETATM    9  C   UNK N   1      33.480  17.381   6.291  0.00  0.00     0.264 C 
HETATM   10  O   UNK N   1      34.526  17.981   6.470  0.00  0.00    -0.265 OA
BRANCH   9  11
HETATM   11  C   UNK N   1      33.010  17.114   4.875  0.00  0.00     0.102 A 
HETATM   12  C   UNK N   1      33.516  15.808   4.264  0.00  0.00    -0.027 A 
HETATM   13  C   UNK N   1      32.113  15.871   4.850  0.00  0.00     0.034 A 
HETATM   14  C   UNK N   1      33.616  15.761   2.745  0.00  0.00     0.016 C 
HETATM   15  C   UNK N   1      34.440  14.906   5.067  0.00  0.00     0.016 C 
BRANCH  13  16
HETATM   16  C   UNK N   1      31.018  16.155   3.862  0.00  0.00     0.016 C 
HETATM   17  C   UNK N   1      29.871  15.472   3.847  0.00  0.00     0.100 C 
HETATM   18 Cl   UNK N   1      29.559  14.157   4.976  0.00  0.00    -0.071 Cl
HETATM   19 Cl   UNK N   1      28.644  15.892   2.666  0.00  0.00    -0.071 Cl
ENDBRANCH  13  16
ENDBRANCH   9  11
ENDBRANCH   8   9
ENDBRANCH   7   8
ENDBRANCH   1   7
BRANCH   4  20
HETATM   20  O   UNK N   1      27.975  17.008   6.207  0.00  0.00    -0.311 OA
BRANCH  20  21
HETATM   21  C   UNK N   1      27.381  17.854   5.326  0.00  0.00     0.076 A 
HETATM   22  C   UNK N   1      26.017  17.731   4.994  0.00  0.00     0.037 A 
HETATM   23  C   UNK N   1      25.411  18.654   4.140  0.00  0.00     0.003 A 
HETATM   24  C   UNK N   1      26.158  19.709   3.615  0.00  0.00     0.000 A 
HETATM   25  C   UNK N   1      27.512  19.839   3.938  0.00  0.00     0.003 A 
HETATM   26  C   UNK N   1      28.121  18.915   4.795  0.00  0.00     0.037 A 
ENDBRANCH  20  21
ENDBRANCH   4  20
TORSDOF 7
ENDMDL
MODEL 4
REMARK VINA RESULT:      -7.4      3.275      6.913
REMARK  7 active torsions:
REMARK  status: ('A' for Active; 'I' for Inactive)
REMARK    1  A    between atoms: O_3  and  C_12 
REMARK    2  A    between atoms: O_3  and  C_14 
REMARK    3  A    between atoms: O_5  and  C_18 
REMARK    4  A    between atoms: O_5  and  C_21 
REMARK    5  A    between atoms: C_7  and  C_11 
REMARK    6  A    between atoms: C_8  and  C_12 
REMARK    7  A    between atoms: C_14  and  C_15 
ROOT
HETATM    1  C   UNK N   1      25.912  27.661  -4.048  0.00  0.00    -0.031 A 
HETATM    2  C   UNK N   1      26.410  26.570  -3.333  0.00  0.00     0.046 A 
HETATM    3  C   UNK N   1      25.262  27.457  -5.270  0.00  0.00     0.009 A 
HETATM    4  C   UNK N   1      26.283  25.279  -3.845  0.00  0.00     0.076 A 
HETATM    5  C   UNK N   1      25.103  26.164  -5.773  0.00  0.00     0.003 A 
HETATM    6  C   UNK N   1      25.623  25.074  -5.068  0.00  0.00     0.037 A 
ENDROOT
BRANCH   1   7
HETATM    7  C   UNK N   1      26.117  29.045  -3.532  0.00  0.00     0.217 C 
BRANCH   7   8
HETATM    8  O   UNK N   1      26.592  29.872  -4.525  0.00  0.00    -0.317 OA
BRANCH   8   9
HETATM    9  C   UNK N   1      27.883  30.291  -4.599  0.00  0.00     0.264 C 
HETATM   10  O   UNK N   1      28.324  31.002  -3.712  0.00  0.00    -0.265 OA
BRANCH   9  11
HETATM   11  C   UNK N   1      28.765  29.946  -5.782  0.00  0.00     0.102 A 
HETATM   12  C   UNK N   1      29.754  28.805  -5.537  0.00  0.00    -0.027 A 
HETATM   13  C   UNK N   1      28.449  28.528  -6.270  0.00  0.00     0.034 A 
HETATM   14  C   UNK N   1      31.020  28.809  -6.381  0.00  0.00     0.016 C 
HETATM   15  C   UNK N   1      29.807  28.131  -4.175  0.00  0.00     0.016 C 
BRANCH  13  16
HETATM   16  C   UNK N   1      28.538  28.564  -7.770  0.00  0.00     0.016 C 
HETATM   17  C   UNK N   1      28.354  27.479  -8.525  0.00  0.00     0.100 C 
HETATM   18 Cl   UNK N   1      28.016  25.902  -7.817  0.00  0.00    -0.071 Cl
HETATM   19 Cl   UNK N   1      28.456  27.627 -10.269  0.00  0.00    -0.071 Cl
ENDBRANCH  13  16
ENDBRANCH   9  11
ENDBRANCH   8   9
ENDBRANCH   7   8
ENDBRANCH   1   7
BRANCH   4  20
HETATM   20  O   UNK N   1      26.847  24.250  -3.172  0.00  0.00    -0.311 OA
BRANCH  20  21
HETATM   21  C   UNK N   1      28.173  23.961  -3.212  0.00  0.00     0.076 A 
HETATM   22  C   UNK N   1      29.013  24.497  -4.209  0.00  0.00     0.037 A 
HETATM   23  C   UNK N   1      30.385  24.242  -4.190  0.00  0.00     0.003 A 
HETATM   24  C   UNK N   1      30.932  23.456  -3.174  0.00  0.00     0.000 A 
HETATM   25  C   UNK N   1      30.107  22.919  -2.182  0.00  0.00     0.003 A 
HETATM   26  C   UNK N   1      28.731  23.174  -2.199  0.00  0.00     0.037 A 
ENDBRANCH  20  21
ENDBRANCH   4  20
TORSDOF 7
ENDMDL
MODEL 5
REMARK VINA RESULT:      -7.3     15.788     20.019
REMARK  7 active torsions:
REMARK  status: ('A' for Active; 'I' for Inactive)
REMARK    1  A    between atoms: O_3  and  C_12 
REMARK    2  A    between atoms: O_3  and  C_14 
REMARK    3  A    between atoms: O_5  and  C_18 
REMARK    4  A    between atoms: O_5  and  C_21 
REMARK    5  A    between atoms: C_7  and  C_11 
REMARK    6  A    between atoms: C_8  and  C_12 
REMARK    7  A    between atoms: C_14  and  C_15 
ROOT
HETATM    1  C   UNK N   1      35.488  15.420  10.742  0.00  0.00    -0.031 A 
HETATM    2  C   UNK N   1      35.171  15.096  12.062  0.00  0.00     0.046 A 
HETATM    3  C   UNK N   1      35.562  14.411   9.775  0.00  0.00     0.009 A 
HETATM    4  C   UNK N   1      34.953  13.767  12.426  0.00  0.00     0.076 A 
HETATM    5  C   UNK N   1      35.312  13.083  10.125  0.00  0.00     0.003 A 
HETATM    6  C   UNK N   1      35.020  12.757  11.452  0.00  0.00     0.037 A 
ENDROOT
BRANCH   1   7
HETATM    7  C   UNK N   1      35.793  16.832  10.374  0.00  0.00     0.217 C 
BRANCH   7   8
HETATM    8  O   UNK N   1      34.699  17.432   9.790  0.00  0.00    -0.317 OA
BRANCH   8   9
HETATM    9  C   UNK N   1      34.694  17.900   8.513  0.00  0.00     0.264 C 
HETATM   10  O   UNK N   1      34.928  19.080   8.315  0.00  0.00    -0.265 OA
BRANCH   9  11
HETATM   11  C   UNK N   1      34.346  17.006   7.340  0.00  0.00     0.102 A 
HETATM   12  C   UNK N   1      33.103  16.137   7.539  0.00  0.00    -0.027 A 
HETATM   13  C   UNK N   1      32.999  17.431   6.744  0.00  0.00     0.034 A 
HETATM   14  C   UNK N   1      33.043  14.842   6.741  0.00  0.00     0.016 C 
HETATM   15  C   UNK N   1      32.340  16.201   8.852  0.00  0.00     0.016 C 
BRANCH  13  16
HETATM   16  C   UNK N   1      33.125  17.278   5.255  0.00  0.00     0.016 C 
HETATM   17  C   UNK N   1      32.070  17.327   4.438  0.00  0.00     0.100 C 
HETATM   18 Cl   UNK N   1      30.433  17.551   5.047  0.00  0.00    -0.071 Cl
HETATM   19 Cl   UNK N   1      32.321  17.160   2.710  0.00  0.00    -0.071 Cl
ENDBRANCH  13  16
ENDBRANCH   9  11
ENDBRANCH   8   9
ENDBRANCH   7   8
ENDBRANCH   1   7
BRANCH   4  20
HETATM   20  O   UNK N   1      34.729  13.474  13.728  0.00  0.00    -0.311 OA
BRANCH  20  21
HETATM   21  C   UNK N   1      35.142  12.324  14.321  0.00  0.00     0.076 A 
HETATM   22  C   UNK N   1      36.482  12.141  14.718  0.00  0.00     0.037 A 
HETATM   23  C   UNK N   1      36.869  10.980  15.389  0.00  0.00     0.003 A 
HETATM   24  C   UNK N   1      35.923   9.995  15.675  0.00  0.00     0.000 A 
HETATM   25  C   UNK N   1      34.592  10.167  15.284  0.00  0.00     0.003 A 
HETATM   26  C   UNK N   1      34.202  11.331  14.612  0.00  0.00     0.037 A 
ENDBRANCH  20  21
ENDBRANCH   4  20
TORSDOF 7
ENDMDL
MODEL 6
REMARK VINA RESULT:      -7.3      3.020      7.115
REMARK  7 active torsions:
REMARK  status: ('A' for Active; 'I' for Inactive)
REMARK    1  A    between atoms: O_3  and  C_12 
REMARK    2  A    between atoms: O_3  and  C_14 
REMARK    3  A    between atoms: O_5  and  C_18 
REMARK    4  A    between atoms: O_5  and  C_21 
REMARK    5  A    between atoms: C_7  and  C_11 
REMARK    6  A    between atoms: C_8  and  C_12 
REMARK    7  A    between atoms: C_14  and  C_15 
ROOT
HETATM    1  C   UNK N   1      28.495  24.714  -3.545  0.00  0.00    -0.031 A 
HETATM    2  C   UNK N   1      29.133  23.582  -3.036  0.00  0.00     0.046 A 
HETATM    3  C   UNK N   1      29.253  25.796  -4.004  0.00  0.00     0.009 A 
HETATM    4  C   UNK N   1      30.525  23.537  -2.960  0.00  0.00     0.076 A 
HETATM    5  C   UNK N   1      30.648  25.744  -3.962  0.00  0.00     0.003 A 
HETATM    6  C   UNK N   1      31.286  24.621  -3.428  0.00  0.00     0.037 A 
ENDROOT
BRANCH   1   7
HETATM    7  C   UNK N   1      27.006  24.787  -3.555  0.00  0.00     0.217 C 
BRANCH   7   8
HETATM    8  O   UNK N   1      26.565  25.669  -4.517  0.00  0.00    -0.317 OA
BRANCH   8   9
HETATM    9  C   UNK N   1      25.620  25.357  -5.444  0.00  0.00     0.264 C 
HETATM   10  O   UNK N   1      24.584  26.000  -5.469  0.00  0.00    -0.265 OA
BRANCH   9  11
HETATM   11  C   UNK N   1      25.796  24.195  -6.401  0.00  0.00     0.102 A 
HETATM   12  C   UNK N   1      26.103  24.592  -7.845  0.00  0.00    -0.027 A 
HETATM   13  C   UNK N   1      27.237  24.167  -6.924  0.00  0.00     0.034 A 
HETATM   14  C   UNK N   1      25.696  23.599  -8.925  0.00  0.00     0.016 C 
HETATM   15  C   UNK N   1      26.184  26.062  -8.223  0.00  0.00     0.016 C 
BRANCH  13  16
HETATM   16  C   UNK N   1      27.628  22.719  -7.016  0.00  0.00     0.016 C 
HETATM   17  C   UNK N   1      28.898  22.314  -6.941  0.00  0.00     0.100 C 
HETATM   18 Cl   UNK N   1      30.227  23.454  -6.752  0.00  0.00    -0.071 Cl
HETATM   19 Cl   UNK N   1      29.252  20.599  -7.038  0.00  0.00    -0.071 Cl
ENDBRANCH  13  16
ENDBRANCH   9  11
ENDBRANCH   8   9
ENDBRANCH   7   8
ENDBRANCH   1   7
BRANCH   4  20
HETATM   20  O   UNK N   1      31.115  22.462  -2.386  0.00  0.00    -0.311 OA
BRANCH  20  21
HETATM   21  C   UNK N   1      31.838  21.543  -3.075  0.00  0.00     0.076 A 
HETATM   22  C   UNK N   1      33.200  21.315  -2.791  0.00  0.00     0.037 A 
HETATM   23  C   UNK N   1      33.905  20.316  -3.464  0.00  0.00     0.003 A 
HETATM   24  C   UNK N   1      33.258  19.534  -4.422  0.00  0.00     0.000 A 
HETATM   25  C   UNK N   1      31.908  19.754  -4.712  0.00  0.00     0.003 A 
HETATM   26  C   UNK N   1      31.200  20.754  -4.038  0.00  0.00     0.037 A 
ENDBRANCH  20  21
ENDBRANCH   4  20
TORSDOF 7
ENDMDL
MODEL 7
REMARK VINA RESULT:      -7.3      2.496      3.309
REMARK  7 active torsions:
REMARK  status: ('A' for Active; 'I' for Inactive)
REMARK    1  A    between atoms: O_3  and  C_12 
REMARK    2  A    between atoms: O_3  and  C_14 
REMARK    3  A    between atoms: O_5  and  C_18 
REMARK    4  A    between atoms: O_5  and  C_21 
REMARK    5  A    between atoms: C_7  and  C_11 
REMARK    6  A    between atoms: C_8  and  C_12 
REMARK    7  A    between atoms: C_14  and  C_15 
ROOT
HETATM    1  C   UNK N   1      26.931  24.554  -3.684  0.00  0.00    -0.031 A 
HETATM    2  C   UNK N   1      26.603  25.910  -3.628  0.00  0.00     0.046 A 
HETATM    3  C   UNK N   1      26.536  23.785  -4.783  0.00  0.00     0.009 A 
HETATM    4  C   UNK N   1      25.860  26.494  -4.654  0.00  0.00     0.076 A 
HETATM    5  C   UNK N   1      25.820  24.370  -5.830  0.00  0.00     0.003 A 
HETATM    6  C   UNK N   1      25.470  25.722  -5.761  0.00  0.00     0.037 A 
ENDROOT
BRANCH   1   7
HETATM    7  C   UNK N   1      27.660  23.918  -2.549  0.00  0.00     0.217 C 
BRANCH   7   8
HETATM    8  O   UNK N   1      28.742  23.197  -3.006  0.00  0.00    -0.317 OA
BRANCH   8   9
HETATM    9  C   UNK N   1      30.016  23.402  -2.576  0.00  0.00     0.264 C 
HETATM   10  O   UNK N   1      30.334  23.009  -1.467  0.00  0.00    -0.265 OA
BRANCH   9  11
HETATM   11  C   UNK N   1      31.027  24.157  -3.415  0.00  0.00     0.102 A 
HETATM   12  C   UNK N   1      31.671  23.340  -4.536  0.00  0.00    -0.027 A 
HETATM   13  C   UNK N   1      30.518  24.281  -4.856  0.00  0.00     0.034 A 
HETATM   14  C   UNK N   1      33.054  23.783  -4.991  0.00  0.00     0.016 C 
HETATM   15  C   UNK N   1      31.294  21.879  -4.719  0.00  0.00     0.016 C 
BRANCH  13  16
HETATM   16  C   UNK N   1      30.920  25.648  -5.333  0.00  0.00     0.016 C 
HETATM   17  C   UNK N   1      30.303  26.264  -6.344  0.00  0.00     0.100 C 
HETATM   18 Cl   UNK N   1      28.975  25.509  -7.220  0.00  0.00    -0.071 Cl
HETATM   19 Cl   UNK N   1      30.832  27.869  -6.814  0.00  0.00    -0.071 Cl
ENDBRANCH  13  16
ENDBRANCH   9  11
ENDBRANCH   8   9
ENDBRANCH   7   8
ENDBRANCH   1   7
BRANCH   4  20
HETATM   20  O   UNK N   1      25.485  27.788  -4.535  0.00  0.00    -0.311 OA
BRANCH  20  21
HETATM   21  C   UNK N   1      26.335  28.836  -4.690  0.00  0.00     0.076 A 
HETATM   22  C   UNK N   1      26.383  29.889  -3.754  0.00  0.00     0.037 A 
HETATM   23  C   UNK N   1      27.313  30.919  -3.896  0.00  0.00     0.003 A 
HETATM   24  C   UNK N   1      28.207  30.906  -4.968  0.00  0.00     0.000 A 
HETATM   25  C   UNK N   1      28.165  29.867  -5.902  0.00  0.00     0.003 A 
HETATM   26  C   UNK N   1      27.234  28.833  -5.761  0.00  0.00     0.037 A 
ENDBRANCH  20  21
ENDBRANCH   4  20
TORSDOF 7
ENDMDL
MODEL 8
REMARK VINA RESULT:      -7.2     17.416     21.450
REMARK  7 active torsions:
REMARK  status: ('A' for Active; 'I' for Inactive)
REMARK    1  A    between atoms: O_3  and  C_12 
REMARK    2  A    between atoms: O_3  and  C_14 
REMARK    3  A    between atoms: O_5  and  C_18 
REMARK    4  A    between atoms: O_5  and  C_21 
REMARK    5  A    between atoms: C_7  and  C_11 
REMARK    6  A    between atoms: C_8  and  C_12 
REMARK    7  A    between atoms: C_14  and  C_15 
ROOT
HETATM    1  C   UNK N   1      36.029  14.515  11.695  0.00  0.00    -0.031 A 
HETATM    2  C   UNK N   1      35.056  13.977  12.539  0.00  0.00     0.046 A 
HETATM    3  C   UNK N   1      37.022  13.688  11.157  0.00  0.00     0.009 A 
HETATM    4  C   UNK N   1      35.086  12.622  12.868  0.00  0.00     0.076 A 
HETATM    5  C   UNK N   1      37.038  12.324  11.457  0.00  0.00     0.003 A 
HETATM    6  C   UNK N   1      36.078  11.791  12.322  0.00  0.00     0.037 A 
ENDROOT
BRANCH   1   7
HETATM    7  C   UNK N   1      36.036  15.977  11.406  0.00  0.00     0.217 C 
BRANCH   7   8
HETATM    8  O   UNK N   1      35.935  16.209  10.051  0.00  0.00    -0.317 OA
BRANCH   8   9
HETATM    9  C   UNK N   1      34.776  16.568   9.436  0.00  0.00     0.264 C 
HETATM   10  O   UNK N   1      34.582  17.745   9.185  0.00  0.00    -0.265 OA
BRANCH   9  11
HETATM   11  C   UNK N   1      33.700  15.552   9.113  0.00  0.00     0.102 A 
HETATM   12  C   UNK N   1      33.595  15.172   7.636  0.00  0.00    -0.027 A 
HETATM   13  C   UNK N   1      34.342  14.259   8.598  0.00  0.00     0.034 A 
HETATM   14  C   UNK N   1      32.237  14.683   7.153  0.00  0.00     0.016 C 
HETATM   15  C   UNK N   1      34.521  15.824   6.621  0.00  0.00     0.016 C 
BRANCH  13  16
HETATM   16  C   UNK N   1      33.533  13.126   9.164  0.00  0.00     0.016 C 
HETATM   17  C   UNK N   1      33.942  11.856   9.111  0.00  0.00     0.100 C 
HETATM   18 Cl   UNK N   1      35.462  11.402   8.346  0.00  0.00    -0.071 Cl
HETATM   19 Cl   UNK N   1      32.936  10.606   9.819  0.00  0.00    -0.071 Cl
ENDBRANCH  13  16
ENDBRANCH   9  11
ENDBRANCH   8   9
ENDBRANCH   7   8
ENDBRANCH   1   7
BRANCH   4  20
HETATM   20  O   UNK N   1      34.181  12.144  13.754  0.00  0.00    -0.311 OA
BRANCH  20  21
HETATM   21  C   UNK N   1      34.481  11.827  15.039  0.00  0.00     0.076 A 
HETATM   22  C   UNK N   1      34.532  10.487  15.474  0.00  0.00     0.037 A 
HETATM   23  C   UNK N   1      34.911  10.181  16.782  0.00  0.00     0.003 A 
HETATM   24  C   UNK N   1      35.246  11.208  17.666  0.00  0.00     0.000 A 
HETATM   25  C   UNK N   1      35.196  12.540  17.245  0.00  0.00     0.003 A 
HETATM   26  C   UNK N   1      34.817  12.848  15.933  0.00  0.00     0.037 A 
ENDBRANCH  20  21
ENDBRANCH   4  20
TORSDOF 7
ENDMDL
MODEL 9
REMARK VINA RESULT:      -7.2     15.556     19.678
REMARK  7 active torsions:
REMARK  status: ('A' for Active; 'I' for Inactive)
REMARK    1  A    between atoms: O_3  and  C_12 
REMARK    2  A    between atoms: O_3  and  C_14 
REMARK    3  A    between atoms: O_5  and  C_18 
REMARK    4  A    between atoms: O_5  and  C_21 
REMARK    5  A    between atoms: C_7  and  C_11 
REMARK    6  A    between atoms: C_8  and  C_12 
REMARK    7  A    between atoms: C_14  and  C_15 
ROOT
HETATM    1  C   UNK N   1      35.429  15.495  10.285  0.00  0.00    -0.031 A 
HETATM    2  C   UNK N   1      35.979  15.032  11.482  0.00  0.00     0.046 A 
HETATM    3  C   UNK N   1      35.173  14.598   9.242  0.00  0.00     0.009 A 
HETATM    4  C   UNK N   1      36.298  13.683  11.631  0.00  0.00     0.076 A 
HETATM    5  C   UNK N   1      35.459  13.240   9.397  0.00  0.00     0.003 A 
HETATM    6  C   UNK N   1      36.033  12.782  10.586  0.00  0.00     0.037 A 
ENDROOT
BRANCH   1   7
HETATM    7  C   UNK N   1      35.160  16.950  10.104  0.00  0.00     0.217 C 
BRANCH   7   8
HETATM    8  O   UNK N   1      34.169  17.151   9.167  0.00  0.00    -0.317 OA
BRANCH   8   9
HETATM    9  C   UNK N   1      34.290  18.011   8.121  0.00  0.00     0.264 C 
HETATM   10  O   UNK N   1      35.187  18.836   8.136  0.00  0.00    -0.265 OA
BRANCH   9  11
HETATM   11  C   UNK N   1      33.304  18.007   6.970  0.00  0.00     0.102 A 
HETATM   12  C   UNK N   1      33.558  16.937   5.909  0.00  0.00    -0.027 A 
HETATM   13  C   UNK N   1      32.501  16.702   6.978  0.00  0.00     0.034 A 
HETATM   14  C   UNK N   1      33.049  17.235   4.505  0.00  0.00     0.016 C 
HETATM   15  C   UNK N   1      34.744  15.997   6.051  0.00  0.00     0.016 C 
BRANCH  13  16
HETATM   16  C   UNK N   1      31.097  17.063   6.582  0.00  0.00     0.016 C 
HETATM   17  C   UNK N   1      30.113  17.200   7.474  0.00  0.00     0.100 C 
HETATM   18 Cl   UNK N   1      30.378  16.941   9.195  0.00  0.00    -0.071 Cl
HETATM   19 Cl   UNK N   1      28.512  17.645   6.914  0.00  0.00    -0.071 Cl
ENDBRANCH  13  16
ENDBRANCH   9  11
ENDBRANCH   8   9
ENDBRANCH   7   8
ENDBRANCH   1   7
BRANCH   4  20
HETATM   20  O   UNK N   1      36.907  13.277  12.770  0.00  0.00    -0.311 OA
BRANCH  20  21
HETATM   21  C   UNK N   1      36.259  13.109  13.951  0.00  0.00     0.076 A 
HETATM   22  C   UNK N   1      36.692  13.757  15.126  0.00  0.00     0.037 A 
HETATM   23  C   UNK N   1      35.969  13.625  16.313  0.00  0.00     0.003 A 
HETATM   24  C   UNK N   1      34.808  12.852  16.338  0.00  0.00     0.000 A 
HETATM   25  C   UNK N   1      34.372  12.205  15.178  0.00  0.00     0.003 A 
HETATM   26  C   UNK N   1      35.094  12.336  13.987  0.00  0.00     0.037 A 
ENDBRANCH  20  21
ENDBRANCH   4  20
TORSDOF 7
ENDMDL
