MODEL 1
REMARK VINA RESULT:      -5.6      0.000      0.000
REMARK  1 active torsions:
REMARK  status: ('A' for Active; 'I' for Inactive)
REMARK    1  A    between atoms: C_2  and  C_7 
ROOT
HETATM    1  N   UNK N   1      36.434  14.944  13.437  0.00  0.00    -0.420 N 
HETATM    2  C   UNK N   1      36.382  13.077  14.971  0.00  0.00     0.008 A 
HETATM    3  C   UNK N   1      35.375  12.800  13.884  0.00  0.00     0.019 A 
HETATM    4  C   UNK N   1      36.705  12.067  13.885  0.00  0.00     0.024 A 
HETATM    5  C   UNK N   1      36.782  14.529  14.789  0.00  0.00     0.128 C 
HETATM    6  C   UNK N   1      35.487  13.964  12.916  0.00  0.00     0.119 C 
HETATM    7  H   UNK N   1      36.786  15.767  12.948  0.00  0.00     0.153 HD
ENDROOT
BRANCH   2   8
HETATM    8  C   UNK N   1      35.963  12.555  16.327  0.00  0.00    -0.047 A 
HETATM    9  C   UNK N   1      36.055  11.188  16.637  0.00  0.00     0.008 A 
HETATM   10  C   UNK N   1      35.704  10.726  17.910  0.00  0.00     0.007 A 
HETATM   11  C   UNK N   1      35.262  11.627  18.882  0.00  0.00    -0.062 A 
HETATM   12  C   UNK N   1      35.159  12.986  18.580  0.00  0.00     0.007 A 
HETATM   13  C   UNK N   1      34.908  11.139  20.241  0.00  0.00     0.048 C 
HETATM   14  C   UNK N   1      35.509  13.450  17.308  0.00  0.00     0.008 A 
ENDBRANCH   2   8
TORSDOF 1
ENDMDL
MODEL 2
REMARK VINA RESULT:      -5.6     14.236     16.173
REMARK  1 active torsions:
REMARK  status: ('A' for Active; 'I' for Inactive)
REMARK    1  A    between atoms: C_2  and  C_7 
ROOT
HETATM    1  N   UNK N   1      22.244  11.607  12.172  0.00  0.00    -0.420 N 
HETATM    2  C   UNK N   1      22.200  12.564   9.953  0.00  0.00     0.008 A 
HETATM    3  C   UNK N   1      23.634  12.557  10.416  0.00  0.00     0.019 A 
HETATM    4  C   UNK N   1      23.166  11.533   9.397  0.00  0.00     0.024 A 
HETATM    5  C   UNK N   1      21.378  12.235  11.184  0.00  0.00     0.128 C 
HETATM    6  C   UNK N   1      23.621  11.894  11.781  0.00  0.00     0.119 C 
HETATM    7  H   UNK N   1      21.945  11.068  12.984  0.00  0.00     0.153 HD
ENDROOT
BRANCH   2   8
HETATM    8  C   UNK N   1      21.852  13.754   9.087  0.00  0.00    -0.047 A 
HETATM    9  C   UNK N   1      20.822  14.638   9.451  0.00  0.00     0.008 A 
HETATM   10  C   UNK N   1      20.539  15.758   8.661  0.00  0.00     0.007 A 
HETATM   11  C   UNK N   1      21.284  16.003   7.505  0.00  0.00    -0.062 A 
HETATM   12  C   UNK N   1      22.303  15.125   7.131  0.00  0.00     0.007 A 
HETATM   13  C   UNK N   1      20.996  17.203   6.676  0.00  0.00     0.048 C 
HETATM   14  C   UNK N   1      22.587  14.004   7.918  0.00  0.00     0.008 A 
ENDBRANCH   2   8
TORSDOF 1
ENDMDL
MODEL 3
REMARK VINA RESULT:      -5.2     17.422     19.791
REMARK  1 active torsions:
REMARK  status: ('A' for Active; 'I' for Inactive)
REMARK    1  A    between atoms: C_2  and  C_7 
ROOT
HETATM    1  N   UNK N   1      19.552  17.439   3.530  0.00  0.00    -0.420 N 
HETATM    2  C   UNK N   1      21.354  19.045   3.657  0.00  0.00     0.008 A 
HETATM    3  C   UNK N   1      20.709  19.194   2.304  0.00  0.00     0.019 A 
HETATM    4  C   UNK N   1      20.437  20.223   3.387  0.00  0.00     0.024 A 
HETATM    5  C   UNK N   1      20.782  17.765   4.238  0.00  0.00     0.128 C 
HETATM    6  C   UNK N   1      19.549  18.214   2.293  0.00  0.00     0.119 C 
HETATM    7  H   UNK N   1      18.830  16.790   3.840  0.00  0.00     0.153 HD
ENDROOT
BRANCH   2   8
HETATM    8  C   UNK N   1      22.847  19.286   3.644  0.00  0.00    -0.047 A 
HETATM    9  C   UNK N   1      23.402  20.351   2.914  0.00  0.00     0.008 A 
HETATM   10  C   UNK N   1      24.780  20.588   2.945  0.00  0.00     0.007 A 
HETATM   11  C   UNK N   1      25.613  19.763   3.705  0.00  0.00    -0.062 A 
HETATM   12  C   UNK N   1      25.072  18.697   4.426  0.00  0.00     0.007 A 
HETATM   13  C   UNK N   1      27.076  20.026   3.754  0.00  0.00     0.048 C 
HETATM   14  C   UNK N   1      23.694  18.459   4.396  0.00  0.00     0.008 A 
ENDBRANCH   2   8
TORSDOF 1
ENDMDL
MODEL 4
REMARK VINA RESULT:      -5.1     26.100     28.879
REMARK  1 active torsions:
REMARK  status: ('A' for Active; 'I' for Inactive)
REMARK    1  A    between atoms: C_2  and  C_7 
ROOT
HETATM    1  N   UNK N   1      26.116  28.463  -2.936  0.00  0.00    -0.420 N 
HETATM    2  C   UNK N   1      26.364  28.112  -5.315  0.00  0.00     0.008 A 
HETATM    3  C   UNK N   1      26.366  26.759  -4.654  0.00  0.00     0.019 A 
HETATM    4  C   UNK N   1      25.131  27.232  -5.399  0.00  0.00     0.024 A 
HETATM    5  C   UNK N   1      26.496  29.114  -4.183  0.00  0.00     0.128 C 
HETATM    6  C   UNK N   1      26.146  27.024  -3.175  0.00  0.00     0.119 C 
HETATM    7  H   UNK N   1      25.875  28.927  -2.061  0.00  0.00     0.153 HD
ENDROOT
BRANCH   2   8
HETATM    8  C   UNK N   1      27.266  28.193  -6.526  0.00  0.00    -0.047 A 
HETATM    9  C   UNK N   1      28.208  29.227  -6.660  0.00  0.00     0.008 A 
HETATM   10  C   UNK N   1      29.064  29.265  -7.766  0.00  0.00     0.007 A 
HETATM   11  C   UNK N   1      28.987  28.271  -8.743  0.00  0.00    -0.062 A 
HETATM   12  C   UNK N   1      28.048  27.244  -8.622  0.00  0.00     0.007 A 
HETATM   13  C   UNK N   1      29.910  28.300  -9.908  0.00  0.00     0.048 C 
HETATM   14  C   UNK N   1      27.191  27.205  -7.518  0.00  0.00     0.008 A 
ENDBRANCH   2   8
TORSDOF 1
ENDMDL
MODEL 5
REMARK VINA RESULT:      -5.0     13.912     15.791
REMARK  1 active torsions:
REMARK  status: ('A' for Active; 'I' for Inactive)
REMARK    1  A    between atoms: C_2  and  C_7 
ROOT
HETATM    1  N   UNK N   1      25.086  12.782  10.983  0.00  0.00    -0.420 N 
HETATM    2  C   UNK N   1      23.265  12.476   9.424  0.00  0.00     0.008 A 
HETATM    3  C   UNK N   1      22.935  11.691  10.667  0.00  0.00     0.019 A 
HETATM    4  C   UNK N   1      22.230  13.008  10.398  0.00  0.00     0.024 A 
HETATM    5  C   UNK N   1      24.718  12.881   9.577  0.00  0.00     0.128 C 
HETATM    6  C   UNK N   1      24.071  11.961  11.636  0.00  0.00     0.119 C 
HETATM    7  H   UNK N   1      25.901  13.205  11.426  0.00  0.00     0.153 HD
ENDROOT
BRANCH   2   8
HETATM    8  C   UNK N   1      22.775  11.823   8.150  0.00  0.00    -0.047 A 
HETATM    9  C   UNK N   1      23.465  10.739   7.581  0.00  0.00     0.008 A 
HETATM   10  C   UNK N   1      22.976  10.118   6.426  0.00  0.00     0.007 A 
HETATM   11  C   UNK N   1      21.797  10.575   5.834  0.00  0.00    -0.062 A 
HETATM   12  C   UNK N   1      21.110  11.656   6.388  0.00  0.00     0.007 A 
HETATM   13  C   UNK N   1      21.267   9.902   4.618  0.00  0.00     0.048 C 
HETATM   14  C   UNK N   1      21.596  12.279   7.542  0.00  0.00     0.008 A 
ENDBRANCH   2   8
TORSDOF 1
ENDMDL
MODEL 6
REMARK VINA RESULT:      -5.0     26.825     28.043
REMARK  1 active torsions:
REMARK  status: ('A' for Active; 'I' for Inactive)
REMARK    1  A    between atoms: C_2  and  C_7 
ROOT
HETATM    1  N   UNK N   1      27.286  28.531  -5.705  0.00  0.00    -0.420 N 
HETATM    2  C   UNK N   1      25.853  26.679  -6.306  0.00  0.00     0.008 A 
HETATM    3  C   UNK N   1      25.808  26.820  -4.807  0.00  0.00     0.019 A 
HETATM    4  C   UNK N   1      24.635  27.297  -5.644  0.00  0.00     0.024 A 
HETATM    5  C   UNK N   1      26.993  27.570  -6.761  0.00  0.00     0.128 C 
HETATM    6  C   UNK N   1      26.669  28.027  -4.482  0.00  0.00     0.119 C 
HETATM    7  H   UNK N   1      27.822  29.393  -5.803  0.00  0.00     0.153 HD
ENDROOT
BRANCH   2   8
HETATM    8  C   UNK N   1      25.757  25.247  -6.781  0.00  0.00    -0.047 A 
HETATM    9  C   UNK N   1      25.654  24.943  -8.149  0.00  0.00     0.008 A 
HETATM   10  C   UNK N   1      25.608  23.611  -8.576  0.00  0.00     0.007 A 
HETATM   11  C   UNK N   1      25.666  22.576  -7.641  0.00  0.00    -0.062 A 
HETATM   12  C   UNK N   1      25.759  22.869  -6.279  0.00  0.00     0.007 A 
HETATM   13  C   UNK N   1      25.637  21.161  -8.096  0.00  0.00     0.048 C 
HETATM   14  C   UNK N   1      25.805  24.199  -5.850  0.00  0.00     0.008 A 
ENDBRANCH   2   8
TORSDOF 1
ENDMDL
MODEL 7
REMARK VINA RESULT:      -5.0     26.536     27.723
REMARK  1 active torsions:
REMARK  status: ('A' for Active; 'I' for Inactive)
REMARK    1  A    between atoms: C_2  and  C_7 
ROOT
HETATM    1  N   UNK N   1      25.299  23.436  -7.746  0.00  0.00    -0.420 N 
HETATM    2  C   UNK N   1      26.568  25.093  -6.526  0.00  0.00     0.008 A 
HETATM    3  C   UNK N   1      26.280  23.955  -5.581  0.00  0.00     0.019 A 
HETATM    4  C   UNK N   1      27.670  24.111  -6.173  0.00  0.00     0.024 A 
HETATM    5  C   UNK N   1      25.696  24.837  -7.741  0.00  0.00     0.128 C 
HETATM    6  C   UNK N   1      25.539  22.916  -6.403  0.00  0.00     0.119 C 
HETATM    7  H   UNK N   1      24.922  22.917  -8.538  0.00  0.00     0.153 HD
ENDROOT
BRANCH   2   8
HETATM    8  C   UNK N   1      26.577  26.447  -5.854  0.00  0.00    -0.047 A 
HETATM    9  C   UNK N   1      27.339  27.508  -6.373  0.00  0.00     0.008 A 
HETATM   10  C   UNK N   1      27.305  28.767  -5.765  0.00  0.00     0.007 A 
HETATM   11  C   UNK N   1      26.509  28.976  -4.636  0.00  0.00    -0.062 A 
HETATM   12  C   UNK N   1      25.756  27.926  -4.109  0.00  0.00     0.007 A 
HETATM   13  C   UNK N   1      26.458  30.319  -4.001  0.00  0.00     0.048 C 
HETATM   14  C   UNK N   1      25.789  26.666  -4.715  0.00  0.00     0.008 A 
ENDBRANCH   2   8
TORSDOF 1
ENDMDL
MODEL 8
REMARK VINA RESULT:      -4.9     14.302     15.587
REMARK  1 active torsions:
REMARK  status: ('A' for Active; 'I' for Inactive)
REMARK    1  A    between atoms: C_2  and  C_7 
ROOT
HETATM    1  N   UNK N   1      21.652  12.869   5.420  0.00  0.00    -0.420 N 
HETATM    2  C   UNK N   1      21.504  13.222   7.807  0.00  0.00     0.008 A 
HETATM    3  C   UNK N   1      22.300  14.363   7.228  0.00  0.00     0.019 A 
HETATM    4  C   UNK N   1      20.859  14.586   7.650  0.00  0.00     0.024 A 
HETATM    5  C   UNK N   1      21.387  12.203   6.689  0.00  0.00     0.128 C 
HETATM    6  C   UNK N   1      22.314  14.133   5.727  0.00  0.00     0.119 C 
HETATM    7  H   UNK N   1      21.420  12.516   4.492  0.00  0.00     0.153 HD
ENDROOT
BRANCH   2   8
HETATM    8  C   UNK N   1      21.964  12.805   9.186  0.00  0.00    -0.047 A 
HETATM    9  C   UNK N   1      23.326  12.602   9.465  0.00  0.00     0.008 A 
HETATM   10  C   UNK N   1      23.739  12.258  10.757  0.00  0.00     0.007 A 
HETATM   11  C   UNK N   1      22.796  12.116  11.777  0.00  0.00    -0.062 A 
HETATM   12  C   UNK N   1      21.440  12.307  11.507  0.00  0.00     0.007 A 
HETATM   13  C   UNK N   1      23.238  11.769  13.154  0.00  0.00     0.048 C 
HETATM   14  C   UNK N   1      21.024  12.650  10.216  0.00  0.00     0.008 A 
ENDBRANCH   2   8
TORSDOF 1
ENDMDL
MODEL 9
REMARK VINA RESULT:      -4.9     27.997     28.767
REMARK  1 active torsions:
REMARK  status: ('A' for Active; 'I' for Inactive)
REMARK    1  A    between atoms: C_2  and  C_7 
ROOT
HETATM    1  N   UNK N   1      26.825  23.505  -8.774  0.00  0.00    -0.420 N 
HETATM    2  C   UNK N   1      26.116  25.659  -7.936  0.00  0.00     0.008 A 
HETATM    3  C   UNK N   1      27.050  25.907  -9.092  0.00  0.00     0.019 A 
HETATM    4  C   UNK N   1      25.554  26.091  -9.278  0.00  0.00     0.024 A 
HETATM    5  C   UNK N   1      26.250  24.182  -7.619  0.00  0.00     0.128 C 
HETATM    6  C   UNK N   1      27.419  24.533  -9.624  0.00  0.00     0.119 C 
HETATM    7  H   UNK N   1      26.815  22.502  -8.955  0.00  0.00     0.153 HD
ENDROOT
BRANCH   2   8
HETATM    8  C   UNK N   1      26.223  26.696  -6.841  0.00  0.00    -0.047 A 
HETATM    9  C   UNK N   1      27.256  27.649  -6.844  0.00  0.00     0.008 A 
HETATM   10  C   UNK N   1      27.318  28.629  -5.847  0.00  0.00     0.007 A 
HETATM   11  C   UNK N   1      26.347  28.665  -4.843  0.00  0.00    -0.062 A 
HETATM   12  C   UNK N   1      25.322  27.717  -4.828  0.00  0.00     0.007 A 
HETATM   13  C   UNK N   1      26.402  29.718  -3.796  0.00  0.00     0.048 C 
HETATM   14  C   UNK N   1      25.259  26.736  -5.823  0.00  0.00     0.008 A 
ENDBRANCH   2   8
TORSDOF 1
ENDMDL
