REMARK  5 active torsions:
REMARK  status: ('A' for Active; 'I' for Inactive)
REMARK    1  A    between atoms: C_7  and  C_21 
REMARK    2  A    between atoms: C_10  and  C_11 
REMARK    3  A    between atoms: C_14  and  O_20 
REMARK    4  A    between atoms: C_16  and  O_19 
REMARK    5  A    between atoms: C_21  and  C_22 
ROOT
HETATM    1  C   UNK N   1      -2.695   3.093  -0.670  0.00  0.00     0.010 C 
HETATM    2  C   UNK N   1      -4.196   2.683  -0.565  0.00  0.00     0.005 C 
HETATM    3  C   UNK N   1      -4.481   1.443   0.321  0.00  0.00     0.034 C 
HETATM    4  C   UNK N   1      -3.483   0.361   0.020  0.00  0.00    -0.075 C 
HETATM    5  C   UNK N   1      -2.032   0.763  -0.115  0.00  0.00     0.023 C 
HETATM    6  C   UNK N   1      -1.791   2.232   0.223  0.00  0.00    -0.033 C 
HETATM    7  C   UNK N   1      -0.271   2.281  -0.016  0.00  0.00    -0.002 C 
HETATM    8  C   UNK N   1      -0.984   0.044   0.725  0.00  0.00     0.010 C 
HETATM    9  C   UNK N   1       0.209   1.020   0.734  0.00  0.00     0.006 C 
HETATM   10  C   UNK N   1      -3.903  -0.882  -0.264  0.00  0.00     0.003 C 
HETATM   11  C   UNK N   1      -2.111   2.560   1.698  0.00  0.00     0.016 C 
ENDROOT
BRANCH  10  12
HETATM   12  C   UNK N   1      -2.948  -1.925  -0.689  0.00  0.00     0.003 C 
HETATM   13  C   UNK N   1      -3.270  -3.204  -0.878  0.00  0.00    -0.074 C 
HETATM   14  C   UNK N   1      -4.652  -3.744  -0.619  0.00  0.00     0.070 C 
HETATM   15  C   UNK N   1      -2.199  -4.180  -1.275  0.00  0.00     0.070 C 
HETATM   16  C   UNK N   1      -4.566  -4.853   0.436  0.00  0.00     0.152 C 
HETATM   17  C   UNK N   1      -3.476  -5.835   0.040  0.00  0.00    -0.032 C 
HETATM   18  C   UNK N   1      -2.092  -5.282  -0.216  0.00  0.00     0.152 C 
HETATM   19  C   UNK N   1      -3.733  -7.131  -0.157  0.00  0.00     0.019 C 
BRANCH  16  20
HETATM   20  O   UNK N   1      -5.809  -5.478   0.557  0.00  0.00    -0.391 OA
HETATM   21  H   UNK N   1      -6.617  -4.948   0.641  0.00  0.00     0.210 HD
ENDBRANCH  16  20
BRANCH  18  22
HETATM   22  O   UNK N   1      -1.577  -4.742   0.965  0.00  0.00    -0.391 OA
HETATM   23  H   UNK N   1      -1.074  -4.864   1.785  0.00  0.00     0.210 HD
ENDBRANCH  18  22
ENDBRANCH  10  12
BRANCH   7  24
HETATM   24  C   UNK N   1       0.475   3.567   0.407  0.00  0.00    -0.014 C 
HETATM   25  C   UNK N   1      -0.013   4.771  -0.388  0.00  0.00     0.010 C 
BRANCH  24  26
HETATM   26  C   UNK N   1       1.995   3.424   0.240  0.00  0.00     0.000 C 
HETATM   27  C   UNK N   1       2.425   3.129  -1.192  0.00  0.00     0.005 C 
ENDBRANCH  24  26
ENDBRANCH   7  24
TORSDOF 5
