REMARK  2 active torsions:
REMARK  status: ('A' for Active; 'I' for Inactive)
REMARK    1  A    between atoms: N_7  and  O_15 
REMARK       I    between atoms: C_8  and  N_12 
REMARK    2  A    between atoms: N_11  and  O_13 
ROOT
HETATM    1  C   UNK N   1      -2.861   0.612  -0.000  0.00  0.00     0.003 A 
HETATM    2  C   UNK N   1      -2.789  -0.784  -0.000  0.00  0.00     0.002 A 
HETATM    3  C   UNK N   1      -1.547  -1.426   0.000  0.00  0.00     0.035 A 
HETATM    4  C   UNK N   1      -1.693   1.374  -0.000  0.00  0.00     0.036 A 
HETATM    5  C   UNK N   1      -0.444   0.740  -0.000  0.00  0.00     0.111 A 
HETATM    6  C   UNK N   1      -0.368  -0.668  -0.000  0.00  0.00     0.112 A 
HETATM    7  N   UNK N   1       0.855  -1.271  -0.000  0.00  0.00    -0.049 N 
HETATM    8  C   UNK N   1       1.983  -0.507  -0.000  0.00  0.00     0.719 A 
HETATM    9  N   UNK N   1       1.889   0.847  -0.000  0.00  0.00    -0.103 N 
ATOM     10  HN  UNK N   1       2.743   1.406  -0.000  1.00  0.00     0.208 HD
HETATM   11  N   UNK N   1       0.707   1.464   0.000  0.00  0.00    -0.147 N 
HETATM   12  N   UNK N   1       3.255  -1.113  -0.000  0.00  0.00    -0.231 N 
HETATM   13  H   UNK N   1       3.333  -2.094  -0.000  0.00  0.00     0.174 HD
HETATM   14  H   UNK N   1       4.066  -0.555  -0.000  0.00  0.00     0.174 HD
ENDROOT
BRANCH   7  15
HETATM   15  O   UNK N   1       0.952  -2.600   0.000  0.00  0.00    -0.269 OA
ATOM     16  HO  UNK N   1       1.804  -3.020   0.000  1.00  0.00     0.245 HD
ENDBRANCH   7  15
BRANCH  11  17
HETATM   17  O   UNK N   1       0.669   2.793   0.000  0.00  0.00    -0.267 OA
ATOM     18  HO  UNK N   1       1.473   3.299   0.000  1.00  0.00     0.247 HD
ENDBRANCH  11  17
TORSDOF 2
