REMARK  10 active torsions:
REMARK  status: ('A' for Active; 'I' for Inactive)
REMARK    1  A    between atoms: N_2  and  C_4 
REMARK    2  A    between atoms: C_4  and  C_5 
REMARK    3  A    between atoms: C_5  and  N_6 
REMARK    4  A    between atoms: N_6  and  C_7 
REMARK    5  A    between atoms: C_10  and  N_25 
REMARK    6  A    between atoms: C_16  and  O_24 
REMARK    7  A    between atoms: C_19  and  O_23 
REMARK    8  A    between atoms: N_25  and  C_26 
REMARK    9  A    between atoms: C_26  and  C_27 
REMARK   10  A    between atoms: C_27  and  N_28 
ROOT
HETATM    1  C   UNK N   1       4.732  -0.994  -0.185  0.00  0.00     0.043 A 
HETATM    2  C   UNK N   1       5.921  -0.276  -0.083  0.00  0.00     0.032 A 
HETATM    3  C   UNK N   1       5.921   1.101   0.083  0.00  0.00     0.032 A 
HETATM    4  C   UNK N   1       4.732   1.819   0.185  0.00  0.00     0.043 A 
HETATM    5  C   UNK N   1       3.482   1.114   0.119  0.00  0.00     0.058 A 
HETATM    6  C   UNK N   1       3.482  -0.289  -0.119  0.00  0.00     0.058 A 
HETATM    7  C   UNK N   1       2.169  -0.977  -0.337  0.00  0.00     0.199 C 
HETATM    8  O   UNK N   1       2.148  -2.094  -0.800  0.00  0.00    -0.286 OA
HETATM    9  C   UNK N   1       0.878  -0.270  -0.155  0.00  0.00     0.065 A 
HETATM   10  C   UNK N   1      -0.357  -0.954  -0.294  0.00  0.00     0.081 A 
HETATM   11  C   UNK N   1      -1.559  -0.267  -0.141  0.00  0.00     0.040 A 
HETATM   12  C   UNK N   1      -1.559   1.092   0.141  0.00  0.00     0.040 A 
HETATM   13  C   UNK N   1      -0.357   1.779   0.294  0.00  0.00     0.081 A 
HETATM   14  C   UNK N   1       0.878   1.095   0.155  0.00  0.00     0.065 A 
HETATM   15  C   UNK N   1       2.169   1.802   0.337  0.00  0.00     0.199 C 
HETATM   16  O   UNK N   1       2.148   2.919   0.800  0.00  0.00    -0.286 OA
ENDROOT
BRANCH   1  17
HETATM   17  N   UNK N   1       4.850  -2.414  -0.289  0.00  0.00    -0.387 N 
HETATM   18  H   UNK N   1       5.526  -2.782  -0.903  0.00  0.00     0.159 HD
BRANCH  17  19
HETATM   19  C   UNK N   1       4.028  -3.339   0.463  0.00  0.00     0.156 C 
BRANCH  19  20
HETATM   20  C   UNK N   1       3.632  -4.553  -0.393  0.00  0.00     0.330 C 
BRANCH  20  21
HETATM   21  N   UNK N   1       2.273  -5.073  -0.144  0.00  0.00     0.007 N 
HETATM   22  C   UNK N   1       1.744  -4.780   1.183  0.00  0.00     0.355 C 
HETATM   23  C   UNK N   1       2.293  -6.512  -0.316  0.00  0.00     0.355 C 
HETATM   24  O   UNK N   1       1.422  -4.572  -1.069  0.00  0.00    -0.065 OA
ENDBRANCH  20  21
ENDBRANCH  19  20
ENDBRANCH  17  19
ENDBRANCH   1  17
BRANCH   4  25
HETATM   25  N   UNK N   1       4.850   3.239   0.289  0.00  0.00    -0.387 N 
HETATM   26  H   UNK N   1       5.526   3.607   0.903  0.00  0.00     0.159 HD
BRANCH  25  27
HETATM   27  C   UNK N   1       4.028   4.164  -0.463  0.00  0.00     0.156 C 
BRANCH  27  28
HETATM   28  C   UNK N   1       3.632   5.378   0.393  0.00  0.00     0.330 C 
BRANCH  28  29
HETATM   29  N   UNK N   1       2.273   5.898   0.144  0.00  0.00     0.007 N 
HETATM   30  C   UNK N   1       1.744   5.605  -1.183  0.00  0.00     0.355 C 
HETATM   31  C   UNK N   1       2.293   7.337   0.316  0.00  0.00     0.355 C 
HETATM   32  O   UNK N   1       1.422   5.397   1.069  0.00  0.00    -0.065 OA
ENDBRANCH  28  29
ENDBRANCH  27  28
ENDBRANCH  25  27
ENDBRANCH   4  25
BRANCH  10  33
HETATM   33  O   UNK N   1      -0.401  -2.270  -0.560  0.00  0.00    -0.360 OA
HETATM   34  H   UNK N   1      -1.212  -2.703  -0.745  0.00  0.00     0.217 HD
ENDBRANCH  10  33
BRANCH  13  35
HETATM   35  O   UNK N   1      -0.401   3.095   0.560  0.00  0.00    -0.360 OA
HETATM   36  H   UNK N   1       0.378   3.581   0.745  0.00  0.00     0.217 HD
ENDBRANCH  13  35
TORSDOF 10
