MODEL 1
REMARK VINA RESULT:      -6.9      0.000      0.000
REMARK  4 active torsions:
REMARK  status: ('A' for Active; 'I' for Inactive)
REMARK    1  A    between atoms: O_1  and  C_7 
REMARK    2  A    between atoms: N_3  and  C_6 
REMARK    3  A    between atoms: N_3  and  C_16 
REMARK       I    between atoms: N_4  and  C_17 
REMARK    4  A    between atoms: C_16  and  C_17 
ROOT
HETATM    1  O   UNK N   1      29.700  23.230  -1.918  0.00  0.00    -0.272 OA
HETATM    2  N   UNK N   1      30.073  22.378  -3.960  0.00  0.00    -0.334 N 
HETATM    3  N   UNK N   1      27.882  22.641  -6.687  0.00  0.00    -0.195 NA
HETATM    4  C   UNK N   1      29.653  23.380  -3.133  0.00  0.00     0.238 C 
HETATM    5  C   UNK N   1      30.165  22.487  -5.400  0.00  0.00     0.194 C 
HETATM    6  C   UNK N   1      30.580  21.150  -3.422  0.00  0.00     0.127 C 
HETATM    7  C   UNK N   1      30.789  21.182  -5.853  0.00  0.00     0.042 C 
HETATM    8  C   UNK N   1      31.182  20.412  -4.599  0.00  0.00     0.023 C 
HETATM    9  C   UNK N   1      28.869  22.571  -6.086  0.00  0.00     0.084 C 
ENDROOT
BRANCH   4  10
HETATM   10  C   UNK N   1      29.135  24.672  -3.672  0.00  0.00     0.218 C 
BRANCH  10  11
HETATM   11  N   UNK N   1      27.678  24.650  -3.572  0.00  0.00    -0.404 N 
HETATM   12  H   UNK N   1      27.157  23.975  -3.013  0.00  0.00     0.154 HD
BRANCH  11  13
HETATM   13  C   UNK N   1      27.051  25.704  -4.368  0.00  0.00     0.029 C 
HETATM   14  C   UNK N   1      26.633  26.896  -3.492  0.00  0.00     0.068 C 
HETATM   15  C   UNK N   1      26.022  28.014  -4.339  0.00  0.00     0.061 C 
HETATM   16  C   UNK N   1      27.067  28.491  -5.358  0.00  0.00     0.042 C 
HETATM   17  C   UNK N   1      24.793  27.466  -5.077  0.00  0.00     0.042 C 
HETATM   18  C   UNK N   1      27.488  27.317  -6.257  0.00  0.00    -0.009 C 
HETATM   19  C   UNK N   1      28.086  26.201  -5.390  0.00  0.00     0.035 C 
HETATM   20  C   UNK N   1      26.254  26.773  -6.992  0.00  0.00     0.009 C 
HETATM   21  C   UNK N   1      25.205  26.289  -5.978  0.00  0.00    -0.009 C 
HETATM   22  C   UNK N   1      25.817  25.170  -5.118  0.00  0.00     0.035 C 
BRANCH  15  23
HETATM   23  O   UNK N   1      25.647  29.076  -3.518  0.00  0.00    -0.390 OA
HETATM   24  H   UNK N   1      25.653  28.970  -2.553  0.00  0.00     0.210 HD
ENDBRANCH  15  23
ENDBRANCH  11  13
ENDBRANCH  10  11
ENDBRANCH   4  10
TORSDOF 4
ENDMDL
MODEL 2
REMARK VINA RESULT:      -6.7      1.474      2.157
REMARK  4 active torsions:
REMARK  status: ('A' for Active; 'I' for Inactive)
REMARK    1  A    between atoms: O_1  and  C_7 
REMARK    2  A    between atoms: N_3  and  C_6 
REMARK    3  A    between atoms: N_3  and  C_16 
REMARK       I    between atoms: N_4  and  C_17 
REMARK    4  A    between atoms: C_16  and  C_17 
ROOT
HETATM    1  O   UNK N   1      29.649  23.729  -6.669  0.00  0.00    -0.272 OA
HETATM    2  N   UNK N   1      30.430  22.335  -5.094  0.00  0.00    -0.334 N 
HETATM    3  N   UNK N   1      30.514  23.021  -1.655  0.00  0.00    -0.195 NA
HETATM    4  C   UNK N   1      29.508  23.227  -5.560  0.00  0.00     0.238 C 
HETATM    5  C   UNK N   1      30.307  21.601  -3.853  0.00  0.00     0.194 C 
HETATM    6  C   UNK N   1      31.564  21.970  -5.893  0.00  0.00     0.127 C 
HETATM    7  C   UNK N   1      31.497  20.662  -3.833  0.00  0.00     0.042 C 
HETATM    8  C   UNK N   1      32.196  20.793  -5.180  0.00  0.00     0.023 C 
HETATM    9  C   UNK N   1      30.428  22.427  -2.645  0.00  0.00     0.084 C 
ENDROOT
BRANCH   4  10
HETATM   10  C   UNK N   1      28.313  23.610  -4.752  0.00  0.00     0.218 C 
BRANCH  10  11
HETATM   11  N   UNK N   1      28.529  24.961  -4.241  0.00  0.00    -0.404 N 
HETATM   12  H   UNK N   1      29.238  25.199  -3.548  0.00  0.00     0.154 HD
BRANCH  11  13
HETATM   13  C   UNK N   1      27.612  25.933  -4.835  0.00  0.00     0.029 C 
HETATM   14  C   UNK N   1      26.918  26.782  -3.757  0.00  0.00     0.068 C 
HETATM   15  C   UNK N   1      25.999  27.828  -4.389  0.00  0.00     0.061 C 
HETATM   16  C   UNK N   1      26.839  28.753  -5.281  0.00  0.00     0.042 C 
HETATM   17  C   UNK N   1      24.938  27.113  -5.239  0.00  0.00     0.042 C 
HETATM   18  C   UNK N   1      27.531  27.927  -6.377  0.00  0.00    -0.009 C 
HETATM   19  C   UNK N   1      28.438  26.874  -5.726  0.00  0.00     0.035 C 
HETATM   20  C   UNK N   1      26.465  27.214  -7.224  0.00  0.00     0.009 C 
HETATM   21  C   UNK N   1      25.622  26.282  -6.338  0.00  0.00    -0.009 C 
HETATM   22  C   UNK N   1      26.543  25.232  -5.693  0.00  0.00     0.035 C 
BRANCH  15  23
HETATM   23  O   UNK N   1      25.378  28.575  -3.388  0.00  0.00    -0.390 OA
HETATM   24  H   UNK N   1      24.448  28.833  -3.481  0.00  0.00     0.210 HD
ENDBRANCH  15  23
ENDBRANCH  11  13
ENDBRANCH  10  11
ENDBRANCH   4  10
TORSDOF 4
ENDMDL
MODEL 3
REMARK VINA RESULT:      -6.7     14.794     17.980
REMARK  4 active torsions:
REMARK  status: ('A' for Active; 'I' for Inactive)
REMARK    1  A    between atoms: O_1  and  C_7 
REMARK    2  A    between atoms: N_3  and  C_6 
REMARK    3  A    between atoms: N_3  and  C_16 
REMARK       I    between atoms: N_4  and  C_17 
REMARK    4  A    between atoms: C_16  and  C_17 
ROOT
HETATM    1  O   UNK N   1      34.940  11.869   9.450  0.00  0.00    -0.272 OA
HETATM    2  N   UNK N   1      35.380  13.366  11.063  0.00  0.00    -0.334 N 
HETATM    3  N   UNK N   1      35.490  16.843  10.613  0.00  0.00    -0.195 NA
HETATM    4  C   UNK N   1      34.667  12.940   9.979  0.00  0.00     0.238 C 
HETATM    5  C   UNK N   1      35.075  14.555  11.830  0.00  0.00     0.194 C 
HETATM    6  C   UNK N   1      36.443  12.567  11.599  0.00  0.00     0.127 C 
HETATM    7  C   UNK N   1      36.055  14.536  12.987  0.00  0.00     0.042 C 
HETATM    8  C   UNK N   1      36.808  13.215  12.918  0.00  0.00     0.023 C 
HETATM    9  C   UNK N   1      35.319  15.815  11.117  0.00  0.00     0.084 C 
ENDROOT
BRANCH   4  10
HETATM   10  C   UNK N   1      33.547  13.749   9.413  0.00  0.00     0.218 C 
BRANCH  10  11
HETATM   11  N   UNK N   1      33.859  14.035   8.016  0.00  0.00    -0.404 N 
HETATM   12  H   UNK N   1      34.391  13.408   7.413  0.00  0.00     0.154 HD
BRANCH  11  13
HETATM   13  C   UNK N   1      33.324  15.324   7.580  0.00  0.00     0.029 C 
HETATM   14  C   UNK N   1      32.462  15.975   8.674  0.00  0.00     0.068 C 
HETATM   15  C   UNK N   1      31.947  17.343   8.228  0.00  0.00     0.061 C 
HETATM   16  C   UNK N   1      33.148  18.255   7.938  0.00  0.00     0.042 C 
HETATM   17  C   UNK N   1      31.109  17.170   6.953  0.00  0.00     0.042 C 
HETATM   18  C   UNK N   1      34.017  17.632   6.834  0.00  0.00    -0.009 C 
HETATM   19  C   UNK N   1      34.513  16.254   7.292  0.00  0.00     0.035 C 
HETATM   20  C   UNK N   1      33.173  17.461   5.561  0.00  0.00     0.009 C 
HETATM   21  C   UNK N   1      31.971  16.545   5.842  0.00  0.00    -0.009 C 
HETATM   22  C   UNK N   1      32.483  15.169   6.300  0.00  0.00     0.035 C 
BRANCH  15  23
HETATM   23  O   UNK N   1      31.164  17.904   9.236  0.00  0.00    -0.390 OA
HETATM   24  H   UNK N   1      31.165  17.516  10.125  0.00  0.00     0.210 HD
ENDBRANCH  15  23
ENDBRANCH  11  13
ENDBRANCH  10  11
ENDBRANCH   4  10
TORSDOF 4
ENDMDL
MODEL 4
REMARK VINA RESULT:      -6.5      1.251      2.172
REMARK  4 active torsions:
REMARK  status: ('A' for Active; 'I' for Inactive)
REMARK    1  A    between atoms: O_1  and  C_7 
REMARK    2  A    between atoms: N_3  and  C_6 
REMARK    3  A    between atoms: N_3  and  C_16 
REMARK       I    between atoms: N_4  and  C_17 
REMARK    4  A    between atoms: C_16  and  C_17 
ROOT
HETATM    1  O   UNK N   1      30.122  23.636  -2.271  0.00  0.00    -0.272 OA
HETATM    2  N   UNK N   1      30.303  22.460  -4.173  0.00  0.00    -0.334 N 
HETATM    3  N   UNK N   1      27.906  22.387  -6.734  0.00  0.00    -0.195 NA
HETATM    4  C   UNK N   1      29.981  23.596  -3.487  0.00  0.00     0.238 C 
HETATM    5  C   UNK N   1      30.281  22.339  -5.615  0.00  0.00     0.194 C 
HETATM    6  C   UNK N   1      30.815  21.311  -3.486  0.00  0.00     0.127 C 
HETATM    7  C   UNK N   1      30.826  20.954  -5.900  0.00  0.00     0.042 C 
HETATM    8  C   UNK N   1      31.297  20.373  -4.573  0.00  0.00     0.023 C 
HETATM    9  C   UNK N   1      28.936  22.370  -6.206  0.00  0.00     0.084 C 
ENDROOT
BRANCH   4  10
HETATM   10  C   UNK N   1      29.460  24.809  -4.183  0.00  0.00     0.218 C 
BRANCH  10  11
HETATM   11  N   UNK N   1      28.131  25.098  -3.652  0.00  0.00    -0.404 N 
HETATM   12  H   UNK N   1      27.712  24.599  -2.867  0.00  0.00     0.154 HD
BRANCH  11  13
HETATM   13  C   UNK N   1      27.467  26.182  -4.374  0.00  0.00     0.029 C 
HETATM   14  C   UNK N   1      26.944  25.710  -5.741  0.00  0.00     0.068 C 
HETATM   15  C   UNK N   1      26.209  26.837  -6.467  0.00  0.00     0.061 C 
HETATM   16  C   UNK N   1      25.017  27.285  -5.610  0.00  0.00     0.042 C 
HETATM   17  C   UNK N   1      27.174  28.015  -6.668  0.00  0.00     0.042 C 
HETATM   18  C   UNK N   1      25.518  27.777  -4.242  0.00  0.00    -0.009 C 
HETATM   19  C   UNK N   1      26.265  26.639  -3.533  0.00  0.00     0.035 C 
HETATM   20  C   UNK N   1      26.482  28.955  -4.449  0.00  0.00     0.009 C 
HETATM   21  C   UNK N   1      27.682  28.513  -5.304  0.00  0.00    -0.009 C 
HETATM   22  C   UNK N   1      28.420  27.373  -4.581  0.00  0.00     0.035 C 
BRANCH  15  23
HETATM   23  O   UNK N   1      25.754  26.382  -7.704  0.00  0.00    -0.390 OA
HETATM   24  H   UNK N   1      25.383  27.008  -8.346  0.00  0.00     0.210 HD
ENDBRANCH  15  23
ENDBRANCH  11  13
ENDBRANCH  10  11
ENDBRANCH   4  10
TORSDOF 4
ENDMDL
MODEL 5
REMARK VINA RESULT:      -6.4      2.074      6.869
REMARK  4 active torsions:
REMARK  status: ('A' for Active; 'I' for Inactive)
REMARK    1  A    between atoms: O_1  and  C_7 
REMARK    2  A    between atoms: N_3  and  C_6 
REMARK    3  A    between atoms: N_3  and  C_16 
REMARK       I    between atoms: N_4  and  C_17 
REMARK    4  A    between atoms: C_16  and  C_17 
ROOT
HETATM    1  O   UNK N   1      29.901  27.108  -4.765  0.00  0.00    -0.272 OA
HETATM    2  N   UNK N   1      27.693  27.307  -4.417  0.00  0.00    -0.334 N 
HETATM    3  N   UNK N   1      25.230  25.287  -5.886  0.00  0.00    -0.195 NA
HETATM    4  C   UNK N   1      28.826  26.558  -4.558  0.00  0.00     0.238 C 
HETATM    5  C   UNK N   1      26.396  26.773  -4.063  0.00  0.00     0.194 C 
HETATM    6  C   UNK N   1      27.748  28.737  -4.500  0.00  0.00     0.127 C 
HETATM    7  C   UNK N   1      25.502  27.988  -3.909  0.00  0.00     0.042 C 
HETATM    8  C   UNK N   1      26.389  29.219  -4.038  0.00  0.00     0.023 C 
HETATM    9  C   UNK N   1      25.774  25.947  -5.106  0.00  0.00     0.084 C 
ENDROOT
BRANCH   4  10
HETATM   10  C   UNK N   1      28.796  25.068  -4.462  0.00  0.00     0.218 C 
BRANCH  10  11
HETATM   11  N   UNK N   1      29.770  24.662  -3.454  0.00  0.00    -0.404 N 
HETATM   12  H   UNK N   1      29.871  25.117  -2.546  0.00  0.00     0.154 HD
BRANCH  11  13
HETATM   13  C   UNK N   1      30.585  23.531  -3.893  0.00  0.00     0.029 C 
HETATM   14  C   UNK N   1      31.231  22.806  -2.700  0.00  0.00     0.068 C 
HETATM   15  C   UNK N   1      32.042  21.596  -3.165  0.00  0.00     0.061 C 
HETATM   16  C   UNK N   1      31.104  20.619  -3.887  0.00  0.00     0.042 C 
HETATM   17  C   UNK N   1      33.138  22.070  -4.129  0.00  0.00     0.042 C 
HETATM   18  C   UNK N   1      30.459  21.317  -5.095  0.00  0.00    -0.009 C 
HETATM   19  C   UNK N   1      29.661  22.536  -4.613  0.00  0.00     0.035 C 
HETATM   20  C   UNK N   1      31.560  21.790  -6.057  0.00  0.00     0.009 C 
HETATM   21  C   UNK N   1      32.501  22.773  -5.341  0.00  0.00    -0.009 C 
HETATM   22  C   UNK N   1      31.689  23.988  -4.864  0.00  0.00     0.035 C 
BRANCH  15  23
HETATM   23  O   UNK N   1      32.620  20.965  -2.064  0.00  0.00    -0.390 OA
HETATM   24  H   UNK N   1      33.572  20.779  -2.056  0.00  0.00     0.210 HD
ENDBRANCH  15  23
ENDBRANCH  11  13
ENDBRANCH  10  11
ENDBRANCH   4  10
TORSDOF 4
ENDMDL
MODEL 6
REMARK VINA RESULT:      -6.2      2.250      3.290
REMARK  4 active torsions:
REMARK  status: ('A' for Active; 'I' for Inactive)
REMARK    1  A    between atoms: O_1  and  C_7 
REMARK    2  A    between atoms: N_3  and  C_6 
REMARK    3  A    between atoms: N_3  and  C_16 
REMARK       I    between atoms: N_4  and  C_17 
REMARK    4  A    between atoms: C_16  and  C_17 
ROOT
HETATM    1  O   UNK N   1      31.308  24.254  -6.460  0.00  0.00    -0.272 OA
HETATM    2  N   UNK N   1      31.751  22.826  -4.787  0.00  0.00    -0.334 N 
HETATM    3  N   UNK N   1      30.434  23.047  -1.543  0.00  0.00    -0.195 NA
HETATM    4  C   UNK N   1      30.889  23.591  -5.519  0.00  0.00     0.238 C 
HETATM    5  C   UNK N   1      31.351  21.922  -3.731  0.00  0.00     0.194 C 
HETATM    6  C   UNK N   1      33.147  22.782  -5.112  0.00  0.00     0.127 C 
HETATM    7  C   UNK N   1      32.628  21.220  -3.311  0.00  0.00     0.042 C 
HETATM    8  C   UNK N   1      33.720  21.655  -4.280  0.00  0.00     0.023 C 
HETATM    9  C   UNK N   1      30.844  22.586  -2.523  0.00  0.00     0.084 C 
ENDROOT
BRANCH   4  10
HETATM   10  C   UNK N   1      29.430  23.640  -5.208  0.00  0.00     0.218 C 
BRANCH  10  11
HETATM   11  N   UNK N   1      29.152  24.914  -4.552  0.00  0.00    -0.404 N 
HETATM   12  H   UNK N   1      29.656  25.253  -3.732  0.00  0.00     0.154 HD
BRANCH  11  13
HETATM   13  C   UNK N   1      28.068  25.649  -5.201  0.00  0.00     0.029 C 
HETATM   14  C   UNK N   1      27.235  24.733  -6.113  0.00  0.00     0.068 C 
HETATM   15  C   UNK N   1      26.075  25.499  -6.750  0.00  0.00     0.061 C 
HETATM   16  C   UNK N   1      25.169  26.043  -5.636  0.00  0.00     0.042 C 
HETATM   17  C   UNK N   1      26.639  26.666  -7.574  0.00  0.00     0.042 C 
HETATM   18  C   UNK N   1      25.978  26.975  -4.720  0.00  0.00    -0.009 C 
HETATM   19  C   UNK N   1      27.145  26.195  -4.100  0.00  0.00     0.035 C 
HETATM   20  C   UNK N   1      26.539  28.140  -5.550  0.00  0.00     0.009 C 
HETATM   21  C   UNK N   1      27.452  27.603  -6.665  0.00  0.00    -0.009 C 
HETATM   22  C   UNK N   1      28.616  26.825  -6.030  0.00  0.00     0.035 C 
BRANCH  15  23
HETATM   23  O   UNK N   1      25.344  24.646  -7.576  0.00  0.00    -0.390 OA
HETATM   24  H   UNK N   1      24.560  24.190  -7.232  0.00  0.00     0.210 HD
ENDBRANCH  15  23
ENDBRANCH  11  13
ENDBRANCH  10  11
ENDBRANCH   4  10
TORSDOF 4
ENDMDL
MODEL 7
REMARK VINA RESULT:      -6.2     14.753     18.011
REMARK  4 active torsions:
REMARK  status: ('A' for Active; 'I' for Inactive)
REMARK    1  A    between atoms: O_1  and  C_7 
REMARK    2  A    between atoms: N_3  and  C_6 
REMARK    3  A    between atoms: N_3  and  C_16 
REMARK       I    between atoms: N_4  and  C_17 
REMARK    4  A    between atoms: C_16  and  C_17 
ROOT
HETATM    1  O   UNK N   1      34.023  11.276   9.173  0.00  0.00    -0.272 OA
HETATM    2  N   UNK N   1      34.722  12.747  10.717  0.00  0.00    -0.334 N 
HETATM    3  N   UNK N   1      37.030  15.327  10.145  0.00  0.00    -0.195 NA
HETATM    4  C   UNK N   1      34.294  12.436   9.458  0.00  0.00     0.238 C 
HETATM    5  C   UNK N   1      34.963  14.092  11.192  0.00  0.00     0.194 C 
HETATM    6  C   UNK N   1      34.851  11.728  11.717  0.00  0.00     0.127 C 
HETATM    7  C   UNK N   1      35.298  13.933  12.662  0.00  0.00     0.042 C 
HETATM    8  C   UNK N   1      35.081  12.468  13.018  0.00  0.00     0.023 C 
HETATM    9  C   UNK N   1      36.126  14.751  10.585  0.00  0.00     0.084 C 
ENDROOT
BRANCH   4  10
HETATM   10  C   UNK N   1      34.139  13.483   8.404  0.00  0.00     0.218 C 
BRANCH  10  11
HETATM   11  N   UNK N   1      32.711  13.711   8.203  0.00  0.00    -0.404 N 
HETATM   12  H   UNK N   1      32.000  12.988   8.310  0.00  0.00     0.154 HD
BRANCH  11  13
HETATM   13  C   UNK N   1      32.417  15.094   7.830  0.00  0.00     0.029 C 
HETATM   14  C   UNK N   1      33.692  15.850   7.423  0.00  0.00     0.068 C 
HETATM   15  C   UNK N   1      33.368  17.280   6.987  0.00  0.00     0.061 C 
HETATM   16  C   UNK N   1      32.418  17.229   5.782  0.00  0.00     0.042 C 
HETATM   17  C   UNK N   1      32.688  18.015   8.152  0.00  0.00     0.042 C 
HETATM   18  C   UNK N   1      31.128  16.490   6.172  0.00  0.00    -0.009 C 
HETATM   19  C   UNK N   1      31.472  15.063   6.619  0.00  0.00     0.035 C 
HETATM   20  C   UNK N   1      30.452  17.229   7.337  0.00  0.00     0.009 C 
HETATM   21  C   UNK N   1      31.396  17.281   8.549  0.00  0.00    -0.009 C 
HETATM   22  C   UNK N   1      31.731  15.845   8.986  0.00  0.00     0.035 C 
BRANCH  15  23
HETATM   23  O   UNK N   1      34.543  17.942   6.632  0.00  0.00    -0.390 OA
HETATM   24  H   UNK N   1      35.393  17.475   6.667  0.00  0.00     0.210 HD
ENDBRANCH  15  23
ENDBRANCH  11  13
ENDBRANCH  10  11
ENDBRANCH   4  10
TORSDOF 4
ENDMDL
MODEL 8
REMARK VINA RESULT:      -6.2     15.381     18.630
REMARK  4 active torsions:
REMARK  status: ('A' for Active; 'I' for Inactive)
REMARK    1  A    between atoms: O_1  and  C_7 
REMARK    2  A    between atoms: N_3  and  C_6 
REMARK    3  A    between atoms: N_3  and  C_16 
REMARK       I    between atoms: N_4  and  C_17 
REMARK    4  A    between atoms: C_16  and  C_17 
ROOT
HETATM    1  O   UNK N   1      34.186  14.922  11.685  0.00  0.00    -0.272 OA
HETATM    2  N   UNK N   1      35.807  13.379  11.851  0.00  0.00    -0.334 N 
HETATM    3  N   UNK N   1      36.288  10.711   9.624  0.00  0.00    -0.195 NA
HETATM    4  C   UNK N   1      35.043  14.248  11.126  0.00  0.00     0.238 C 
HETATM    5  C   UNK N   1      36.916  12.619  11.315  0.00  0.00     0.194 C 
HETATM    6  C   UNK N   1      35.626  13.252  13.267  0.00  0.00     0.127 C 
HETATM    7  C   UNK N   1      37.516  11.907  12.512  0.00  0.00     0.042 C 
HETATM    8  C   UNK N   1      36.797  12.424  13.751  0.00  0.00     0.023 C 
HETATM    9  C   UNK N   1      36.527  11.561  10.373  0.00  0.00     0.084 C 
ENDROOT
BRANCH   4  10
HETATM   10  C   UNK N   1      35.224  14.407   9.652  0.00  0.00     0.218 C 
BRANCH  10  11
HETATM   11  N   UNK N   1      33.925  14.214   9.015  0.00  0.00    -0.404 N 
HETATM   12  H   UNK N   1      33.400  13.340   9.049  0.00  0.00     0.154 HD
BRANCH  11  13
HETATM   13  C   UNK N   1      33.463  15.414   8.320  0.00  0.00     0.029 C 
HETATM   14  C   UNK N   1      34.477  16.562   8.447  0.00  0.00     0.068 C 
HETATM   15  C   UNK N   1      34.008  17.798   7.677  0.00  0.00     0.061 C 
HETATM   16  C   UNK N   1      33.860  17.431   6.193  0.00  0.00     0.042 C 
HETATM   17  C   UNK N   1      32.651  18.250   8.236  0.00  0.00     0.042 C 
HETATM   18  C   UNK N   1      32.837  16.293   6.041  0.00  0.00    -0.009 C 
HETATM   19  C   UNK N   1      33.316  15.067   6.830  0.00  0.00     0.035 C 
HETATM   20  C   UNK N   1      31.481  16.751   6.602  0.00  0.00     0.009 C 
HETATM   21  C   UNK N   1      31.621  17.116   8.089  0.00  0.00    -0.009 C 
HETATM   22  C   UNK N   1      32.101  15.879   8.867  0.00  0.00     0.035 C 
BRANCH  15  23
HETATM   23  O   UNK N   1      34.942  18.823   7.816  0.00  0.00    -0.390 OA
HETATM   24  H   UNK N   1      34.694  19.738   7.611  0.00  0.00     0.210 HD
ENDBRANCH  15  23
ENDBRANCH  11  13
ENDBRANCH  10  11
ENDBRANCH   4  10
TORSDOF 4
ENDMDL
MODEL 9
REMARK VINA RESULT:      -6.0     16.436     20.543
REMARK  4 active torsions:
REMARK  status: ('A' for Active; 'I' for Inactive)
REMARK    1  A    between atoms: O_1  and  C_7 
REMARK    2  A    between atoms: N_3  and  C_6 
REMARK    3  A    between atoms: N_3  and  C_16 
REMARK       I    between atoms: N_4  and  C_17 
REMARK    4  A    between atoms: C_16  and  C_17 
ROOT
HETATM    1  O   UNK N   1      34.928  17.193   9.985  0.00  0.00    -0.272 OA
HETATM    2  N   UNK N   1      34.482  16.559   7.879  0.00  0.00    -0.334 N 
HETATM    3  N   UNK N   1      36.648  14.717   5.825  0.00  0.00    -0.195 NA
HETATM    4  C   UNK N   1      34.967  16.315   9.132  0.00  0.00     0.238 C 
HETATM    5  C   UNK N   1      34.377  15.567   6.832  0.00  0.00     0.194 C 
HETATM    6  C   UNK N   1      33.916  17.835   7.551  0.00  0.00     0.127 C 
HETATM    7  C   UNK N   1      33.677  16.276   5.689  0.00  0.00     0.042 C 
HETATM    8  C   UNK N   1      33.259  17.648   6.200  0.00  0.00     0.023 C 
HETATM    9  C   UNK N   1      35.666  15.115   6.293  0.00  0.00     0.084 C 
ENDROOT
BRANCH   4  10
HETATM   10  C   UNK N   1      35.548  14.989   9.500  0.00  0.00     0.218 C 
BRANCH  10  11
HETATM   11  N   UNK N   1      36.265  15.147  10.762  0.00  0.00    -0.404 N 
HETATM   12  H   UNK N   1      36.776  15.990  11.024  0.00  0.00     0.154 HD
BRANCH  11  13
HETATM   13  C   UNK N   1      36.169  13.958  11.608  0.00  0.00     0.029 C 
HETATM   14  C   UNK N   1      34.980  13.072  11.200  0.00  0.00     0.068 C 
HETATM   15  C   UNK N   1      34.917  11.807  12.057  0.00  0.00     0.061 C 
HETATM   16  C   UNK N   1      36.215  11.011  11.864  0.00  0.00     0.042 C 
HETATM   17  C   UNK N   1      34.771  12.211  13.532  0.00  0.00     0.042 C 
HETATM   18  C   UNK N   1      37.418  11.873  12.282  0.00  0.00    -0.009 C 
HETATM   19  C   UNK N   1      37.459  13.143  11.422  0.00  0.00     0.035 C 
HETATM   20  C   UNK N   1      37.267  12.274  13.758  0.00  0.00     0.009 C 
HETATM   21  C   UNK N   1      35.970  13.075  13.958  0.00  0.00    -0.009 C 
HETATM   22  C   UNK N   1      36.025  14.344  13.091  0.00  0.00     0.035 C 
BRANCH  15  23
HETATM   23  O   UNK N   1      33.826  11.029  11.669  0.00  0.00    -0.390 OA
HETATM   24  H   UNK N   1      33.009  11.455  11.367  0.00  0.00     0.210 HD
ENDBRANCH  15  23
ENDBRANCH  11  13
ENDBRANCH  10  11
ENDBRANCH   4  10
TORSDOF 4
ENDMDL
