MODEL 1
REMARK VINA RESULT:      -8.3      0.000      0.000
REMARK  20 active torsions:
REMARK  status: ('A' for Active; 'I' for Inactive)
REMARK    1  A    between atoms: C_4  and  C_3 
REMARK    2  A    between atoms: C_7  and  C_3 
REMARK    3  A    between atoms: C_12  and  C_4 
REMARK    4  A    between atoms: C_32  and  C_7 
REMARK    5  A    between atoms: N_41  and  C_12 
REMARK    6  A    between atoms: C_25  and  C_23 
REMARK    7  A    between atoms: C_33  and  C_23 
REMARK    8  A    between atoms: N_50  and  C_27 
REMARK    9  A    between atoms: N_53  and  C_28 
REMARK   10  A    between atoms: C_36  and  C_32 
REMARK   11  A    between atoms: C_32  and  N_44 
REMARK   12  A    between atoms: C_35  and  C_33 
REMARK   13  A    between atoms: C_33  and  N_48 
REMARK   14  A    between atoms: O_54  and  C_34 
REMARK   15  A    between atoms: N_44  and  C_35 
REMARK   16  A    between atoms: C_35  and  O_55 
REMARK       I    between atoms: N_51  and  C_36 
REMARK   17  A    between atoms: N_48  and  C_37 
REMARK   18  A    between atoms: N_52  and  C_37 
REMARK   19  A    between atoms: C_37  and  O_57 
REMARK   20  A    between atoms: O_58  and  C_38 
ROOT
HETATM    1  C   UNK N   1      23.991  18.202   3.255  0.00  0.00     0.163 C 
ENDROOT
BRANCH   1   2
HETATM    2  C   UNK N   1      24.183  16.868   3.991  0.00  0.00     0.072 C 
BRANCH   2   3
HETATM    3  C   UNK N   1      24.335  15.657   3.133  0.00  0.00    -0.053 A 
HETATM    4  C   UNK N   1      23.211  15.184   2.455  0.00  0.00     0.029 A 
HETATM    5  C   UNK N   1      23.281  14.018   1.694  0.00  0.00     0.045 A 
HETATM    6  C   UNK N   1      24.492  13.314   1.603  0.00  0.00     0.100 A 
HETATM    7 Br   UNK N   1      21.710  13.397   0.804  0.00  0.00    -0.048 Br
HETATM    8  C   UNK N   1      25.625  13.787   2.286  0.00  0.00     0.045 A 
HETATM    9  C   UNK N   1      25.542  14.950   3.058  0.00  0.00     0.029 A 
HETATM   10 Br   UNK N   1      27.285  12.849   2.178  0.00  0.00    -0.048 Br
BRANCH   6  11
HETATM   11  O   UNK N   1      24.563  12.190   0.870  0.00  0.00    -0.358 OA
HETATM   12  H   UNK N   1      25.395  11.803   0.679  0.00  0.00     0.217 HD
ENDBRANCH   6  11
ENDBRANCH   2   3
ENDBRANCH   1   2
BRANCH   1  13
HETATM   13  C   UNK N   1      22.819  18.927   3.810  0.00  0.00     0.135 C 
BRANCH  13  14
HETATM   14  N   UNK N   1      22.251  18.405   4.842  0.00  0.00    -0.359 N 
ATOM     15  HN  UNK N   1      22.718  18.601   5.728  1.00  0.00     0.162 HD
BRANCH  14  16
HETATM   16  C   UNK N   1      21.070  17.592   4.956  0.00  0.00     0.175 C 
BRANCH  16  17
HETATM   17  C   UNK N   1      19.981  17.764   3.889  0.00  0.00     0.035 C 
BRANCH  17  18
HETATM   18  C   UNK N   1      19.962  16.805   2.716  0.00  0.00     0.004 C 
BRANCH  18  19
HETATM   19  C   UNK N   1      20.191  17.570   1.423  0.00  0.00     0.019 C 
BRANCH  19  20
HETATM   20  C   UNK N   1      19.843  16.725   0.207  0.00  0.00     0.111 C 
BRANCH  20  21
HETATM   21  N   UNK N   1      18.402  16.618   0.074  0.00  0.00    -0.430 N 
HETATM   22  H   UNK N   1      17.623  16.308   0.656  0.00  0.00     0.149 HD
HETATM   23  H   UNK N   1      18.084  16.934  -0.842  0.00  0.00     0.149 HD
ENDBRANCH  20  21
ENDBRANCH  19  20
ENDBRANCH  18  19
ENDBRANCH  17  18
ENDBRANCH  16  17
BRANCH  16  24
HETATM   24  C   UNK N   1      20.720  17.418   6.435  0.00  0.00     0.242 C 
HETATM   25  N   UNK N   1      20.044  16.343   6.935  0.00  0.00    -0.347 N 
HETATM   26  C   UNK N   1      19.763  16.257   8.357  0.00  0.00     0.145 C 
HETATM   27  C   UNK N   1      19.728  15.193   6.128  0.00  0.00     0.145 C 
HETATM   28  C   UNK N   1      20.406  14.990   8.941  0.00  0.00     0.143 C 
HETATM   29  N   UNK N   1      21.161  14.296   7.912  0.00  0.00    -0.378 N 
HETATM   30  C   UNK N   1      20.488  13.974   6.664  0.00  0.00     0.143 C 
HETATM   31  O   UNK N   1      21.035  18.323   7.199  0.00  0.00    -0.271 OA
BRANCH  29  32
HETATM   32  C   UNK N   1      22.547  14.002   8.096  0.00  0.00     0.032 A 
HETATM   33  C   UNK N   1      22.987  13.327   9.245  0.00  0.00     0.046 A 
HETATM   34  C   UNK N   1      24.351  13.085   9.427  0.00  0.00     0.089 A 
HETATM   35  N   UNK N   1      25.250  13.512   8.500  0.00  0.00    -0.375 N 
HETATM   36  C   UNK N   1      24.852  14.165   7.375  0.00  0.00     0.089 A 
ATOM     37  HN  UNK N   1      26.243  13.339   8.652  1.00  0.00     0.164 HD
HETATM   38  C   UNK N   1      23.497  14.416   7.151  0.00  0.00     0.046 A 
ENDBRANCH  29  32
ENDBRANCH  16  24
ENDBRANCH  14  16
ENDBRANCH  13  14
BRANCH  13  39
HETATM   39  O   UNK N   1      22.523  20.160   3.361  0.00  0.00    -0.348 OA
HETATM   40  H   UNK N   1      22.069  20.959   3.542  0.00  0.00     0.219 HD
ENDBRANCH  13  39
ENDBRANCH   1  13
BRANCH   1  41
HETATM   41  N   UNK N   1      25.092  19.136   3.439  0.00  0.00    -0.344 N 
ATOM     42  HN  UNK N   1      25.299  19.769   2.667  1.00  0.00     0.164 HD
BRANCH  41  43
HETATM   43  C   UNK N   1      25.836  19.236   4.501  0.00  0.00     0.215 C 
BRANCH  43  44
HETATM   44  N   UNK N   1      27.238  19.034   4.402  0.00  0.00    -0.348 N 
HETATM   45  C   UNK N   1      28.049  19.884   5.218  0.00  0.00     0.128 C 
HETATM   46  C   UNK N   1      27.877  19.357   6.637  0.00  0.00     0.045 C 
HETATM   47  C   UNK N   1      28.131  17.835   6.713  0.00  0.00     0.091 C 
HETATM   48  C   UNK N   1      27.676  16.949   5.537  0.00  0.00     0.045 C 
HETATM   49  C   UNK N   1      27.747  17.696   4.211  0.00  0.00     0.128 C 
BRANCH  47  50
HETATM   50  N   UNK N   1      29.454  17.560   7.188  0.00  0.00    -0.338 N 
HETATM   51  C   UNK N   1      30.512  17.242   6.236  0.00  0.00     0.167 A 
HETATM   52  C   UNK N   1      31.876  17.289   6.843  0.00  0.00    -0.013 A 
HETATM   53  C   UNK N   1      32.998  17.040   6.048  0.00  0.00     0.011 A 
HETATM   54  C   UNK N   1      32.040  17.602   8.201  0.00  0.00     0.043 A 
HETATM   55  C   UNK N   1      34.279  17.114   6.603  0.00  0.00     0.001 A 
HETATM   56  C   UNK N   1      34.440  17.442   7.953  0.00  0.00     0.002 A 
HETATM   57  C   UNK N   1      33.320  17.682   8.751  0.00  0.00     0.030 A 
HETATM   58  N   UNK N   1      30.915  17.846   9.024  0.00  0.00    -0.322 N 
HETATM   59  C   UNK N   1      29.720  17.824   8.565  0.00  0.00     0.220 A 
ATOM     60  HN  UNK N   1      31.061  18.044  10.014  1.00  0.00     0.169 HD
BRANCH  59  61
HETATM   61  O   UNK N   1      28.692  18.097   9.401  0.00  0.00    -0.332 OA
HETATM   62  H   UNK N   1      27.894  17.607   9.421  0.00  0.00     0.220 HD
ENDBRANCH  59  61
ENDBRANCH  47  50
ENDBRANCH  43  44
BRANCH  43  63
HETATM   63  O   UNK N   1      25.292  19.484   5.714  0.00  0.00    -0.333 OA
HETATM   64  H   UNK N   1      25.237  19.237   6.616  0.00  0.00     0.220 HD
ENDBRANCH  43  63
ENDBRANCH  41  43
ENDBRANCH   1  41
TORSDOF 20
ENDMDL
MODEL 2
REMARK VINA RESULT:      -8.2      2.182      3.003
REMARK  20 active torsions:
REMARK  status: ('A' for Active; 'I' for Inactive)
REMARK    1  A    between atoms: C_4  and  C_3 
REMARK    2  A    between atoms: C_7  and  C_3 
REMARK    3  A    between atoms: C_12  and  C_4 
REMARK    4  A    between atoms: C_32  and  C_7 
REMARK    5  A    between atoms: N_41  and  C_12 
REMARK    6  A    between atoms: C_25  and  C_23 
REMARK    7  A    between atoms: C_33  and  C_23 
REMARK    8  A    between atoms: N_50  and  C_27 
REMARK    9  A    between atoms: N_53  and  C_28 
REMARK   10  A    between atoms: C_36  and  C_32 
REMARK   11  A    between atoms: C_32  and  N_44 
REMARK   12  A    between atoms: C_35  and  C_33 
REMARK   13  A    between atoms: C_33  and  N_48 
REMARK   14  A    between atoms: O_54  and  C_34 
REMARK   15  A    between atoms: N_44  and  C_35 
REMARK   16  A    between atoms: C_35  and  O_55 
REMARK       I    between atoms: N_51  and  C_36 
REMARK   17  A    between atoms: N_48  and  C_37 
REMARK   18  A    between atoms: N_52  and  C_37 
REMARK   19  A    between atoms: C_37  and  O_57 
REMARK   20  A    between atoms: O_58  and  C_38 
ROOT
HETATM    1  C   UNK N   1      23.867  15.760   3.788  0.00  0.00     0.163 C 
ENDROOT
BRANCH   1   2
HETATM    2  C   UNK N   1      23.442  14.484   3.046  0.00  0.00     0.072 C 
BRANCH   2   3
HETATM    3  C   UNK N   1      22.008  14.403   2.642  0.00  0.00    -0.053 A 
HETATM    4  C   UNK N   1      21.226  13.385   3.190  0.00  0.00     0.029 A 
HETATM    5  C   UNK N   1      19.899  13.222   2.796  0.00  0.00     0.045 A 
HETATM    6  C   UNK N   1      19.340  14.089   1.845  0.00  0.00     0.100 A 
HETATM    7 Br   UNK N   1      18.875  11.799   3.555  0.00  0.00    -0.048 Br
HETATM    8  C   UNK N   1      20.125  15.115   1.291  0.00  0.00     0.045 A 
HETATM    9  C   UNK N   1      21.460  15.262   1.682  0.00  0.00     0.029 A 
HETATM   10 Br   UNK N   1      19.390  16.310  -0.004  0.00  0.00    -0.048 Br
BRANCH   6  11
HETATM   11  O   UNK N   1      18.060  13.936   1.464  0.00  0.00    -0.358 OA
HETATM   12  H   UNK N   1      17.487  14.676   1.425  0.00  0.00     0.217 HD
ENDBRANCH   6  11
ENDBRANCH   2   3
ENDBRANCH   1   2
BRANCH   1  13
HETATM   13  C   UNK N   1      23.987  15.488   5.244  0.00  0.00     0.135 C 
BRANCH  13  14
HETATM   14  N   UNK N   1      23.229  16.177   6.026  0.00  0.00    -0.359 N 
ATOM     15  HN  UNK N   1      23.671  16.467   6.899  1.00  0.00     0.162 HD
BRANCH  14  16
HETATM   16  C   UNK N   1      21.864  16.605   5.877  0.00  0.00     0.175 C 
BRANCH  16  17
HETATM   17  C   UNK N   1      21.593  17.818   4.978  0.00  0.00     0.035 C 
BRANCH  17  18
HETATM   18  C   UNK N   1      20.485  17.722   3.948  0.00  0.00     0.004 C 
BRANCH  18  19
HETATM   19  C   UNK N   1      20.696  18.767   2.866  0.00  0.00     0.019 C 
BRANCH  19  20
HETATM   20  C   UNK N   1      20.405  20.167   3.380  0.00  0.00     0.111 C 
BRANCH  20  21
HETATM   21  N   UNK N   1      21.096  21.149   2.564  0.00  0.00    -0.430 N 
HETATM   22  H   UNK N   1      22.045  21.291   2.218  0.00  0.00     0.149 HD
HETATM   23  H   UNK N   1      20.469  21.892   2.258  0.00  0.00     0.149 HD
ENDBRANCH  20  21
ENDBRANCH  19  20
ENDBRANCH  18  19
ENDBRANCH  17  18
ENDBRANCH  16  17
BRANCH  16  24
HETATM   24  C   UNK N   1      21.128  16.412   7.204  0.00  0.00     0.242 C 
HETATM   25  N   UNK N   1      20.437  15.282   7.532  0.00  0.00    -0.347 N 
HETATM   26  C   UNK N   1      19.775  15.183   8.820  0.00  0.00     0.145 C 
HETATM   27  C   UNK N   1      20.465  14.100   6.710  0.00  0.00     0.145 C 
HETATM   28  C   UNK N   1      20.337  13.987   9.606  0.00  0.00     0.143 C 
HETATM   29  N   UNK N   1      21.410  13.360   8.855  0.00  0.00    -0.378 N 
HETATM   30  C   UNK N   1      21.147  12.963   7.480  0.00  0.00     0.143 C 
HETATM   31  O   UNK N   1      21.134  17.349   7.993  0.00  0.00    -0.271 OA
BRANCH  29  32
HETATM   32  C   UNK N   1      22.707  13.200   9.429  0.00  0.00     0.032 A 
HETATM   33  C   UNK N   1      23.848  13.670   8.760  0.00  0.00     0.046 A 
HETATM   34  C   UNK N   1      25.112  13.466   9.319  0.00  0.00     0.089 A 
HETATM   35  N   UNK N   1      25.239  12.805  10.500  0.00  0.00    -0.375 N 
HETATM   36  C   UNK N   1      24.151  12.341  11.173  0.00  0.00     0.089 A 
ATOM     37  HN  UNK N   1      26.169  12.653  10.890  1.00  0.00     0.164 HD
HETATM   38  C   UNK N   1      22.869  12.534  10.654  0.00  0.00     0.046 A 
ENDBRANCH  29  32
ENDBRANCH  16  24
ENDBRANCH  14  16
ENDBRANCH  13  14
BRANCH  13  39
HETATM   39  O   UNK N   1      24.706  14.433   5.669  0.00  0.00    -0.348 OA
HETATM   40  H   UNK N   1      24.811  13.791   6.343  0.00  0.00     0.219 HD
ENDBRANCH  13  39
ENDBRANCH   1  13
BRANCH   1  41
HETATM   41  N   UNK N   1      25.191  16.238   3.418  0.00  0.00    -0.344 N 
ATOM     42  HN  UNK N   1      25.770  15.616   2.854  1.00  0.00     0.164 HD
BRANCH  41  43
HETATM   43  C   UNK N   1      25.703  17.389   3.742  0.00  0.00     0.215 C 
BRANCH  43  44
HETATM   44  N   UNK N   1      27.114  17.554   3.763  0.00  0.00    -0.348 N 
HETATM   45  C   UNK N   1      27.604  18.624   4.575  0.00  0.00     0.128 C 
HETATM   46  C   UNK N   1      27.443  18.141   6.011  0.00  0.00     0.045 C 
HETATM   47  C   UNK N   1      28.068  16.744   6.214  0.00  0.00     0.091 C 
HETATM   48  C   UNK N   1      27.962  15.712   5.074  0.00  0.00     0.045 C 
HETATM   49  C   UNK N   1      27.961  16.385   3.707  0.00  0.00     0.128 C 
BRANCH  47  50
HETATM   50  N   UNK N   1      29.368  16.845   6.805  0.00  0.00    -0.338 N 
HETATM   51  C   UNK N   1      30.555  16.707   5.969  0.00  0.00     0.167 A 
HETATM   52  C   UNK N   1      31.807  17.141   6.659  0.00  0.00    -0.013 A 
HETATM   53  C   UNK N   1      33.025  17.101   5.975  0.00  0.00     0.011 A 
HETATM   54  C   UNK N   1      31.766  17.611   7.980  0.00  0.00     0.043 A 
HETATM   55  C   UNK N   1      34.196  17.536   6.602  0.00  0.00     0.001 A 
HETATM   56  C   UNK N   1      34.149  18.019   7.914  0.00  0.00     0.002 A 
HETATM   57  C   UNK N   1      32.935  18.052   8.603  0.00  0.00     0.030 A 
HETATM   58  N   UNK N   1      30.544  17.649   8.692  0.00  0.00    -0.322 N 
HETATM   59  C   UNK N   1      29.435  17.294   8.159  0.00  0.00     0.220 A 
ATOM     60  HN  UNK N   1      30.547  17.969   9.660  1.00  0.00     0.169 HD
BRANCH  59  61
HETATM   61  O   UNK N   1      28.299  17.385   8.887  0.00  0.00    -0.332 OA
HETATM   62  H   UNK N   1      27.442  17.416   8.511  0.00  0.00     0.220 HD
ENDBRANCH  59  61
ENDBRANCH  47  50
ENDBRANCH  43  44
BRANCH  43  63
HETATM   63  O   UNK N   1      24.916  18.427   4.106  0.00  0.00    -0.333 OA
HETATM   64  H   UNK N   1      24.453  18.858   4.796  0.00  0.00     0.220 HD
ENDBRANCH  43  63
ENDBRANCH  41  43
ENDBRANCH   1  41
TORSDOF 20
ENDMDL
MODEL 3
REMARK VINA RESULT:      -8.1      2.785      5.418
REMARK  20 active torsions:
REMARK  status: ('A' for Active; 'I' for Inactive)
REMARK    1  A    between atoms: C_4  and  C_3 
REMARK    2  A    between atoms: C_7  and  C_3 
REMARK    3  A    between atoms: C_12  and  C_4 
REMARK    4  A    between atoms: C_32  and  C_7 
REMARK    5  A    between atoms: N_41  and  C_12 
REMARK    6  A    between atoms: C_25  and  C_23 
REMARK    7  A    between atoms: C_33  and  C_23 
REMARK    8  A    between atoms: N_50  and  C_27 
REMARK    9  A    between atoms: N_53  and  C_28 
REMARK   10  A    between atoms: C_36  and  C_32 
REMARK   11  A    between atoms: C_32  and  N_44 
REMARK   12  A    between atoms: C_35  and  C_33 
REMARK   13  A    between atoms: C_33  and  N_48 
REMARK   14  A    between atoms: O_54  and  C_34 
REMARK   15  A    between atoms: N_44  and  C_35 
REMARK   16  A    between atoms: C_35  and  O_55 
REMARK       I    between atoms: N_51  and  C_36 
REMARK   17  A    between atoms: N_48  and  C_37 
REMARK   18  A    between atoms: N_52  and  C_37 
REMARK   19  A    between atoms: C_37  and  O_57 
REMARK   20  A    between atoms: O_58  and  C_38 
ROOT
HETATM    1  C   UNK N   1      23.312  16.276   5.992  0.00  0.00     0.163 C 
ENDROOT
BRANCH   1   2
HETATM    2  C   UNK N   1      21.817  16.594   5.841  0.00  0.00     0.072 C 
BRANCH   2   3
HETATM    3  C   UNK N   1      21.376  17.068   4.497  0.00  0.00    -0.053 A 
HETATM    4  C   UNK N   1      21.017  16.112   3.546  0.00  0.00     0.029 A 
HETATM    5  C   UNK N   1      20.662  16.497   2.254  0.00  0.00     0.045 A 
HETATM    6  C   UNK N   1      20.660  17.856   1.905  0.00  0.00     0.100 A 
HETATM    7 Br   UNK N   1      20.202  15.150   0.980  0.00  0.00    -0.048 Br
HETATM    8  C   UNK N   1      21.022  18.821   2.860  0.00  0.00     0.045 A 
HETATM    9  C   UNK N   1      21.390  18.424   4.150  0.00  0.00     0.029 A 
HETATM   10 Br   UNK N   1      21.026  20.677   2.412  0.00  0.00    -0.048 Br
BRANCH   6  11
HETATM   11  O   UNK N   1      20.317  18.231   0.661  0.00  0.00    -0.358 OA
HETATM   12  H   UNK N   1      20.978  18.369   0.010  0.00  0.00     0.217 HD
ENDBRANCH   6  11
ENDBRANCH   2   3
ENDBRANCH   1   2
BRANCH   1  13
HETATM   13  C   UNK N   1      23.522  14.805   6.013  0.00  0.00     0.135 C 
BRANCH  13  14
HETATM   14  N   UNK N   1      23.313  14.206   7.135  0.00  0.00    -0.359 N 
ATOM     15  HN  UNK N   1      23.828  14.594   7.925  1.00  0.00     0.162 HD
BRANCH  14  16
HETATM   16  C   UNK N   1      22.476  13.082   7.459  0.00  0.00     0.175 C 
BRANCH  16  17
HETATM   17  C   UNK N   1      21.342  13.307   8.469  0.00  0.00     0.035 C 
BRANCH  17  18
HETATM   18  C   UNK N   1      21.705  13.555   9.919  0.00  0.00     0.004 C 
BRANCH  18  19
HETATM   19  C   UNK N   1      21.572  12.264  10.710  0.00  0.00     0.019 C 
BRANCH  19  20
HETATM   20  C   UNK N   1      22.706  12.105  11.710  0.00  0.00     0.111 C 
BRANCH  20  21
HETATM   21  N   UNK N   1      23.951  12.570  11.127  0.00  0.00    -0.430 N 
HETATM   22  H   UNK N   1      24.886  12.191  10.972  0.00  0.00     0.149 HD
HETATM   23  H   UNK N   1      23.872  13.527  10.783  0.00  0.00     0.149 HD
ENDBRANCH  20  21
ENDBRANCH  19  20
ENDBRANCH  18  19
ENDBRANCH  17  18
ENDBRANCH  16  17
BRANCH  16  24
HETATM   24  C   UNK N   1      23.326  11.811   7.481  0.00  0.00     0.242 C 
HETATM   25  N   UNK N   1      23.175  10.780   6.600  0.00  0.00    -0.347 N 
HETATM   26  C   UNK N   1      24.034   9.614   6.690  0.00  0.00     0.145 C 
HETATM   27  C   UNK N   1      22.290  10.863   5.468  0.00  0.00     0.145 C 
HETATM   28  C   UNK N   1      24.814   9.437   5.378  0.00  0.00     0.143 C 
HETATM   29  N   UNK N   1      24.511  10.528   4.469  0.00  0.00    -0.378 N 
HETATM   30  C   UNK N   1      23.114  10.811   4.176  0.00  0.00     0.143 C 
HETATM   31  O   UNK N   1      24.163  11.708   8.371  0.00  0.00    -0.271 OA
BRANCH  29  32
HETATM   32  C   UNK N   1      25.553  11.344   3.933  0.00  0.00     0.032 A 
HETATM   33  C   UNK N   1      26.663  11.692   4.717  0.00  0.00     0.046 A 
HETATM   34  C   UNK N   1      27.652  12.525   4.188  0.00  0.00     0.089 A 
HETATM   35  N   UNK N   1      27.534  13.007   2.922  0.00  0.00    -0.375 N 
HETATM   36  C   UNK N   1      26.471  12.684   2.137  0.00  0.00     0.089 A 
ATOM     37  HN  UNK N   1      28.257  13.624   2.554  1.00  0.00     0.164 HD
HETATM   38  C   UNK N   1      25.467  11.845   2.625  0.00  0.00     0.046 A 
ENDBRANCH  29  32
ENDBRANCH  16  24
ENDBRANCH  14  16
ENDBRANCH  13  14
BRANCH  13  39
HETATM   39  O   UNK N   1      23.719  14.143   4.859  0.00  0.00    -0.348 OA
HETATM   40  H   UNK N   1      23.873  13.308   4.464  0.00  0.00     0.219 HD
ENDBRANCH  13  39
ENDBRANCH   1  13
BRANCH   1  41
HETATM   41  N   UNK N   1      24.121  16.724   4.869  0.00  0.00    -0.344 N 
ATOM     42  HN  UNK N   1      23.966  16.264   3.972  1.00  0.00     0.164 HD
BRANCH  41  43
HETATM   43  C   UNK N   1      25.025  17.658   4.906  0.00  0.00     0.215 C 
BRANCH  43  44
HETATM   44  N   UNK N   1      26.385  17.335   4.653  0.00  0.00    -0.348 N 
HETATM   45  C   UNK N   1      27.319  18.408   4.799  0.00  0.00     0.128 C 
HETATM   46  C   UNK N   1      27.447  18.623   6.302  0.00  0.00     0.045 C 
HETATM   47  C   UNK N   1      27.753  17.301   7.041  0.00  0.00     0.091 C 
HETATM   48  C   UNK N   1      27.098  16.001   6.535  0.00  0.00     0.045 C 
HETATM   49  C   UNK N   1      26.882  16.031   5.027  0.00  0.00     0.128 C 
BRANCH  47  50
HETATM   50  N   UNK N   1      29.150  17.188   7.330  0.00  0.00    -0.338 N 
HETATM   51  C   UNK N   1      30.104  17.023   6.239  0.00  0.00     0.167 A 
HETATM   52  C   UNK N   1      31.520  17.232   6.667  0.00  0.00    -0.013 A 
HETATM   53  C   UNK N   1      32.549  17.141   5.725  0.00  0.00     0.011 A 
HETATM   54  C   UNK N   1      31.823  17.541   8.001  0.00  0.00     0.043 A 
HETATM   55  C   UNK N   1      33.874  17.368   6.111  0.00  0.00     0.001 A 
HETATM   56  C   UNK N   1      34.170  17.691   7.439  0.00  0.00     0.002 A 
HETATM   57  C   UNK N   1      33.145  17.773   8.383  0.00  0.00     0.030 A 
HETATM   58  N   UNK N   1      30.796  17.626   8.970  0.00  0.00    -0.322 N 
HETATM   59  C   UNK N   1      29.562  17.461   8.670  0.00  0.00     0.220 A 
ATOM     60  HN  UNK N   1      31.047  17.825   9.939  1.00  0.00     0.169 HD
BRANCH  59  61
HETATM   61  O   UNK N   1      28.629  17.587   9.640  0.00  0.00    -0.332 OA
HETATM   62  H   UNK N   1      28.670  18.228  10.322  0.00  0.00     0.220 HD
ENDBRANCH  59  61
ENDBRANCH  47  50
ENDBRANCH  43  44
BRANCH  43  63
HETATM   63  O   UNK N   1      24.703  18.931   5.228  0.00  0.00    -0.333 OA
HETATM   64  H   UNK N   1      24.400  19.765   4.929  0.00  0.00     0.220 HD
ENDBRANCH  43  63
ENDBRANCH  41  43
ENDBRANCH   1  41
TORSDOF 20
ENDMDL
MODEL 4
REMARK VINA RESULT:      -8.1      2.378      4.007
REMARK  20 active torsions:
REMARK  status: ('A' for Active; 'I' for Inactive)
REMARK    1  A    between atoms: C_4  and  C_3 
REMARK    2  A    between atoms: C_7  and  C_3 
REMARK    3  A    between atoms: C_12  and  C_4 
REMARK    4  A    between atoms: C_32  and  C_7 
REMARK    5  A    between atoms: N_41  and  C_12 
REMARK    6  A    between atoms: C_25  and  C_23 
REMARK    7  A    between atoms: C_33  and  C_23 
REMARK    8  A    between atoms: N_50  and  C_27 
REMARK    9  A    between atoms: N_53  and  C_28 
REMARK   10  A    between atoms: C_36  and  C_32 
REMARK   11  A    between atoms: C_32  and  N_44 
REMARK   12  A    between atoms: C_35  and  C_33 
REMARK   13  A    between atoms: C_33  and  N_48 
REMARK   14  A    between atoms: O_54  and  C_34 
REMARK   15  A    between atoms: N_44  and  C_35 
REMARK   16  A    between atoms: C_35  and  O_55 
REMARK       I    between atoms: N_51  and  C_36 
REMARK   17  A    between atoms: N_48  and  C_37 
REMARK   18  A    between atoms: N_52  and  C_37 
REMARK   19  A    between atoms: C_37  and  O_57 
REMARK   20  A    between atoms: O_58  and  C_38 
ROOT
HETATM    1  C   UNK N   1      23.934  14.026   2.756  0.00  0.00     0.163 C 
ENDROOT
BRANCH   1   2
HETATM    2  C   UNK N   1      23.079  13.093   1.886  0.00  0.00     0.072 C 
BRANCH   2   3
HETATM    3  C   UNK N   1      21.750  13.621   1.460  0.00  0.00    -0.053 A 
HETATM    4  C   UNK N   1      20.743  12.703   1.156  0.00  0.00     0.029 A 
HETATM    5  C   UNK N   1      19.505  13.141   0.689  0.00  0.00     0.045 A 
HETATM    6  C   UNK N   1      19.263  14.513   0.527  0.00  0.00     0.100 A 
HETATM    7 Br   UNK N   1      18.166  11.846   0.263  0.00  0.00    -0.048 Br
HETATM    8  C   UNK N   1      20.275  15.439   0.831  0.00  0.00     0.045 A 
HETATM    9  C   UNK N   1      21.520  14.991   1.286  0.00  0.00     0.029 A 
HETATM   10 Br   UNK N   1      19.973  17.313   0.621  0.00  0.00    -0.048 Br
BRANCH   6  11
HETATM   11  O   UNK N   1      18.069  14.938   0.079  0.00  0.00    -0.358 OA
HETATM   12  H   UNK N   1      17.465  14.331  -0.303  0.00  0.00     0.217 HD
ENDBRANCH   6  11
ENDBRANCH   2   3
ENDBRANCH   1   2
BRANCH   1  13
HETATM   13  C   UNK N   1      23.598  13.833   4.191  0.00  0.00     0.135 C 
BRANCH  13  14
HETATM   14  N   UNK N   1      23.418  14.899   4.892  0.00  0.00    -0.359 N 
ATOM     15  HN  UNK N   1      23.996  14.959   5.731  1.00  0.00     0.162 HD
BRANCH  14  16
HETATM   16  C   UNK N   1      22.538  16.020   4.692  0.00  0.00     0.175 C 
BRANCH  16  17
HETATM   17  C   UNK N   1      23.011  17.137   3.753  0.00  0.00     0.035 C 
BRANCH  17  18
HETATM   18  C   UNK N   1      24.425  17.661   3.908  0.00  0.00     0.004 C 
BRANCH  18  19
HETATM   19  C   UNK N   1      24.389  19.106   4.375  0.00  0.00     0.019 C 
BRANCH  19  20
HETATM   20  C   UNK N   1      25.790  19.659   4.581  0.00  0.00     0.111 C 
BRANCH  20  21
HETATM   21  N   UNK N   1      26.261  19.334   5.915  0.00  0.00    -0.430 N 
HETATM   22  H   UNK N   1      25.857  18.961   6.775  0.00  0.00     0.149 HD
HETATM   23  H   UNK N   1      27.255  19.532   6.022  0.00  0.00     0.149 HD
ENDBRANCH  20  21
ENDBRANCH  19  20
ENDBRANCH  18  19
ENDBRANCH  17  18
ENDBRANCH  16  17
BRANCH  16  24
HETATM   24  C   UNK N   1      21.811  16.329   6.002  0.00  0.00     0.242 C 
HETATM   25  N   UNK N   1      20.813  15.555   6.518  0.00  0.00    -0.347 N 
HETATM   26  C   UNK N   1      20.184  15.920   7.774  0.00  0.00     0.145 C 
HETATM   27  C   UNK N   1      20.454  14.284   5.945  0.00  0.00     0.145 C 
HETATM   28  C   UNK N   1      20.369  14.790   8.800  0.00  0.00     0.143 C 
HETATM   29  N   UNK N   1      21.177  13.728   8.228  0.00  0.00    -0.378 N 
HETATM   30  C   UNK N   1      20.771  13.168   6.948  0.00  0.00     0.143 C 
HETATM   31  O   UNK N   1      22.126  17.356   6.592  0.00  0.00    -0.271 OA
BRANCH  29  32
HETATM   32  C   UNK N   1      22.375  13.293   8.872  0.00  0.00     0.032 A 
HETATM   33  C   UNK N   1      22.329  12.709  10.147  0.00  0.00     0.046 A 
HETATM   34  C   UNK N   1      23.516  12.329  10.778  0.00  0.00     0.089 A 
HETATM   35  N   UNK N   1      24.712  12.535  10.165  0.00  0.00    -0.375 N 
HETATM   36  C   UNK N   1      24.788  13.096   8.928  0.00  0.00     0.089 A 
ATOM     37  HN  UNK N   1      25.571  12.264  10.643  1.00  0.00     0.164 HD
HETATM   38  C   UNK N   1      23.623  13.479   8.259  0.00  0.00     0.046 A 
ENDBRANCH  29  32
ENDBRANCH  16  24
ENDBRANCH  14  16
ENDBRANCH  13  14
BRANCH  13  39
HETATM   39  O   UNK N   1      23.306  12.602   4.649  0.00  0.00    -0.348 OA
HETATM   40  H   UNK N   1      23.384  11.682   4.494  0.00  0.00     0.219 HD
ENDBRANCH  13  39
ENDBRANCH   1  13
BRANCH   1  41
HETATM   41  N   UNK N   1      25.359  13.740   2.695  0.00  0.00    -0.344 N 
ATOM     42  HN  UNK N   1      25.652  12.786   2.905  1.00  0.00     0.164 HD
BRANCH  41  43
HETATM   43  C   UNK N   1      26.294  14.593   2.397  0.00  0.00     0.215 C 
BRANCH  43  44
HETATM   44  N   UNK N   1      27.590  14.447   2.960  0.00  0.00    -0.348 N 
HETATM   45  C   UNK N   1      28.453  15.581   2.843  0.00  0.00     0.128 C 
HETATM   46  C   UNK N   1      27.918  16.595   3.848  0.00  0.00     0.045 C 
HETATM   47  C   UNK N   1      27.744  15.968   5.249  0.00  0.00     0.091 C 
HETATM   48  C   UNK N   1      27.268  14.506   5.353  0.00  0.00     0.045 C 
HETATM   49  C   UNK N   1      27.750  13.674   4.171  0.00  0.00     0.128 C 
BRANCH  47  50
HETATM   50  N   UNK N   1      28.850  16.295   6.096  0.00  0.00    -0.338 N 
HETATM   51  C   UNK N   1      30.212  16.163   5.591  0.00  0.00     0.167 A 
HETATM   52  C   UNK N   1      31.225  16.827   6.466  0.00  0.00    -0.013 A 
HETATM   53  C   UNK N   1      32.573  16.817   6.096  0.00  0.00     0.011 A 
HETATM   54  C   UNK N   1      30.830  17.478   7.644  0.00  0.00     0.043 A 
HETATM   55  C   UNK N   1      33.522  17.464   6.893  0.00  0.00     0.001 A 
HETATM   56  C   UNK N   1      33.123  18.127   8.059  0.00  0.00     0.002 A 
HETATM   57  C   UNK N   1      31.779  18.130   8.435  0.00  0.00     0.030 A 
HETATM   58  N   UNK N   1      29.472  17.490   8.039  0.00  0.00    -0.322 N 
HETATM   59  C   UNK N   1      28.554  16.942   7.334  0.00  0.00     0.220 A 
ATOM     60  HN  UNK N   1      29.217  17.947   8.914  1.00  0.00     0.169 HD
BRANCH  59  61
HETATM   61  O   UNK N   1      27.272  17.017   7.756  0.00  0.00    -0.332 OA
HETATM   62  H   UNK N   1      26.841  16.337   8.236  0.00  0.00     0.220 HD
ENDBRANCH  59  61
ENDBRANCH  47  50
ENDBRANCH  43  44
BRANCH  43  63
HETATM   63  O   UNK N   1      26.045  15.651   1.592  0.00  0.00    -0.333 OA
HETATM   64  H   UNK N   1      25.473  16.042   0.961  0.00  0.00     0.220 HD
ENDBRANCH  43  63
ENDBRANCH  41  43
ENDBRANCH   1  41
TORSDOF 20
ENDMDL
MODEL 5
REMARK VINA RESULT:      -8.0      2.780      5.075
REMARK  20 active torsions:
REMARK  status: ('A' for Active; 'I' for Inactive)
REMARK    1  A    between atoms: C_4  and  C_3 
REMARK    2  A    between atoms: C_7  and  C_3 
REMARK    3  A    between atoms: C_12  and  C_4 
REMARK    4  A    between atoms: C_32  and  C_7 
REMARK    5  A    between atoms: N_41  and  C_12 
REMARK    6  A    between atoms: C_25  and  C_23 
REMARK    7  A    between atoms: C_33  and  C_23 
REMARK    8  A    between atoms: N_50  and  C_27 
REMARK    9  A    between atoms: N_53  and  C_28 
REMARK   10  A    between atoms: C_36  and  C_32 
REMARK   11  A    between atoms: C_32  and  N_44 
REMARK   12  A    between atoms: C_35  and  C_33 
REMARK   13  A    between atoms: C_33  and  N_48 
REMARK   14  A    between atoms: O_54  and  C_34 
REMARK   15  A    between atoms: N_44  and  C_35 
REMARK   16  A    between atoms: C_35  and  O_55 
REMARK       I    between atoms: N_51  and  C_36 
REMARK   17  A    between atoms: N_48  and  C_37 
REMARK   18  A    between atoms: N_52  and  C_37 
REMARK   19  A    between atoms: C_37  and  O_57 
REMARK   20  A    between atoms: O_58  and  C_38 
ROOT
HETATM    1  C   UNK N   1      24.211  13.494   2.984  0.00  0.00     0.163 C 
ENDROOT
BRANCH   1   2
HETATM    2  C   UNK N   1      24.064  14.518   4.119  0.00  0.00     0.072 C 
BRANCH   2   3
HETATM    3  C   UNK N   1      23.452  14.016   5.385  0.00  0.00    -0.053 A 
HETATM    4  C   UNK N   1      22.584  14.861   6.077  0.00  0.00     0.029 A 
HETATM    5  C   UNK N   1      22.038  14.468   7.299  0.00  0.00     0.045 A 
HETATM    6  C   UNK N   1      22.359  13.213   7.837  0.00  0.00     0.100 A 
HETATM    7 Br   UNK N   1      20.873  15.668   8.221  0.00  0.00    -0.048 Br
HETATM    8  C   UNK N   1      23.235  12.361   7.143  0.00  0.00     0.045 A 
HETATM    9  C   UNK N   1      23.788  12.769   5.925  0.00  0.00     0.029 A 
HETATM   10 Br   UNK N   1      23.688  10.647   7.852  0.00  0.00    -0.048 Br
BRANCH   6  11
HETATM   11  O   UNK N   1      21.834  12.831   9.014  0.00  0.00    -0.358 OA
HETATM   12  H   UNK N   1      22.280  13.026   9.815  0.00  0.00     0.217 HD
ENDBRANCH   6  11
ENDBRANCH   2   3
ENDBRANCH   1   2
BRANCH   1  13
HETATM   13  C   UNK N   1      23.384  13.902   1.819  0.00  0.00     0.135 C 
BRANCH  13  14
HETATM   14  N   UNK N   1      22.598  14.909   1.990  0.00  0.00    -0.359 N 
ATOM     15  HN  UNK N   1      23.062  15.817   1.974  1.00  0.00     0.162 HD
BRANCH  14  16
HETATM   16  C   UNK N   1      21.176  14.967   2.201  0.00  0.00     0.175 C 
BRANCH  16  17
HETATM   17  C   UNK N   1      20.354  13.719   1.858  0.00  0.00     0.035 C 
BRANCH  17  18
HETATM   18  C   UNK N   1      19.852  13.553   0.437  0.00  0.00     0.004 C 
BRANCH  18  19
HETATM   19  C   UNK N   1      18.449  12.969   0.453  0.00  0.00     0.019 C 
BRANCH  19  20
HETATM   20  C   UNK N   1      17.424  13.970  -0.055  0.00  0.00     0.111 C 
BRANCH  20  21
HETATM   21  N   UNK N   1      18.063  15.247  -0.313  0.00  0.00    -0.430 N 
HETATM   22  H   UNK N   1      17.762  16.194  -0.549  0.00  0.00     0.149 HD
HETATM   23  H   UNK N   1      19.077  15.182  -0.240  0.00  0.00     0.149 HD
ENDBRANCH  20  21
ENDBRANCH  19  20
ENDBRANCH  18  19
ENDBRANCH  17  18
ENDBRANCH  16  17
BRANCH  16  24
HETATM   24  C   UNK N   1      20.676  16.373   1.866  0.00  0.00     0.242 C 
HETATM   25  N   UNK N   1      20.175  17.243   2.791  0.00  0.00    -0.347 N 
HETATM   26  C   UNK N   1      19.730  18.563   2.383  0.00  0.00     0.145 C 
HETATM   27  C   UNK N   1      20.213  16.965   4.203  0.00  0.00     0.145 C 
HETATM   28  C   UNK N   1      20.537  19.639   3.127  0.00  0.00     0.143 C 
HETATM   29  N   UNK N   1      21.549  19.014   3.960  0.00  0.00    -0.378 N 
HETATM   30  C   UNK N   1      21.129  17.982   4.895  0.00  0.00     0.143 C 
HETATM   31  O   UNK N   1      20.693  16.712   0.688  0.00  0.00    -0.271 OA
BRANCH  29  32
HETATM   32  C   UNK N   1      22.928  19.356   3.815  0.00  0.00     0.032 A 
HETATM   33  C   UNK N   1      23.336  20.286   2.847  0.00  0.00     0.046 A 
HETATM   34  C   UNK N   1      24.693  20.576   2.693  0.00  0.00     0.089 A 
HETATM   35  N   UNK N   1      25.618  19.951   3.468  0.00  0.00    -0.375 N 
HETATM   36  C   UNK N   1      25.253  19.047   4.417  0.00  0.00     0.089 A 
ATOM     37  HN  UNK N   1      26.607  20.163   3.336  1.00  0.00     0.164 HD
HETATM   38  C   UNK N   1      23.905  18.738   4.610  0.00  0.00     0.046 A 
ENDBRANCH  29  32
ENDBRANCH  16  24
ENDBRANCH  14  16
ENDBRANCH  13  14
BRANCH  13  39
HETATM   39  O   UNK N   1      23.620  13.359   0.611  0.00  0.00    -0.348 OA
HETATM   40  H   UNK N   1      23.483  12.615   0.058  0.00  0.00     0.219 HD
ENDBRANCH  13  39
ENDBRANCH   1  13
BRANCH   1  41
HETATM   41  N   UNK N   1      25.558  13.415   2.439  0.00  0.00    -0.344 N 
ATOM     42  HN  UNK N   1      25.913  12.488   2.208  1.00  0.00     0.164 HD
BRANCH  41  43
HETATM   43  C   UNK N   1      26.351  14.423   2.220  0.00  0.00     0.215 C 
BRANCH  43  44
HETATM   44  N   UNK N   1      27.674  14.406   2.739  0.00  0.00    -0.348 N 
HETATM   45  C   UNK N   1      28.368  15.656   2.718  0.00  0.00     0.128 C 
HETATM   46  C   UNK N   1      27.733  16.483   3.830  0.00  0.00     0.045 C 
HETATM   47  C   UNK N   1      27.696  15.707   5.164  0.00  0.00     0.091 C 
HETATM   48  C   UNK N   1      27.430  14.189   5.132  0.00  0.00     0.045 C 
HETATM   49  C   UNK N   1      27.980  13.551   3.863  0.00  0.00     0.128 C 
BRANCH  47  50
HETATM   50  N   UNK N   1      28.775  16.103   6.017  0.00  0.00    -0.338 N 
HETATM   51  C   UNK N   1      30.151  15.969   5.551  0.00  0.00     0.167 A 
HETATM   52  C   UNK N   1      31.131  16.701   6.410  0.00  0.00    -0.013 A 
HETATM   53  C   UNK N   1      32.487  16.697   6.072  0.00  0.00     0.011 A 
HETATM   54  C   UNK N   1      30.696  17.411   7.539  0.00  0.00     0.043 A 
HETATM   55  C   UNK N   1      33.405  17.406   6.853  0.00  0.00     0.001 A 
HETATM   56  C   UNK N   1      32.966  18.126   7.969  0.00  0.00     0.002 A 
HETATM   57  C   UNK N   1      31.613  18.124   8.313  0.00  0.00     0.030 A 
HETATM   58  N   UNK N   1      29.329  17.418   7.902  0.00  0.00    -0.322 N 
HETATM   59  C   UNK N   1      28.438  16.814   7.208  0.00  0.00     0.220 A 
ATOM     60  HN  UNK N   1      29.044  17.919   8.744  1.00  0.00     0.169 HD
BRANCH  59  61
HETATM   61  O   UNK N   1      27.145  16.887   7.596  0.00  0.00    -0.332 OA
HETATM   62  H   UNK N   1      26.806  16.466   8.361  0.00  0.00     0.220 HD
ENDBRANCH  59  61
ENDBRANCH  47  50
ENDBRANCH  43  44
BRANCH  43  63
HETATM   63  O   UNK N   1      25.926  15.514   1.544  0.00  0.00    -0.333 OA
HETATM   64  H   UNK N   1      25.584  15.859   0.744  0.00  0.00     0.220 HD
ENDBRANCH  43  63
ENDBRANCH  41  43
ENDBRANCH   1  41
TORSDOF 20
ENDMDL
MODEL 6
REMARK VINA RESULT:      -8.0      2.672      5.808
REMARK  20 active torsions:
REMARK  status: ('A' for Active; 'I' for Inactive)
REMARK    1  A    between atoms: C_4  and  C_3 
REMARK    2  A    between atoms: C_7  and  C_3 
REMARK    3  A    between atoms: C_12  and  C_4 
REMARK    4  A    between atoms: C_32  and  C_7 
REMARK    5  A    between atoms: N_41  and  C_12 
REMARK    6  A    between atoms: C_25  and  C_23 
REMARK    7  A    between atoms: C_33  and  C_23 
REMARK    8  A    between atoms: N_50  and  C_27 
REMARK    9  A    between atoms: N_53  and  C_28 
REMARK   10  A    between atoms: C_36  and  C_32 
REMARK   11  A    between atoms: C_32  and  N_44 
REMARK   12  A    between atoms: C_35  and  C_33 
REMARK   13  A    between atoms: C_33  and  N_48 
REMARK   14  A    between atoms: O_54  and  C_34 
REMARK   15  A    between atoms: N_44  and  C_35 
REMARK   16  A    between atoms: C_35  and  O_55 
REMARK       I    between atoms: N_51  and  C_36 
REMARK   17  A    between atoms: N_48  and  C_37 
REMARK   18  A    between atoms: N_52  and  C_37 
REMARK   19  A    between atoms: C_37  and  O_57 
REMARK   20  A    between atoms: O_58  and  C_38 
ROOT
HETATM    1  C   UNK N   1      22.314  16.749   6.088  0.00  0.00     0.163 C 
ENDROOT
BRANCH   1   2
HETATM    2  C   UNK N   1      21.027  17.402   5.564  0.00  0.00     0.072 C 
BRANCH   2   3
HETATM    3  C   UNK N   1      20.859  17.436   4.082  0.00  0.00    -0.053 A 
HETATM    4  C   UNK N   1      20.938  18.671   3.438  0.00  0.00     0.029 A 
HETATM    5  C   UNK N   1      20.722  18.768   2.064  0.00  0.00     0.045 A 
HETATM    6  C   UNK N   1      20.428  17.616   1.319  0.00  0.00     0.100 A 
HETATM    7 Br   UNK N   1      20.816  20.484   1.231  0.00  0.00    -0.048 Br
HETATM    8  C   UNK N   1      20.347  16.371   1.965  0.00  0.00     0.045 A 
HETATM    9  C   UNK N   1      20.551  16.285   3.346  0.00  0.00     0.029 A 
HETATM   10 Br   UNK N   1      19.949  14.787   0.976  0.00  0.00    -0.048 Br
BRANCH   6  11
HETATM   11  O   UNK N   1      20.220  17.706  -0.006  0.00  0.00    -0.358 OA
HETATM   12  H   UNK N   1      20.926  17.560  -0.605  0.00  0.00     0.217 HD
ENDBRANCH   6  11
ENDBRANCH   2   3
ENDBRANCH   1   2
BRANCH   1  13
HETATM   13  C   UNK N   1      22.052  15.335   6.463  0.00  0.00     0.135 C 
BRANCH  13  14
HETATM   14  N   UNK N   1      23.074  14.626   6.801  0.00  0.00    -0.359 N 
ATOM     15  HN  UNK N   1      23.973  15.020   6.524  1.00  0.00     0.162 HD
BRANCH  14  16
HETATM   16  C   UNK N   1      23.160  13.373   7.502  0.00  0.00     0.175 C 
BRANCH  16  17
HETATM   17  C   UNK N   1      23.075  13.407   9.034  0.00  0.00     0.035 C 
BRANCH  17  18
HETATM   18  C   UNK N   1      23.156  12.097   9.791  0.00  0.00     0.004 C 
BRANCH  18  19
HETATM   19  C   UNK N   1      22.610  12.282  11.197  0.00  0.00     0.019 C 
BRANCH  19  20
HETATM   20  C   UNK N   1      23.491  11.598  12.231  0.00  0.00     0.111 C 
BRANCH  20  21
HETATM   21  N   UNK N   1      23.452  12.335  13.481  0.00  0.00    -0.430 N 
HETATM   22  H   UNK N   1      23.432  12.109  14.476  0.00  0.00     0.149 HD
HETATM   23  H   UNK N   1      23.441  13.342  13.324  0.00  0.00     0.149 HD
ENDBRANCH  20  21
ENDBRANCH  19  20
ENDBRANCH  18  19
ENDBRANCH  17  18
ENDBRANCH  16  17
BRANCH  16  24
HETATM   24  C   UNK N   1      24.145  12.457   6.776  0.00  0.00     0.242 C 
HETATM   25  N   UNK N   1      23.777  11.339   6.085  0.00  0.00    -0.347 N 
HETATM   26  C   UNK N   1      24.781  10.532   5.417  0.00  0.00     0.145 C 
HETATM   27  C   UNK N   1      22.396  11.003   5.851  0.00  0.00     0.145 C 
HETATM   28  C   UNK N   1      24.485  10.470   3.910  0.00  0.00     0.143 C 
HETATM   29  N   UNK N   1      23.331  11.294   3.597  0.00  0.00    -0.378 N 
HETATM   30  C   UNK N   1      22.105  11.075   4.348  0.00  0.00     0.143 C 
HETATM   31  O   UNK N   1      25.337  12.731   6.860  0.00  0.00    -0.271 OA
BRANCH  29  32
HETATM   32  C   UNK N   1      23.421  12.337   2.625  0.00  0.00     0.032 A 
HETATM   33  C   UNK N   1      23.402  12.039   1.254  0.00  0.00     0.046 A 
HETATM   34  C   UNK N   1      23.533  13.069   0.320  0.00  0.00     0.089 A 
HETATM   35  N   UNK N   1      23.690  14.354   0.736  0.00  0.00    -0.375 N 
HETATM   36  C   UNK N   1      23.709  14.673   2.058  0.00  0.00     0.089 A 
ATOM     37  HN  UNK N   1      23.797  15.094   0.042  1.00  0.00     0.164 HD
HETATM   38  C   UNK N   1      23.570  13.673   3.024  0.00  0.00     0.046 A 
ENDBRANCH  29  32
ENDBRANCH  16  24
ENDBRANCH  14  16
ENDBRANCH  13  14
BRANCH  13  39
HETATM   39  O   UNK N   1      20.785  14.912   6.627  0.00  0.00    -0.348 OA
HETATM   40  H   UNK N   1      20.204  14.398   7.153  0.00  0.00     0.219 HD
ENDBRANCH  13  39
ENDBRANCH   1  13
BRANCH   1  41
HETATM   41  N   UNK N   1      23.368  16.650   5.089  0.00  0.00    -0.344 N 
ATOM     42  HN  UNK N   1      23.319  15.867   4.437  1.00  0.00     0.164 HD
BRANCH  41  43
HETATM   43  C   UNK N   1      24.367  17.471   4.953  0.00  0.00     0.215 C 
BRANCH  43  44
HETATM   44  N   UNK N   1      25.635  16.978   4.542  0.00  0.00    -0.348 N 
HETATM   45  C   UNK N   1      26.638  17.967   4.296  0.00  0.00     0.128 C 
HETATM   46  C   UNK N   1      27.059  18.460   5.675  0.00  0.00     0.045 C 
HETATM   47  C   UNK N   1      27.424  17.287   6.610  0.00  0.00     0.091 C 
HETATM   48  C   UNK N   1      26.613  15.980   6.511  0.00  0.00     0.045 C 
HETATM   49  C   UNK N   1      26.119  15.733   5.091  0.00  0.00     0.128 C 
BRANCH  47  50
HETATM   50  N   UNK N   1      28.842  17.103   6.671  0.00  0.00    -0.338 N 
HETATM   51  C   UNK N   1      29.614  17.021   5.437  0.00  0.00     0.167 A 
HETATM   52  C   UNK N   1      31.086  17.142   5.661  0.00  0.00    -0.013 A 
HETATM   53  C   UNK N   1      31.958  17.118   4.569  0.00  0.00     0.011 A 
HETATM   54  C   UNK N   1      31.598  17.304   6.957  0.00  0.00     0.043 A 
HETATM   55  C   UNK N   1      33.335  17.264   4.768  0.00  0.00     0.001 A 
HETATM   56  C   UNK N   1      33.840  17.440   6.060  0.00  0.00     0.002 A 
HETATM   57  C   UNK N   1      32.972  17.456   7.153  0.00  0.00     0.030 A 
HETATM   58  N   UNK N   1      30.732  17.321   8.075  0.00  0.00    -0.322 N 
HETATM   59  C   UNK N   1      29.461  17.224   7.952  0.00  0.00     0.220 A 
ATOM     60  HN  UNK N   1      31.133  17.412   9.009  1.00  0.00     0.169 HD
BRANCH  59  61
HETATM   61  O   UNK N   1      28.689  17.279   9.061  0.00  0.00    -0.332 OA
HETATM   62  H   UNK N   1      29.024  17.442   9.921  0.00  0.00     0.220 HD
ENDBRANCH  59  61
ENDBRANCH  47  50
ENDBRANCH  43  44
BRANCH  43  63
HETATM   63  O   UNK N   1      24.236  18.785   5.241  0.00  0.00    -0.333 OA
HETATM   64  H   UNK N   1      23.699  19.461   5.604  0.00  0.00     0.220 HD
ENDBRANCH  43  63
ENDBRANCH  41  43
ENDBRANCH   1  41
TORSDOF 20
ENDMDL
MODEL 7
REMARK VINA RESULT:      -7.9      2.495      5.760
REMARK  20 active torsions:
REMARK  status: ('A' for Active; 'I' for Inactive)
REMARK    1  A    between atoms: C_4  and  C_3 
REMARK    2  A    between atoms: C_7  and  C_3 
REMARK    3  A    between atoms: C_12  and  C_4 
REMARK    4  A    between atoms: C_32  and  C_7 
REMARK    5  A    between atoms: N_41  and  C_12 
REMARK    6  A    between atoms: C_25  and  C_23 
REMARK    7  A    between atoms: C_33  and  C_23 
REMARK    8  A    between atoms: N_50  and  C_27 
REMARK    9  A    between atoms: N_53  and  C_28 
REMARK   10  A    between atoms: C_36  and  C_32 
REMARK   11  A    between atoms: C_32  and  N_44 
REMARK   12  A    between atoms: C_35  and  C_33 
REMARK   13  A    between atoms: C_33  and  N_48 
REMARK   14  A    between atoms: O_54  and  C_34 
REMARK   15  A    between atoms: N_44  and  C_35 
REMARK   16  A    between atoms: C_35  and  O_55 
REMARK       I    between atoms: N_51  and  C_36 
REMARK   17  A    between atoms: N_48  and  C_37 
REMARK   18  A    between atoms: N_52  and  C_37 
REMARK   19  A    between atoms: C_37  and  O_57 
REMARK   20  A    between atoms: O_58  and  C_38 
ROOT
HETATM    1  C   UNK N   1      23.553  16.522   5.222  0.00  0.00     0.163 C 
ENDROOT
BRANCH   1   2
HETATM    2  C   UNK N   1      22.243  17.146   5.726  0.00  0.00     0.072 C 
BRANCH   2   3
HETATM    3  C   UNK N   1      21.483  16.357   6.740  0.00  0.00    -0.053 A 
HETATM    4  C   UNK N   1      20.385  16.959   7.354  0.00  0.00     0.029 A 
HETATM    5  C   UNK N   1      19.681  16.293   8.356  0.00  0.00     0.045 A 
HETATM    6  C   UNK N   1      20.075  15.005   8.749  0.00  0.00     0.100 A 
HETATM    7 Br   UNK N   1      18.198  17.167   9.184  0.00  0.00    -0.048 Br
HETATM    8  C   UNK N   1      21.182  14.397   8.133  0.00  0.00     0.045 A 
HETATM    9  C   UNK N   1      21.890  15.079   7.138  0.00  0.00     0.029 A 
HETATM   10 Br   UNK N   1      21.739  12.644   8.648  0.00  0.00    -0.048 Br
BRANCH   6  11
HETATM   11  O   UNK N   1      19.398  14.359   9.714  0.00  0.00    -0.358 OA
HETATM   12  H   UNK N   1      19.248  14.771  10.542  0.00  0.00     0.217 HD
ENDBRANCH   6  11
ENDBRANCH   2   3
ENDBRANCH   1   2
BRANCH   1  13
HETATM   13  C   UNK N   1      23.668  16.695   3.751  0.00  0.00     0.135 C 
BRANCH  13  14
HETATM   14  N   UNK N   1      24.305  15.778   3.107  0.00  0.00    -0.359 N 
ATOM     15  HN  UNK N   1      25.166  16.094   2.660  1.00  0.00     0.162 HD
BRANCH  14  16
HETATM   16  C   UNK N   1      24.007  14.384   2.914  0.00  0.00     0.175 C 
BRANCH  16  17
HETATM   17  C   UNK N   1      25.155  13.380   3.082  0.00  0.00     0.035 C 
BRANCH  17  18
HETATM   18  C   UNK N   1      24.864  12.055   3.758  0.00  0.00     0.004 C 
BRANCH  18  19
HETATM   19  C   UNK N   1      24.445  12.295   5.199  0.00  0.00     0.019 C 
BRANCH  19  20
HETATM   20  C   UNK N   1      25.616  12.763   6.048  0.00  0.00     0.111 C 
BRANCH  20  21
HETATM   21  N   UNK N   1      25.147  13.664   7.086  0.00  0.00    -0.430 N 
HETATM   22  H   UNK N   1      25.451  14.548   7.494  0.00  0.00     0.149 HD
HETATM   23  H   UNK N   1      24.290  13.323   7.521  0.00  0.00     0.149 HD
ENDBRANCH  20  21
ENDBRANCH  19  20
ENDBRANCH  18  19
ENDBRANCH  17  18
ENDBRANCH  16  17
BRANCH  16  24
HETATM   24  C   UNK N   1      22.978  14.241   1.792  0.00  0.00     0.242 C 
HETATM   25  N   UNK N   1      21.656  13.975   2.002  0.00  0.00    -0.347 N 
HETATM   26  C   UNK N   1      20.747  13.864   0.876  0.00  0.00     0.145 C 
HETATM   27  C   UNK N   1      21.079  13.952   3.321  0.00  0.00     0.145 C 
HETATM   28  C   UNK N   1      19.632  14.915   0.999  0.00  0.00     0.143 C 
HETATM   29  N   UNK N   1      19.862  15.748   2.166  0.00  0.00    -0.378 N 
HETATM   30  C   UNK N   1      20.063  15.094   3.450  0.00  0.00     0.143 C 
HETATM   31  O   UNK N   1      23.383  14.333   0.639  0.00  0.00    -0.271 OA
BRANCH  29  32
HETATM   32  C   UNK N   1      19.955  17.168   2.044  0.00  0.00     0.032 A 
HETATM   33  C   UNK N   1      19.606  18.002   3.117  0.00  0.00     0.046 A 
HETATM   34  C   UNK N   1      19.663  19.389   2.963  0.00  0.00     0.089 A 
HETATM   35  N   UNK N   1      20.045  19.930   1.775  0.00  0.00    -0.375 N 
HETATM   36  C   UNK N   1      20.392  19.147   0.719  0.00  0.00     0.089 A 
ATOM     37  HN  UNK N   1      20.071  20.944   1.674  1.00  0.00     0.164 HD
HETATM   38  C   UNK N   1      20.359  17.755   0.836  0.00  0.00     0.046 A 
ENDBRANCH  29  32
ENDBRANCH  16  24
ENDBRANCH  14  16
ENDBRANCH  13  14
BRANCH  13  39
HETATM   39  O   UNK N   1      22.958  17.658   3.134  0.00  0.00    -0.348 OA
HETATM   40  H   UNK N   1      22.581  18.511   3.217  0.00  0.00     0.219 HD
ENDBRANCH  13  39
ENDBRANCH   1  13
BRANCH   1  41
HETATM   41  N   UNK N   1      24.748  17.172   5.739  0.00  0.00    -0.344 N 
ATOM     42  HN  UNK N   1      25.073  16.882   6.661  1.00  0.00     0.164 HD
BRANCH  41  43
HETATM   43  C   UNK N   1      25.438  18.091   5.130  0.00  0.00     0.215 C 
BRANCH  43  44
HETATM   44  N   UNK N   1      26.817  17.878   4.865  0.00  0.00    -0.348 N 
HETATM   45  C   UNK N   1      27.698  18.935   5.255  0.00  0.00     0.128 C 
HETATM   46  C   UNK N   1      27.777  18.848   6.774  0.00  0.00     0.045 C 
HETATM   47  C   UNK N   1      28.122  17.418   7.244  0.00  0.00     0.091 C 
HETATM   48  C   UNK N   1      27.539  16.221   6.466  0.00  0.00     0.045 C 
HETATM   49  C   UNK N   1      27.362  16.546   4.988  0.00  0.00     0.128 C 
BRANCH  47  50
HETATM   50  N   UNK N   1      29.515  17.303   7.553  0.00  0.00    -0.338 N 
HETATM   51  C   UNK N   1      30.462  16.947   6.503  0.00  0.00     0.167 A 
HETATM   52  C   UNK N   1      31.885  17.170   6.901  0.00  0.00    -0.013 A 
HETATM   53  C   UNK N   1      32.910  16.908   5.987  0.00  0.00     0.011 A 
HETATM   54  C   UNK N   1      32.198  17.662   8.177  0.00  0.00     0.043 A 
HETATM   55  C   UNK N   1      34.241  17.146   6.342  0.00  0.00     0.001 A 
HETATM   56  C   UNK N   1      34.549  17.651   7.609  0.00  0.00     0.002 A 
HETATM   57  C   UNK N   1      33.528  17.905   8.527  0.00  0.00     0.030 A 
HETATM   58  N   UNK N   1      31.175  17.923   9.118  0.00  0.00    -0.322 N 
HETATM   59  C   UNK N   1      29.937  17.756   8.840  0.00  0.00     0.220 A 
ATOM     60  HN  UNK N   1      31.433  18.253  10.048  1.00  0.00     0.169 HD
BRANCH  59  61
HETATM   61  O   UNK N   1      29.008  18.054   9.777  0.00  0.00    -0.332 OA
HETATM   62  H   UNK N   1      29.217  18.300  10.657  0.00  0.00     0.220 HD
ENDBRANCH  59  61
ENDBRANCH  47  50
ENDBRANCH  43  44
BRANCH  43  63
HETATM   63  O   UNK N   1      24.878  19.272   4.783  0.00  0.00    -0.333 OA
HETATM   64  H   UNK N   1      24.312  19.976   5.029  0.00  0.00     0.220 HD
ENDBRANCH  43  63
ENDBRANCH  41  43
ENDBRANCH   1  41
TORSDOF 20
ENDMDL
MODEL 8
REMARK VINA RESULT:      -7.8      2.862      5.016
REMARK  20 active torsions:
REMARK  status: ('A' for Active; 'I' for Inactive)
REMARK    1  A    between atoms: C_4  and  C_3 
REMARK    2  A    between atoms: C_7  and  C_3 
REMARK    3  A    between atoms: C_12  and  C_4 
REMARK    4  A    between atoms: C_32  and  C_7 
REMARK    5  A    between atoms: N_41  and  C_12 
REMARK    6  A    between atoms: C_25  and  C_23 
REMARK    7  A    between atoms: C_33  and  C_23 
REMARK    8  A    between atoms: N_50  and  C_27 
REMARK    9  A    between atoms: N_53  and  C_28 
REMARK   10  A    between atoms: C_36  and  C_32 
REMARK   11  A    between atoms: C_32  and  N_44 
REMARK   12  A    between atoms: C_35  and  C_33 
REMARK   13  A    between atoms: C_33  and  N_48 
REMARK   14  A    between atoms: O_54  and  C_34 
REMARK   15  A    between atoms: N_44  and  C_35 
REMARK   16  A    between atoms: C_35  and  O_55 
REMARK       I    between atoms: N_51  and  C_36 
REMARK   17  A    between atoms: N_48  and  C_37 
REMARK   18  A    between atoms: N_52  and  C_37 
REMARK   19  A    between atoms: C_37  and  O_57 
REMARK   20  A    between atoms: O_58  and  C_38 
ROOT
HETATM    1  C   UNK N   1      23.149  16.030   5.057  0.00  0.00     0.163 C 
ENDROOT
BRANCH   1   2
HETATM    2  C   UNK N   1      22.415  16.965   6.030  0.00  0.00     0.072 C 
BRANCH   2   3
HETATM    3  C   UNK N   1      21.597  16.304   7.089  0.00  0.00    -0.053 A 
HETATM    4  C   UNK N   1      22.006  15.053   7.553  0.00  0.00     0.029 A 
HETATM    5  C   UNK N   1      21.242  14.362   8.492  0.00  0.00     0.045 A 
HETATM    6  C   UNK N   1      20.055  14.928   8.981  0.00  0.00     0.100 A 
HETATM    7 Br   UNK N   1      21.829  12.642   9.079  0.00  0.00    -0.048 Br
HETATM    8  C   UNK N   1      19.640  16.187   8.516  0.00  0.00     0.045 A 
HETATM    9  C   UNK N   1      20.406  16.867   7.562  0.00  0.00     0.029 A 
HETATM   10 Br   UNK N   1      18.030  16.981   9.165  0.00  0.00    -0.048 Br
BRANCH   6  11
HETATM   11  O   UNK N   1      19.317  14.265   9.888  0.00  0.00    -0.358 OA
HETATM   12  H   UNK N   1      18.485  14.603  10.158  0.00  0.00     0.217 HD
ENDBRANCH   6  11
ENDBRANCH   2   3
ENDBRANCH   1   2
BRANCH   1  13
HETATM   13  C   UNK N   1      22.197  15.492   4.051  0.00  0.00     0.135 C 
BRANCH  13  14
HETATM   14  N   UNK N   1      22.214  16.042   2.885  0.00  0.00    -0.359 N 
ATOM     15  HN  UNK N   1      22.969  16.713   2.744  1.00  0.00     0.162 HD
BRANCH  14  16
HETATM   16  C   UNK N   1      21.348  15.868   1.750  0.00  0.00     0.175 C 
BRANCH  16  17
HETATM   17  C   UNK N   1      20.141  16.807   1.625  0.00  0.00     0.035 C 
BRANCH  17  18
HETATM   18  C   UNK N   1      20.017  17.958   2.603  0.00  0.00     0.004 C 
BRANCH  18  19
HETATM   19  C   UNK N   1      20.487  19.244   1.944  0.00  0.00     0.019 C 
BRANCH  19  20
HETATM   20  C   UNK N   1      21.160  20.169   2.945  0.00  0.00     0.111 C 
BRANCH  20  21
HETATM   21  N   UNK N   1      22.392  19.568   3.425  0.00  0.00    -0.430 N 
HETATM   22  H   UNK N   1      23.276  19.897   3.816  0.00  0.00     0.149 HD
HETATM   23  H   UNK N   1      22.369  18.552   3.350  0.00  0.00     0.149 HD
ENDBRANCH  20  21
ENDBRANCH  19  20
ENDBRANCH  18  19
ENDBRANCH  17  18
ENDBRANCH  16  17
BRANCH  16  24
HETATM   24  C   UNK N   1      21.240  14.378   1.423  0.00  0.00     0.242 C 
HETATM   25  N   UNK N   1      22.248  13.648   0.864  0.00  0.00    -0.347 N 
HETATM   26  C   UNK N   1      22.060  12.234   0.595  0.00  0.00     0.145 C 
HETATM   27  C   UNK N   1      23.569  14.187   0.669  0.00  0.00     0.145 C 
HETATM   28  C   UNK N   1      23.103  11.411   1.369  0.00  0.00     0.143 C 
HETATM   29  N   UNK N   1      23.918  12.289   2.191  0.00  0.00    -0.378 N 
HETATM   30  C   UNK N   1      24.564  13.425   1.552  0.00  0.00     0.143 C 
HETATM   31  O   UNK N   1      20.167  13.829   1.643  0.00  0.00    -0.271 OA
BRANCH  29  32
HETATM   32  C   UNK N   1      24.024  12.080   3.599  0.00  0.00     0.032 A 
HETATM   33  C   UNK N   1      23.176  11.174   4.253  0.00  0.00     0.046 A 
HETATM   34  C   UNK N   1      23.268  11.014   5.638  0.00  0.00     0.089 A 
HETATM   35  N   UNK N   1      24.166  11.743   6.352  0.00  0.00    -0.375 N 
HETATM   36  C   UNK N   1      25.004  12.627   5.745  0.00  0.00     0.089 A 
ATOM     37  HN  UNK N   1      24.214  11.625   7.364  1.00  0.00     0.164 HD
HETATM   38  C   UNK N   1      24.951  12.807   4.361  0.00  0.00     0.046 A 
ENDBRANCH  29  32
ENDBRANCH  16  24
ENDBRANCH  14  16
ENDBRANCH  13  14
BRANCH  13  39
HETATM   39  O   UNK N   1      21.517  14.361   4.313  0.00  0.00    -0.348 OA
HETATM   40  H   UNK N   1      20.689  13.927   4.257  0.00  0.00     0.219 HD
ENDBRANCH  13  39
ENDBRANCH   1  13
BRANCH   1  41
HETATM   41  N   UNK N   1      24.159  16.701   4.252  0.00  0.00    -0.344 N 
ATOM     42  HN  UNK N   1      24.121  16.556   3.243  1.00  0.00     0.164 HD
BRANCH  41  43
HETATM   43  C   UNK N   1      25.106  17.469   4.703  0.00  0.00     0.215 C 
BRANCH  43  44
HETATM   44  N   UNK N   1      26.460  17.054   4.603  0.00  0.00    -0.348 N 
HETATM   45  C   UNK N   1      27.432  18.102   4.555  0.00  0.00     0.128 C 
HETATM   46  C   UNK N   1      27.501  18.647   5.977  0.00  0.00     0.045 C 
HETATM   47  C   UNK N   1      27.715  17.518   7.008  0.00  0.00     0.091 C 
HETATM   48  C   UNK N   1      27.027  16.159   6.773  0.00  0.00     0.045 C 
HETATM   49  C   UNK N   1      26.882  15.853   5.288  0.00  0.00     0.128 C 
BRANCH  47  50
HETATM   50  N   UNK N   1      29.091  17.429   7.391  0.00  0.00    -0.338 N 
HETATM   51  C   UNK N   1      30.086  16.991   6.418  0.00  0.00     0.167 A 
HETATM   52  C   UNK N   1      31.489  17.246   6.864  0.00  0.00    -0.013 A 
HETATM   53  C   UNK N   1      32.555  16.913   6.024  0.00  0.00     0.011 A 
HETATM   54  C   UNK N   1      31.743  17.838   8.111  0.00  0.00     0.043 A 
HETATM   55  C   UNK N   1      33.869  17.179   6.421  0.00  0.00     0.001 A 
HETATM   56  C   UNK N   1      34.118  17.783   7.657  0.00  0.00     0.002 A 
HETATM   57  C   UNK N   1      33.056  18.109   8.502  0.00  0.00     0.030 A 
HETATM   58  N   UNK N   1      30.678  18.173   8.979  0.00  0.00    -0.322 N 
HETATM   59  C   UNK N   1      29.453  17.983   8.656  0.00  0.00     0.220 A 
ATOM     60  HN  UNK N   1      30.892  18.576   9.890  1.00  0.00     0.169 HD
BRANCH  59  61
HETATM   61  O   UNK N   1      28.483  18.355   9.522  0.00  0.00    -0.332 OA
HETATM   62  H   UNK N   1      28.647  18.622  10.405  0.00  0.00     0.220 HD
ENDBRANCH  59  61
ENDBRANCH  47  50
ENDBRANCH  43  44
BRANCH  43  63
HETATM   63  O   UNK N   1      24.823  18.643   5.312  0.00  0.00    -0.333 OA
HETATM   64  H   UNK N   1      24.425  19.488   5.244  0.00  0.00     0.220 HD
ENDBRANCH  43  63
ENDBRANCH  41  43
ENDBRANCH   1  41
TORSDOF 20
ENDMDL
MODEL 9
REMARK VINA RESULT:      -7.8      2.579      5.957
REMARK  20 active torsions:
REMARK  status: ('A' for Active; 'I' for Inactive)
REMARK    1  A    between atoms: C_4  and  C_3 
REMARK    2  A    between atoms: C_7  and  C_3 
REMARK    3  A    between atoms: C_12  and  C_4 
REMARK    4  A    between atoms: C_32  and  C_7 
REMARK    5  A    between atoms: N_41  and  C_12 
REMARK    6  A    between atoms: C_25  and  C_23 
REMARK    7  A    between atoms: C_33  and  C_23 
REMARK    8  A    between atoms: N_50  and  C_27 
REMARK    9  A    between atoms: N_53  and  C_28 
REMARK   10  A    between atoms: C_36  and  C_32 
REMARK   11  A    between atoms: C_32  and  N_44 
REMARK   12  A    between atoms: C_35  and  C_33 
REMARK   13  A    between atoms: C_33  and  N_48 
REMARK   14  A    between atoms: O_54  and  C_34 
REMARK   15  A    between atoms: N_44  and  C_35 
REMARK   16  A    between atoms: C_35  and  O_55 
REMARK       I    between atoms: N_51  and  C_36 
REMARK   17  A    between atoms: N_48  and  C_37 
REMARK   18  A    between atoms: N_52  and  C_37 
REMARK   19  A    between atoms: C_37  and  O_57 
REMARK   20  A    between atoms: O_58  and  C_38 
ROOT
HETATM    1  C   UNK N   1      23.545  16.634   5.169  0.00  0.00     0.163 C 
ENDROOT
BRANCH   1   2
HETATM    2  C   UNK N   1      22.244  17.269   5.682  0.00  0.00     0.072 C 
BRANCH   2   3
HETATM    3  C   UNK N   1      21.532  16.530   6.765  0.00  0.00    -0.053 A 
HETATM    4  C   UNK N   1      21.975  15.247   7.089  0.00  0.00     0.029 A 
HETATM    5  C   UNK N   1      21.304  14.486   8.046  0.00  0.00     0.045 A 
HETATM    6  C   UNK N   1      20.177  15.014   8.693  0.00  0.00     0.100 A 
HETATM    7 Br   UNK N   1      21.934  12.727   8.438  0.00  0.00    -0.048 Br
HETATM    8  C   UNK N   1      19.727  16.305   8.369  0.00  0.00     0.045 A 
HETATM    9  C   UNK N   1      20.399  17.055   7.397  0.00  0.00     0.029 A 
HETATM   10 Br   UNK N   1      18.196  17.048   9.235  0.00  0.00    -0.048 Br
BRANCH   6  11
HETATM   11  O   UNK N   1      19.528  14.284   9.617  0.00  0.00    -0.358 OA
HETATM   12  H   UNK N   1      19.925  14.115  10.449  0.00  0.00     0.217 HD
ENDBRANCH   6  11
ENDBRANCH   2   3
ENDBRANCH   1   2
BRANCH   1  13
HETATM   13  C   UNK N   1      23.666  16.834   3.701  0.00  0.00     0.135 C 
BRANCH  13  14
HETATM   14  N   UNK N   1      24.338  15.948   3.050  0.00  0.00    -0.359 N 
ATOM     15  HN  UNK N   1      25.166  16.308   2.575  1.00  0.00     0.162 HD
BRANCH  14  16
HETATM   16  C   UNK N   1      24.117  14.537   2.878  0.00  0.00     0.175 C 
BRANCH  16  17
HETATM   17  C   UNK N   1      25.328  13.605   3.014  0.00  0.00     0.035 C 
BRANCH  17  18
HETATM   18  C   UNK N   1      26.616  13.988   2.314  0.00  0.00     0.004 C 
BRANCH  18  19
HETATM   19  C   UNK N   1      27.550  12.790   2.267  0.00  0.00     0.019 C 
BRANCH  19  20
HETATM   20  C   UNK N   1      28.908  13.166   1.695  0.00  0.00     0.111 C 
BRANCH  20  21
HETATM   21  N   UNK N   1      29.586  14.086   2.591  0.00  0.00    -0.430 N 
HETATM   22  H   UNK N   1      30.466  14.108   3.106  0.00  0.00     0.149 HD
HETATM   23  H   UNK N   1      29.038  14.932   2.746  0.00  0.00     0.149 HD
ENDBRANCH  20  21
ENDBRANCH  19  20
ENDBRANCH  18  19
ENDBRANCH  17  18
ENDBRANCH  16  17
BRANCH  16  24
HETATM   24  C   UNK N   1      23.059  14.322   1.795  0.00  0.00     0.242 C 
HETATM   25  N   UNK N   1      21.757  14.006   2.056  0.00  0.00    -0.347 N 
HETATM   26  C   UNK N   1      20.818  13.828   0.964  0.00  0.00     0.145 C 
HETATM   27  C   UNK N   1      21.224  13.995   3.394  0.00  0.00     0.145 C 
HETATM   28  C   UNK N   1      19.664  14.835   1.098  0.00  0.00     0.143 C 
HETATM   29  N   UNK N   1      19.895  15.707   2.236  0.00  0.00    -0.378 N 
HETATM   30  C   UNK N   1      20.165  15.096   3.527  0.00  0.00     0.143 C 
HETATM   31  O   UNK N   1      23.423  14.401   0.628  0.00  0.00    -0.271 OA
BRANCH  29  32
HETATM   32  C   UNK N   1      19.924  17.126   2.074  0.00  0.00     0.032 A 
HETATM   33  C   UNK N   1      20.320  17.698   0.856  0.00  0.00     0.046 A 
HETATM   34  C   UNK N   1      20.382  19.088   0.731  0.00  0.00     0.089 A 
HETATM   35  N   UNK N   1      20.071  19.884   1.789  0.00  0.00    -0.375 N 
HETATM   36  C   UNK N   1      19.680  19.358   2.981  0.00  0.00     0.089 A 
ATOM     37  HN  UNK N   1      20.132  20.897   1.687  1.00  0.00     0.164 HD
HETATM   38  C   UNK N   1      19.595  17.973   3.143  0.00  0.00     0.046 A 
ENDBRANCH  29  32
ENDBRANCH  16  24
ENDBRANCH  14  16
ENDBRANCH  13  14
BRANCH  13  39
HETATM   39  O   UNK N   1      22.931  17.783   3.094  0.00  0.00    -0.348 OA
HETATM   40  H   UNK N   1      22.551  18.066   2.286  0.00  0.00     0.219 HD
ENDBRANCH  13  39
ENDBRANCH   1  13
BRANCH   1  41
HETATM   41  N   UNK N   1      24.749  17.257   5.701  0.00  0.00    -0.344 N 
ATOM     42  HN  UNK N   1      25.068  16.943   6.617  1.00  0.00     0.164 HD
BRANCH  41  43
HETATM   43  C   UNK N   1      25.454  18.177   5.112  0.00  0.00     0.215 C 
BRANCH  43  44
HETATM   44  N   UNK N   1      26.832  17.953   4.853  0.00  0.00    -0.348 N 
HETATM   45  C   UNK N   1      27.720  19.000   5.253  0.00  0.00     0.128 C 
HETATM   46  C   UNK N   1      27.790  18.905   6.772  0.00  0.00     0.045 C 
HETATM   47  C   UNK N   1      28.120  17.469   7.236  0.00  0.00     0.091 C 
HETATM   48  C   UNK N   1      27.530  16.282   6.450  0.00  0.00     0.045 C 
HETATM   49  C   UNK N   1      27.364  16.615   4.972  0.00  0.00     0.128 C 
BRANCH  47  50
HETATM   50  N   UNK N   1      29.510  17.340   7.553  0.00  0.00    -0.338 N 
HETATM   51  C   UNK N   1      30.454  16.946   6.514  0.00  0.00     0.167 A 
HETATM   52  C   UNK N   1      31.879  17.156   6.911  0.00  0.00    -0.013 A 
HETATM   53  C   UNK N   1      32.902  16.857   6.007  0.00  0.00     0.011 A 
HETATM   54  C   UNK N   1      32.197  17.672   8.176  0.00  0.00     0.043 A 
HETATM   55  C   UNK N   1      34.237  17.082   6.359  0.00  0.00     0.001 A 
HETATM   56  C   UNK N   1      34.549  17.612   7.616  0.00  0.00     0.002 A 
HETATM   57  C   UNK N   1      33.529  17.903   8.524  0.00  0.00     0.030 A 
HETATM   58  N   UNK N   1      31.175  17.971   9.108  0.00  0.00    -0.322 N 
HETATM   59  C   UNK N   1      29.935  17.816   8.829  0.00  0.00     0.220 A 
ATOM     60  HN  UNK N   1      31.435  18.319  10.030  1.00  0.00     0.169 HD
BRANCH  59  61
HETATM   61  O   UNK N   1      29.009  18.151   9.757  0.00  0.00    -0.332 OA
HETATM   62  H   UNK N   1      29.013  17.829  10.636  0.00  0.00     0.220 HD
ENDBRANCH  59  61
ENDBRANCH  47  50
ENDBRANCH  43  44
BRANCH  43  63
HETATM   63  O   UNK N   1      24.909  19.370   4.780  0.00  0.00    -0.333 OA
HETATM   64  H   UNK N   1      24.508  20.161   5.079  0.00  0.00     0.220 HD
ENDBRANCH  43  63
ENDBRANCH  41  43
ENDBRANCH   1  41
TORSDOF 20
ENDMDL
