REMARK  13 active torsions:
REMARK  status: ('A' for Active; 'I' for Inactive)
REMARK    1  A    between atoms: C_20  and  C_103 
REMARK    2  A    between atoms: C_61  and  N_62 
REMARK    3  A    between atoms: C_68  and  C_73 
REMARK    4  A    between atoms: C_95  and  C_96 
REMARK    5  A    between atoms: C_96  and  N_97 
REMARK    6  A    between atoms: C_105  and  C_111 
REMARK    7  A    between atoms: C_115  and  C_121 
REMARK    8  A    between atoms: C_122  and  C_128 
REMARK    9  A    between atoms: C_132  and  C_160 
REMARK   10  A    between atoms: C_140  and  O_141 
REMARK   11  A    between atoms: C_151  and  O_152 
REMARK   12  A    between atoms: C_164  and  C_170 
REMARK   13  A    between atoms: C_171  and  C_178 
ROOT
HETATM    1  C   UNK N   1       6.734  -9.997   0.000  0.00  0.00     0.010 A 
HETATM    2  C   UNK N   1       7.441  -9.803   0.000  0.00  0.00    -0.019 A 
HETATM    3  C   UNK N   1       7.101  -9.033   0.000  0.00  0.00     0.010 A 
HETATM    4  C   UNK N   1       8.031 -10.556   0.000  0.00  0.00     0.031 A 
HETATM    5  C   UNK N   1       7.329 -10.989   0.000  0.00  0.00    -0.026 A 
HETATM    6  C   UNK N   1       6.407 -10.966   0.000  0.00  0.00    -0.004 A 
HETATM    7  C   UNK N   1       5.642 -10.508   0.000  0.00  0.00     0.005 A 
HETATM    8  C   UNK N   1       5.809  -9.570   0.000  0.00  0.00     0.074 A 
HETATM    9  C   UNK N   1       6.240  -8.760   0.000  0.00  0.00     0.241 A 
HETATM   10  O   UNK N   1       6.869  -8.215   0.000  0.00  0.00    -0.269 OA
HETATM   11  N   UNK N   1       6.405  -9.518   0.000  0.00  0.00    -0.344 N 
HETATM   12  C   UNK N   1       6.109 -10.351   0.000  0.00  0.00     0.185 A 
HETATM   13  C   UNK N   1       5.341  -9.995   0.000  0.00  0.00     0.137 A 
HETATM   14  C   UNK N   1       4.747 -10.630   0.000  0.00  0.00     0.217 A 
HETATM   15  N   UNK N   1       4.669 -11.389   0.000  0.00  0.00    -0.370 N 
HETATM   16  O   UNK N   1       4.212  -9.908   0.000  0.00  0.00    -0.274 OA
HETATM   17  C   UNK N   1       5.639 -11.219   0.000  0.00  0.00     0.241 A 
HETATM   18  O   UNK N   1       5.639 -12.075   0.000  0.00  0.00    -0.271 OA
HETATM   19  N   UNK N   1       5.080 -11.876   0.000  0.00  0.00    -0.343 N 
HETATM   20  C   UNK N   1       4.691 -12.618   0.000  0.00  0.00     0.215 A 
HETATM   21  C   UNK N   1       3.882 -12.775   0.000  0.00  0.00     0.255 A 
HETATM   22  O   UNK N   1       3.482 -12.054   0.000  0.00  0.00    -0.302 OA
HETATM   23  C   UNK N   1       4.044 -11.451   0.000  0.00  0.00     0.287 A 
HETATM   24  O   UNK N   1       4.165 -12.200   0.000  0.00  0.00    -0.262 OA
HETATM   25  C   UNK N   1       4.099 -10.549   0.000  0.00  0.00     0.217 A 
HETATM   26  N   UNK N   1       4.820 -10.149   0.000  0.00  0.00    -0.342 N 
HETATM   27  C   UNK N   1       4.834  -9.324   0.000  0.00  0.00     0.241 A 
HETATM   28  O   UNK N   1       4.198  -8.737   0.000  0.00  0.00    -0.271 OA
HETATM   29  C   UNK N   1       5.556  -8.924   0.000  0.00  0.00     0.172 A 
HETATM   30  C   UNK N   1       4.904  -8.330   0.000  0.00  0.00     0.042 A 
HETATM   31  N   UNK N   1       5.570  -8.099   0.000  0.00  0.00    -0.346 N 
HETATM   32  C   UNK N   1       6.291  -7.699   0.000  0.00  0.00     0.241 A 
HETATM   33  O   UNK N   1       7.081  -7.374   0.000  0.00  0.00    -0.271 OA
HETATM   34  C   UNK N   1       6.305  -6.874   0.000  0.00  0.00     0.177 A 
HETATM   35  C   UNK N   1       5.511  -6.507   0.000  0.00  0.00     0.038 A 
HETATM   36  C   UNK N   1       4.673  -6.293   0.000  0.00  0.00    -0.020 A 
HETATM   37  C   UNK N   1       3.969  -6.751   0.000  0.00  0.00     0.009 A 
HETATM   38  C   UNK N   1       4.136  -5.640   0.000  0.00  0.00     0.009 A 
HETATM   39  N   UNK N   1       7.027  -6.474   0.000  0.00  0.00    -0.346 N 
HETATM   40  C   UNK N   1       7.041  -5.649   0.000  0.00  0.00     0.236 A 
HETATM   41  O   UNK N   1       6.402  -5.104   0.000  0.00  0.00    -0.272 OA
HETATM   42  C   UNK N   1       7.762  -5.249   0.000  0.00  0.00     0.225 A 
HETATM   43  N   UNK N   1       7.776  -4.424   0.000  0.00  0.00    -0.350 N 
HETATM   44  C   UNK N   1       8.498  -4.024   0.000  0.00  0.00     0.245 A 
HETATM   45  O   UNK N   1       9.316  -4.142   0.000  0.00  0.00    -0.271 OA
HETATM   46  C   UNK N   1       8.512  -3.199   0.000  0.00  0.00     0.210 A 
HETATM   47  N   UNK N   1       9.233  -2.799   0.000  0.00  0.00    -0.342 N 
HETATM   48  C   UNK N   1       9.248  -1.974   0.000  0.00  0.00     0.243 A 
HETATM   49  O   UNK N   1       8.514  -1.683   0.000  0.00  0.00    -0.271 OA
HETATM   50  C   UNK N   1       9.969  -1.574   0.000  0.00  0.00     0.205 A 
HETATM   51  N   UNK N   1       9.983  -0.749   0.000  0.00  0.00    -0.343 N 
HETATM   52  C   UNK N   1      10.704  -0.349   0.000  0.00  0.00     0.245 A 
HETATM   53  O   UNK N   1      11.132  -1.045   0.000  0.00  0.00    -0.271 OA
HETATM   54  C   UNK N   1      10.719   0.476   0.000  0.00  0.00     0.210 A 
HETATM   55  N   UNK N   1      11.440   0.876   0.000  0.00  0.00    -0.342 N 
HETATM   56  C   UNK N   1      12.147   0.452   0.000  0.00  0.00     0.241 A 
HETATM   57  O   UNK N   1      11.908  -0.321   0.000  0.00  0.00    -0.271 OA
HETATM   58  C   UNK N   1      12.869   0.852   0.000  0.00  0.00     0.176 A 
HETATM   59  C   UNK N   1      13.053   1.684   0.000  0.00  0.00     0.036 A 
HETATM   60  C   UNK N   1      13.401   2.445   0.000  0.00  0.00     0.021 A 
HETATM   61  C   UNK N   1      13.880   3.126   0.000  0.00  0.00     0.111 A 
HETATM   62  N   UNK N   1      13.576   0.427   0.000  0.00  0.00    -0.346 N 
HETATM   63  C   UNK N   1      13.562  -0.398   0.000  0.00  0.00     0.241 A 
HETATM   64  O   UNK N   1      14.414  -0.320   0.000  0.00  0.00    -0.271 OA
HETATM   65  C   UNK N   1      12.841  -0.798   0.000  0.00  0.00     0.180 A 
HETATM   66  C   UNK N   1      13.593  -1.218   0.000  0.00  0.00     0.073 A 
HETATM   67  C   UNK N   1      13.534  -2.047   0.000  0.00  0.00    -0.056 A 
HETATM   68  C   UNK N   1      14.241  -2.472   0.000  0.00  0.00     0.007 A 
HETATM   69  C   UNK N   1      14.227  -3.297   0.000  0.00  0.00     0.001 A 
HETATM   70  C   UNK N   1      13.505  -3.697   0.000  0.00  0.00     0.000 A 
HETATM   71  C   UNK N   1      12.883  -3.612   0.000  0.00  0.00     0.001 A 
HETATM   72  C   UNK N   1      12.812  -2.447   0.000  0.00  0.00     0.007 A 
HETATM   73  N   UNK N   1      12.826  -1.623   0.000  0.00  0.00    -0.346 N 
HETATM   74  C   UNK N   1      12.105  -2.023   0.000  0.00  0.00     0.243 A 
HETATM   75  O   UNK N   1      11.268  -2.065   0.000  0.00  0.00    -0.271 OA
HETATM   76  C   UNK N   1      12.091  -2.848   0.000  0.00  0.00     0.205 A 
HETATM   77  N   UNK N   1      11.369  -3.248   0.000  0.00  0.00    -0.343 N 
HETATM   78  C   UNK N   1      11.355  -4.073   0.000  0.00  0.00     0.245 A 
HETATM   79  O   UNK N   1      12.025  -3.683   0.000  0.00  0.00    -0.271 OA
HETATM   80  C   UNK N   1      10.634  -4.473   0.000  0.00  0.00     0.210 A 
HETATM   81  N   UNK N   1      10.620  -5.298   0.000  0.00  0.00    -0.342 N 
HETATM   82  C   UNK N   1       9.898  -5.698   0.000  0.00  0.00     0.246 A 
HETATM   83  O   UNK N   1       9.074  -5.588   0.000  0.00  0.00    -0.271 OA
HETATM   84  C   UNK N   1       9.884  -6.523   0.000  0.00  0.00     0.210 A 
HETATM   85  N   UNK N   1       9.163  -6.923   0.000  0.00  0.00    -0.342 N 
HETATM   86  C   UNK N   1       9.149  -7.748   0.000  0.00  0.00     0.243 A 
HETATM   87  O   UNK N   1       9.869  -8.097   0.000  0.00  0.00    -0.271 OA
HETATM   88  C   UNK N   1       8.427  -8.148   0.000  0.00  0.00     0.205 A 
HETATM   89  N   UNK N   1       8.413  -8.973   0.000  0.00  0.00    -0.344 N 
HETATM   90  C   UNK N   1       7.692  -9.373   0.000  0.00  0.00     0.241 A 
HETATM   91  O   UNK N   1       7.735  -8.524   0.000  0.00  0.00    -0.271 OA
HETATM   92  C   UNK N   1       7.678 -10.198   0.000  0.00  0.00     0.176 A 
HETATM   93  C   UNK N   1       8.634 -10.317   0.000  0.00  0.00     0.036 A 
HETATM   94  C   UNK N   1       9.372 -10.774   0.000  0.00  0.00     0.021 A 
HETATM   95  N   UNK N   1       6.956 -10.598   0.000  0.00  0.00    -0.346 N 
HETATM   96  C   UNK N   1       6.942 -11.423   0.000  0.00  0.00     0.245 A 
HETATM   97  O   UNK N   1       7.888 -11.342   0.000  0.00  0.00    -0.271 OA
HETATM   98  C   UNK N   1       6.221 -11.823   0.000  0.00  0.00     0.210 A 
HETATM   99  N   UNK N   1       6.206 -12.648   0.000  0.00  0.00    -0.342 N 
HETATM  100  C   UNK N   1       5.485 -13.049   0.000  0.00  0.00     0.244 A 
HETATM  101  O   UNK N   1       5.500 -13.899   0.000  0.00  0.00    -0.271 OA
HETATM  102  C   UNK N   1       6.928 -12.248   0.000  0.00  0.00    -0.026 A 
HETATM  103  C   UNK N   1       7.649 -11.848   0.000  0.00  0.00     0.012 A 
HETATM  104  C   UNK N   1       8.357 -12.273   0.000  0.00  0.00     0.037 A 
HETATM  105  C   UNK N   1       8.342 -13.098   0.000  0.00  0.00     0.065 A 
HETATM  106  O   UNK N   1       8.956 -13.673   0.000  0.00  0.00    -0.361 OA
HETATM  107  C   UNK N   1       7.621 -13.498   0.000  0.00  0.00     0.037 A 
HETATM  108  C   UNK N   1       6.914 -13.073   0.000  0.00  0.00     0.012 A 
HETATM  109  C   UNK N   1       9.168  -8.707   0.000  0.00  0.00     0.146 A 
HETATM  110  C   UNK N   1       9.985  -8.999   0.000  0.00  0.00     0.042 A 
HETATM  111  O   UNK N   1       9.397  -9.526   0.000  0.00  0.00    -0.393 OA
HETATM  112  C   UNK N   1      10.591  -6.948   0.000  0.00  0.00    -0.026 A 
HETATM  113  C   UNK N   1      11.313  -6.547   0.000  0.00  0.00     0.012 A 
HETATM  114  C   UNK N   1      12.020  -6.972   0.000  0.00  0.00     0.037 A 
HETATM  115  C   UNK N   1      12.006  -7.797   0.000  0.00  0.00     0.065 A 
HETATM  116  O   UNK N   1      12.597  -8.399   0.000  0.00  0.00    -0.361 OA
HETATM  117  C   UNK N   1      11.285  -8.197   0.000  0.00  0.00     0.037 A 
HETATM  118  C   UNK N   1      10.577  -7.772   0.000  0.00  0.00     0.012 A 
HETATM  119  C   UNK N   1      11.341  -4.898   0.000  0.00  0.00    -0.026 A 
HETATM  120  C   UNK N   1      12.063  -4.497   0.000  0.00  0.00     0.012 A 
HETATM  121  C   UNK N   1      12.770  -4.922   0.000  0.00  0.00     0.037 A 
HETATM  122  C   UNK N   1      12.756  -5.747   0.000  0.00  0.00     0.065 A 
HETATM  123  O   UNK N   1      13.523  -6.106   0.000  0.00  0.00    -0.361 OA
HETATM  124  C   UNK N   1      12.034  -6.147   0.000  0.00  0.00     0.037 A 
HETATM  125  C   UNK N   1      11.327  -5.723   0.000  0.00  0.00     0.012 A 
HETATM  126  C   UNK N   1      12.860  -3.152   0.000  0.00  0.00     0.146 A 
HETATM  127  C   UNK N   1      13.033  -4.128   0.000  0.00  0.00     0.042 A 
HETATM  128  O   UNK N   1      13.614  -2.865   0.000  0.00  0.00    -0.393 OA
HETATM  129  C   UNK N   1      10.011   0.901   0.000  0.00  0.00    -0.026 A 
HETATM  130  C   UNK N   1       9.290   0.501   0.000  0.00  0.00     0.012 A 
HETATM  131  C   UNK N   1       8.583   0.925   0.000  0.00  0.00     0.037 A 
HETATM  132  C   UNK N   1       8.597   1.750   0.000  0.00  0.00     0.072 A 
HETATM  133  O   UNK N   1       7.867   2.160   0.000  0.00  0.00    -0.318 OA
HETATM  134  C   UNK N   1       7.904   3.000   0.000  0.00  0.00     0.298 A 
HETATM  135  O   UNK N   1       8.646   3.360   0.000  0.00  0.00    -0.348 OA
HETATM  136  C   UNK N   1       8.706   4.182   0.000  0.00  0.00     0.179 A 
HETATM  137  C   UNK N   1       9.443   4.611   0.000  0.00  0.00     0.198 A 
HETATM  138  C   UNK N   1       8.023   4.646   0.000  0.00  0.00     0.180 A 
HETATM  139  O   UNK N   1       8.123   5.487   0.000  0.00  0.00    -0.390 OA
HETATM  140  C   UNK N   1       7.281   4.286   0.000  0.00  0.00     0.183 A 
HETATM  141  O   UNK N   1       6.941   5.061   0.000  0.00  0.00    -0.390 OA
HETATM  142  C   UNK N   1       7.221   3.463   0.000  0.00  0.00     0.211 A 
HETATM  143  O   UNK N   1       6.460   3.112   0.000  0.00  0.00    -0.346 OA
HETATM  144  C   UNK N   1       5.784   3.611   0.000  0.00  0.00     0.292 A 
HETATM  145  O   UNK N   1       5.874   4.431   0.000  0.00  0.00    -0.348 OA
HETATM  146  C   UNK N   1       5.209   4.919   0.000  0.00  0.00     0.179 A 
HETATM  147  C   UNK N   1       5.205   5.770   0.000  0.00  0.00     0.198 A 
HETATM  148  C   UNK N   1       4.454   4.587   0.000  0.00  0.00     0.180 A 
HETATM  149  O   UNK N   1       3.716   5.000   0.000  0.00  0.00    -0.390 OA
HETATM  150  C   UNK N   1       4.364   3.766   0.000  0.00  0.00     0.183 A 
HETATM  151  O   UNK N   1       3.594   3.417   0.000  0.00  0.00    -0.390 OA
HETATM  152  C   UNK N   1       5.029   3.279   0.000  0.00  0.00     0.204 A 
HETATM  153  O   UNK N   1       4.937   2.439   0.000  0.00  0.00    -0.388 OA
HETATM  154  C   UNK N   1       9.318   2.151   0.000  0.00  0.00     0.037 A 
HETATM  155  C   UNK N   1      10.025   1.726   0.000  0.00  0.00     0.012 A 
HETATM  156  C   UNK N   1       9.224  -1.065   0.000  0.00  0.00     0.146 A 
HETATM  157  C   UNK N   1       8.395  -0.811   0.000  0.00  0.00     0.042 A 
HETATM  158  O   UNK N   1       8.949  -0.278   0.000  0.00  0.00    -0.393 OA
HETATM  159  C   UNK N   1       7.805  -2.774   0.000  0.00  0.00    -0.026 A 
HETATM  160  C   UNK N   1       7.083  -3.174   0.000  0.00  0.00     0.012 A 
HETATM  161  C   UNK N   1       6.376  -2.750   0.000  0.00  0.00     0.037 A 
HETATM  162  C   UNK N   1       6.390  -1.925   0.000  0.00  0.00     0.065 A 
HETATM  163  O   UNK N   1       5.768  -1.359   0.000  0.00  0.00    -0.361 OA
HETATM  164  C   UNK N   1       7.112  -1.525   0.000  0.00  0.00     0.037 A 
HETATM  165  C   UNK N   1       7.819  -1.949   0.000  0.00  0.00     0.012 A 
HETATM  166  C   UNK N   1       3.401 -10.110   0.000  0.00  0.00    -0.024 A 
HETATM  167  C   UNK N   1       2.671 -10.494   0.000  0.00  0.00     0.036 A 
HETATM  168  C   UNK N   1       1.973 -10.054   0.000  0.00  0.00     0.067 A 
HETATM  169 Cl   UNK N   1       1.229 -10.450   0.000  0.00  0.00    -0.081 Cl
HETATM  170  C   UNK N   1       2.005  -9.230   0.000  0.00  0.00     0.087 A 
HETATM  171  O   UNK N   1       1.431  -8.610   0.000  0.00  0.00    -0.359 OA
HETATM  172  C   UNK N   1       2.735  -8.845   0.000  0.00  0.00     0.039 A 
HETATM  173  C   UNK N   1       3.433  -9.285   0.000  0.00  0.00     0.012 A 
HETATM  174  C   UNK N   1       3.403 -13.508   0.000  0.00  0.00     0.247 A 
HETATM  175  N   UNK N   1       2.583 -13.687   0.000  0.00  0.00    -0.368 N 
HETATM  176  O   UNK N   1       3.555 -14.339   0.000  0.00  0.00    -0.271 OA
HETATM  177  H   UNK N   1       7.387  -9.579   0.000  0.00  0.00     0.163 HD
HETATM  178  H   UNK N   1       3.771 -11.793   0.000  0.00  0.00     0.159 HD
HETATM  179  H   UNK N   1       5.468 -11.965   0.000  0.00  0.00     0.159 HD
HETATM  180  H   UNK N   1       4.264 -11.325   0.000  0.00  0.00     0.163 HD
HETATM  181  H   UNK N   1       5.664 -10.656   0.000  0.00  0.00     0.163 HD
HETATM  182  H   UNK N   1       4.726  -7.592   0.000  0.00  0.00     0.163 HD
HETATM  183  H   UNK N   1       7.871  -6.981   0.000  0.00  0.00     0.163 HD
HETATM  184  H   UNK N   1       6.932  -3.917   0.000  0.00  0.00     0.163 HD
HETATM  185  H   UNK N   1      10.077  -3.305   0.000  0.00  0.00     0.163 HD
HETATM  186  H   UNK N   1       9.139  -0.242   0.000  0.00  0.00     0.163 HD
HETATM  187  H   UNK N   1      11.457   1.861   0.000  0.00  0.00     0.163 HD
HETATM  188  H   UNK N   1      14.437   0.905   0.000  0.00  0.00     0.163 HD
HETATM  189  H   UNK N   1      13.670  -2.129   0.000  0.00  0.00     0.163 HD
HETATM  190  H   UNK N   1      10.525  -2.741   0.000  0.00  0.00     0.163 HD
HETATM  191  H   UNK N   1      11.464  -5.805   0.000  0.00  0.00     0.163 HD
HETATM  192  H   UNK N   1       8.319  -6.416   0.000  0.00  0.00     0.163 HD
HETATM  193  H   UNK N   1       9.257  -9.480   0.000  0.00  0.00     0.163 HD
HETATM  194  H   UNK N   1       6.112 -10.092   0.000  0.00  0.00     0.163 HD
HETATM  195  H   UNK N   1       7.050 -13.155   0.000  0.00  0.00     0.163 HD
HETATM  196  H   UNK N   1       8.742 -14.585   0.000  0.00  0.00     0.217 HD
HETATM  197  H   UNK N   1       8.718 -10.219   0.000  0.00  0.00     0.210 HD
HETATM  198  H   UNK N   1      12.345  -9.302   0.000  0.00  0.00     0.217 HD
HETATM  199  H   UNK N   1      13.603  -7.039   0.000  0.00  0.00     0.217 HD
HETATM  200  H   UNK N   1      14.366  -3.477   0.000  0.00  0.00     0.210 HD
HETATM  201  H   UNK N   1       9.014   5.870   0.000  0.00  0.00     0.210 HD
HETATM  202  H   UNK N   1       7.515   5.842   0.000  0.00  0.00     0.210 HD
HETATM  203  H   UNK N   1       3.705   5.970   0.000  0.00  0.00     0.210 HD
HETATM  204  H   UNK N   1       2.805   3.981   0.000  0.00  0.00     0.210 HD
HETATM  205  H   UNK N   1       4.049   2.049   0.000  0.00  0.00     0.210 HD
HETATM  206  H   UNK N   1       9.581   0.457   0.000  0.00  0.00     0.210 HD
HETATM  207  H   UNK N   1       5.967  -0.444   0.000  0.00  0.00     0.217 HD
HETATM  208  H   UNK N   1       1.708  -7.715   0.000  0.00  0.00     0.217 HD
HETATM  209  H   UNK N   1       1.920 -12.959   0.000  0.00  0.00     0.159 HD
HETATM  210  H   UNK N   1       2.283 -14.625   0.000  0.00  0.00     0.159 HD
ENDROOT
BRANCH  61 211
HETATM  211  N   UNK N   1      14.533   3.643   0.000  0.00  0.00    -0.430 N 
HETATM  212  H   UNK N   1      15.481   3.267   0.000  0.00  0.00     0.149 HD
HETATM  213  H   UNK N   1      14.385   4.652   0.000  0.00  0.00     0.149 HD
ENDBRANCH  61 211
BRANCH 137 214
HETATM  214  O   UNK N   1       9.937   5.284   0.000  0.00  0.00    -0.398 OA
HETATM  215  H   UNK N   1      10.901   5.178   0.000  0.00  0.00     0.209 HD
ENDBRANCH 137 214
BRANCH 147 216
HETATM  216  O   UNK N   1       4.756   6.473   0.000  0.00  0.00    -0.398 OA
HETATM  217  H   UNK N   1       5.203   7.333   0.000  0.00  0.00     0.209 HD
ENDBRANCH 147 216
BRANCH  94 218
HETATM  218  C   UNK N   1      10.090 -11.212   0.000  0.00  0.00     0.111 C 
BRANCH 218 219
HETATM  219  N   UNK N   1      10.687 -11.792   0.000  0.00  0.00    -0.430 N 
HETATM  220  H   UNK N   1      10.437 -12.781   0.000  0.00  0.00     0.149 HD
HETATM  221  H   UNK N   1      11.668 -11.514   0.000  0.00  0.00     0.149 HD
ENDBRANCH 218 219
ENDBRANCH  94 218
TORSDOF 13
