REMARK  6 active torsions:
REMARK  status: ('A' for Active; 'I' for Inactive)
REMARK    1  A    between atoms: O_4  and  C_20 
REMARK    2  A    between atoms: N_6  and  C_14 
REMARK       I    between atoms: N_7  and  C_17 
REMARK    3  A    between atoms: N_7  and  C_21 
REMARK    4  A    between atoms: C_12  and  C_17 
REMARK    5  A    between atoms: C_14  and  C_20 
REMARK    6  A    between atoms: C_22  and  C_23 
ROOT
HETATM    1  O   UNK N   1       5.604  -1.286   1.357  0.00  0.00    -0.266 OA
HETATM    2  N   UNK N   1       5.839   0.331  -0.177  0.00  0.00    -0.302 N 
HETATM    3  C   UNK N   1       5.073  -0.478   0.608  0.00  0.00     0.274 C 
HETATM    4  H   UNK N   1       5.427   1.098  -0.639  0.00  0.00     0.171 HD
ENDROOT
BRANCH   3   5
HETATM    5  C   UNK N   1       3.602  -0.483   0.509  0.00  0.00     0.105 A 
HETATM    6  N   UNK N   1       2.832   0.335  -0.250  0.00  0.00    -0.332 N 
HETATM    7  C   UNK N   1       1.569  -0.116  -0.124  0.00  0.00     0.045 A 
HETATM    8  C   UNK N   1       1.536  -1.194   0.720  0.00  0.00    -0.007 A 
HETATM    9  C   UNK N   1       0.416   0.357  -0.748  0.00  0.00     0.030 A 
HETATM   10  C   UNK N   1       2.817  -1.445   1.147  0.00  0.00     0.049 A 
HETATM   11  C   UNK N   1       0.358  -1.875   1.006  0.00  0.00     0.014 A 
HETATM   12  C   UNK N   1      -0.822  -1.424   0.392  0.00  0.00     0.001 A 
HETATM   13  C   UNK N   1      -0.794  -0.313  -0.483  0.00  0.00     0.002 A 
BRANCH   6  14
HETATM   14  C   UNK N   1       3.279   1.457  -1.073  0.00  0.00     0.239 C 
BRANCH  14  15
HETATM   15  C   UNK N   1       2.972   2.760  -0.398  0.00  0.00     0.158 C 
HETATM   16  O   UNK N   1       1.818   3.079  -0.165  0.00  0.00    -0.649 OA
BRANCH  15  17
HETATM   17  O   UNK N   1       3.977   3.583  -0.048  0.00  0.00    -0.775 OA
HETATM   18  H   UNK N   1       4.824   3.263   0.196  0.00  0.00     0.167 HD
ENDBRANCH  15  17
ENDBRANCH  14  15
ENDBRANCH   6  14
ENDBRANCH   3   5
BRANCH   2  19
HETATM   19  C   UNK N   1       7.228   0.076  -0.335  0.00  0.00     0.151 A 
HETATM   20  S   UNK N   1       8.383   1.122  -0.862  0.00  0.00    -0.063 SA
HETATM   21  C   UNK N   1       9.679   0.070  -0.806  0.00  0.00     0.083 A 
HETATM   22  C   UNK N   1       9.131  -1.164  -0.377  0.00  0.00     0.052 A 
HETATM   23  N   UNK N   1       7.782  -1.137  -0.126  0.00  0.00    -0.335 N 
ATOM     24  HN  UNK N   1       7.253  -1.950   0.188  1.00  0.00     0.168 HD
BRANCH  22  25
HETATM   25  C   UNK N   1       9.931  -2.403  -0.182  0.00  0.00     0.013 A 
HETATM   26  C   UNK N   1       9.339  -3.677   0.067  0.00  0.00     0.046 A 
HETATM   27 Cl   UNK N   1       7.600  -3.954   0.114  0.00  0.00    -0.083 Cl
HETATM   28  C   UNK N   1      10.156  -4.795   0.261  0.00  0.00     0.025 A 
HETATM   29  C   UNK N   1      11.544  -4.678   0.220  0.00  0.00     0.002 A 
HETATM   30  C   UNK N   1      12.131  -3.439  -0.031  0.00  0.00     0.001 A 
HETATM   31  C   UNK N   1      11.331  -2.312  -0.234  0.00  0.00     0.015 A 
ENDBRANCH  22  25
ENDBRANCH   2  19
TORSDOF 6
