MODEL 1
REMARK VINA RESULT:      -7.5      0.000      0.000
REMARK  6 active torsions:
REMARK  status: ('A' for Active; 'I' for Inactive)
REMARK    1  A    between atoms: N_4  and  C_18 
REMARK    2  A    between atoms: C_9  and  C_10 
REMARK    3  A    between atoms: C_10  and  C_14 
REMARK    4  A    between atoms: C_14  and  C_15 
REMARK    5  A    between atoms: C_15  and  C_16 
REMARK    6  A    between atoms: C_16  and  C_17 
ROOT
HETATM    1  O   UNK N   1      28.855  18.534   8.392  0.00  0.00    -0.267 OA
HETATM    2  N   UNK N   1      29.527  17.647   6.399  0.00  0.00    -0.290 N 
HETATM    3  C   UNK N   1      29.234  17.854   4.979  0.00  0.00     0.135 A 
HETATM    4  C   UNK N   1      28.197  18.954   5.051  0.00  0.00    -0.019 A 
HETATM    5  C   UNK N   1      27.957  19.303   6.356  0.00  0.00     0.041 A 
HETATM    6  C   UNK N   1      28.790  18.480   7.172  0.00  0.00     0.260 A 
HETATM    7  C   UNK N   1      27.535  19.602   4.007  0.00  0.00     0.010 A 
HETATM    8  C   UNK N   1      27.059  20.309   6.706  0.00  0.00     0.017 A 
HETATM    9  C   UNK N   1      26.618  20.619   4.326  0.00  0.00     0.001 A 
HETATM   10  C   UNK N   1      26.382  20.973   5.671  0.00  0.00     0.001 A 
ENDROOT
BRANCH   2  11
HETATM   11  C   UNK N   1      30.526  16.752   6.898  0.00  0.00     0.112 A 
HETATM   12  N   UNK N   1      31.427  17.188   7.823  0.00  0.00    -0.328 N 
HETATM   13  C   UNK N   1      32.439  16.406   8.269  0.00  0.00     0.118 A 
ATOM     14  HN  UNK N   1      31.336  18.136   8.190  1.00  0.00     0.169 HD
HETATM   15  N   UNK N   1      33.329  16.897   9.171  0.00  0.00    -0.332 N 
HETATM   16  C   UNK N   1      32.582  15.095   7.780  0.00  0.00     0.008 A 
HETATM   17  C   UNK N   1      34.371  16.148   9.620  0.00  0.00     0.104 A 
ATOM     18  HN  UNK N   1      33.212  17.849   9.519  1.00  0.00     0.168 HD
HETATM   19 Cl   UNK N   1      35.498  16.833  10.770  0.00  0.00    -0.065 Cl
HETATM   20  C   UNK N   1      34.547  14.839   9.157  0.00  0.00     0.043 A 
HETATM   21  C   UNK N   1      33.643  14.309   8.231  0.00  0.00     0.018 A 
HETATM   22  C   UNK N   1      31.668  14.612   6.844  0.00  0.00     0.019 A 
HETATM   23  C   UNK N   1      30.637  15.444   6.393  0.00  0.00     0.050 A 
ENDBRANCH   2  11
BRANCH   3  24
HETATM   24  C   UNK N   1      28.653  16.597   4.342  0.00  0.00     0.109 C 
BRANCH  24  25
HETATM   25  C   UNK N   1      29.437  16.233   3.123  0.00  0.00     0.129 C 
HETATM   26  O   UNK N   1      28.946  15.492   2.285  0.00  0.00    -0.298 OA
BRANCH  25  27
HETATM   27  C   UNK N   1      30.832  16.776   2.963  0.00  0.00     0.079 C 
BRANCH  27  28
HETATM   28  C   UNK N   1      31.919  15.712   3.053  0.00  0.00     0.011 C 
BRANCH  28  29
HETATM   29  C   UNK N   1      33.241  16.320   3.501  0.00  0.00    -0.022 C 
HETATM   30  C   UNK N   1      32.967  17.538   4.357  0.00  0.00     0.009 C 
HETATM   31  C   UNK N   1      34.051  15.318   4.306  0.00  0.00     0.009 C 
ENDBRANCH  28  29
ENDBRANCH  27  28
ENDBRANCH  25  27
ENDBRANCH  24  25
ENDBRANCH   3  24
TORSDOF 6
ENDMDL
MODEL 2
REMARK VINA RESULT:      -7.4     11.454     14.515
REMARK  6 active torsions:
REMARK  status: ('A' for Active; 'I' for Inactive)
REMARK    1  A    between atoms: N_4  and  C_18 
REMARK    2  A    between atoms: C_9  and  C_10 
REMARK    3  A    between atoms: C_10  and  C_14 
REMARK    4  A    between atoms: C_14  and  C_15 
REMARK    5  A    between atoms: C_15  and  C_16 
REMARK    6  A    between atoms: C_16  and  C_17 
ROOT
HETATM    1  O   UNK N   1      26.971  23.118  -7.160  0.00  0.00    -0.267 OA
HETATM    2  N   UNK N   1      28.441  23.457  -5.447  0.00  0.00    -0.290 N 
HETATM    3  C   UNK N   1      29.647  22.811  -4.924  0.00  0.00     0.135 A 
HETATM    4  C   UNK N   1      29.786  21.639  -5.873  0.00  0.00    -0.019 A 
HETATM    5  C   UNK N   1      28.776  21.651  -6.802  0.00  0.00     0.041 A 
HETATM    6  C   UNK N   1      27.955  22.783  -6.517  0.00  0.00     0.260 A 
HETATM    7  C   UNK N   1      30.769  20.649  -5.901  0.00  0.00     0.010 A 
HETATM    8  C   UNK N   1      28.679  20.694  -7.809  0.00  0.00     0.017 A 
HETATM    9  C   UNK N   1      30.698  19.665  -6.904  0.00  0.00     0.001 A 
HETATM   10  C   UNK N   1      29.657  19.688  -7.855  0.00  0.00     0.001 A 
ENDROOT
BRANCH   2  11
HETATM   11  C   UNK N   1      27.903  24.687  -4.953  0.00  0.00     0.112 A 
HETATM   12  N   UNK N   1      28.298  25.870  -5.503  0.00  0.00    -0.328 N 
HETATM   13  C   UNK N   1      27.879  27.065  -5.021  0.00  0.00     0.118 A 
ATOM     14  HN  UNK N   1      28.932  25.854  -6.303  1.00  0.00     0.169 HD
HETATM   15  N   UNK N   1      28.325  28.218  -5.587  0.00  0.00    -0.332 N 
HETATM   16  C   UNK N   1      27.003  27.112  -3.922  0.00  0.00     0.008 A 
HETATM   17  C   UNK N   1      27.944  29.434  -5.112  0.00  0.00     0.104 A 
ATOM     18  HN  UNK N   1      28.958  28.169  -6.385  1.00  0.00     0.168 HD
HETATM   19 Cl   UNK N   1      28.560  30.889  -5.866  0.00  0.00    -0.065 Cl
HETATM   20  C   UNK N   1      27.074  29.521  -4.020  0.00  0.00     0.043 A 
HETATM   21  C   UNK N   1      26.598  28.350  -3.423  0.00  0.00     0.018 A 
HETATM   22  C   UNK N   1      26.566  25.919  -3.346  0.00  0.00     0.019 A 
HETATM   23  C   UNK N   1      27.021  24.698  -3.857  0.00  0.00     0.050 A 
ENDBRANCH   2  11
BRANCH   3  24
HETATM   24  C   UNK N   1      29.444  22.330  -3.491  0.00  0.00     0.109 C 
BRANCH  24  25
HETATM   25  C   UNK N   1      30.654  22.642  -2.673  0.00  0.00     0.129 C 
HETATM   26  O   UNK N   1      30.524  23.068  -1.535  0.00  0.00    -0.298 OA
BRANCH  25  27
HETATM   27  C   UNK N   1      32.017  22.442  -3.279  0.00  0.00     0.079 C 
BRANCH  27  28
HETATM   28  C   UNK N   1      32.765  21.234  -2.726  0.00  0.00     0.011 C 
BRANCH  28  29
HETATM   29  C   UNK N   1      34.006  20.935  -3.555  0.00  0.00    -0.022 C 
HETATM   30  C   UNK N   1      33.949  19.503  -4.041  0.00  0.00     0.009 C 
HETATM   31  C   UNK N   1      34.094  21.864  -4.753  0.00  0.00     0.009 C 
ENDBRANCH  28  29
ENDBRANCH  27  28
ENDBRANCH  25  27
ENDBRANCH  24  25
ENDBRANCH   3  24
TORSDOF 6
ENDMDL
MODEL 3
REMARK VINA RESULT:      -7.3      3.814      7.206
REMARK  6 active torsions:
REMARK  status: ('A' for Active; 'I' for Inactive)
REMARK    1  A    between atoms: N_4  and  C_18 
REMARK    2  A    between atoms: C_9  and  C_10 
REMARK    3  A    between atoms: C_10  and  C_14 
REMARK    4  A    between atoms: C_14  and  C_15 
REMARK    5  A    between atoms: C_15  and  C_16 
REMARK    6  A    between atoms: C_16  and  C_17 
ROOT
HETATM    1  O   UNK N   1      27.776  19.723   7.720  0.00  0.00    -0.267 OA
HETATM    2  N   UNK N   1      27.881  18.426   5.845  0.00  0.00    -0.290 N 
HETATM    3  C   UNK N   1      28.664  17.281   5.375  0.00  0.00     0.135 A 
HETATM    4  C   UNK N   1      29.590  17.057   6.551  0.00  0.00    -0.019 A 
HETATM    5  C   UNK N   1      29.338  17.971   7.543  0.00  0.00     0.041 A 
HETATM    6  C   UNK N   1      28.278  18.809   7.082  0.00  0.00     0.260 A 
HETATM    7  C   UNK N   1      30.575  16.081   6.715  0.00  0.00     0.010 A 
HETATM    8  C   UNK N   1      30.035  17.975   8.748  0.00  0.00     0.017 A 
HETATM    9  C   UNK N   1      31.301  16.060   7.920  0.00  0.00     0.001 A 
HETATM   10  C   UNK N   1      31.031  17.003   8.934  0.00  0.00     0.001 A 
ENDROOT
BRANCH   2  11
HETATM   11  C   UNK N   1      26.782  19.002   5.133  0.00  0.00     0.112 A 
HETATM   12  N   UNK N   1      25.534  18.472   5.267  0.00  0.00    -0.328 N 
HETATM   13  C   UNK N   1      24.475  18.930   4.556  0.00  0.00     0.118 A 
ATOM     14  HN  UNK N   1      25.393  17.703   5.924  1.00  0.00     0.169 HD
HETATM   15  N   UNK N   1      23.256  18.348   4.705  0.00  0.00    -0.332 N 
HETATM   16  C   UNK N   1      24.644  19.990   3.648  0.00  0.00     0.008 A 
HETATM   17  C   UNK N   1      22.178  18.767   3.989  0.00  0.00     0.104 A 
ATOM     18  HN  UNK N   1      23.147  17.581   5.369  1.00  0.00     0.168 HD
HETATM   19 Cl   UNK N   1      20.633  17.974   4.206  0.00  0.00    -0.065 Cl
HETATM   20  C   UNK N   1      22.307  19.819   3.076  0.00  0.00     0.043 A 
HETATM   21  C   UNK N   1      23.550  20.436   2.907  0.00  0.00     0.018 A 
HETATM   22  C   UNK N   1      25.906  20.566   3.499  0.00  0.00     0.019 A 
HETATM   23  C   UNK N   1      26.984  20.068   4.238  0.00  0.00     0.050 A 
ENDBRANCH   2  11
BRANCH   3  24
HETATM   24  C   UNK N   1      29.454  17.624   4.117  0.00  0.00     0.109 C 
BRANCH  24  25
HETATM   25  C   UNK N   1      29.650  16.399   3.286  0.00  0.00     0.129 C 
HETATM   26  O   UNK N   1      28.678  15.781   2.878  0.00  0.00    -0.298 OA
BRANCH  25  27
HETATM   27  C   UNK N   1      31.051  15.937   2.986  0.00  0.00     0.079 C 
BRANCH  27  28
HETATM   28  C   UNK N   1      32.093  17.046   3.059  0.00  0.00     0.011 C 
BRANCH  28  29
HETATM   29  C   UNK N   1      33.299  16.609   3.878  0.00  0.00    -0.022 C 
HETATM   30  C   UNK N   1      33.398  17.469   5.120  0.00  0.00     0.009 C 
HETATM   31  C   UNK N   1      33.173  15.153   4.290  0.00  0.00     0.009 C 
ENDBRANCH  28  29
ENDBRANCH  27  28
ENDBRANCH  25  27
ENDBRANCH  24  25
ENDBRANCH   3  24
TORSDOF 6
ENDMDL
MODEL 4
REMARK VINA RESULT:      -7.3     11.608     14.871
REMARK  6 active torsions:
REMARK  status: ('A' for Active; 'I' for Inactive)
REMARK    1  A    between atoms: N_4  and  C_18 
REMARK    2  A    between atoms: C_9  and  C_10 
REMARK    3  A    between atoms: C_10  and  C_14 
REMARK    4  A    between atoms: C_14  and  C_15 
REMARK    5  A    between atoms: C_15  and  C_16 
REMARK    6  A    between atoms: C_16  and  C_17 
ROOT
HETATM    1  O   UNK N   1      30.886  24.132  -2.523  0.00  0.00    -0.267 OA
HETATM    2  N   UNK N   1      29.631  23.333  -4.254  0.00  0.00    -0.290 N 
HETATM    3  C   UNK N   1      29.653  22.175  -5.150  0.00  0.00     0.135 A 
HETATM    4  C   UNK N   1      30.895  21.455  -4.668  0.00  0.00    -0.019 A 
HETATM    5  C   UNK N   1      31.476  22.142  -3.632  0.00  0.00     0.041 A 
HETATM    6  C   UNK N   1      30.678  23.300  -3.394  0.00  0.00     0.260 A 
HETATM    7  C   UNK N   1      31.443  20.256  -5.126  0.00  0.00     0.010 A 
HETATM    8  C   UNK N   1      32.623  21.686  -2.987  0.00  0.00     0.017 A 
HETATM    9  C   UNK N   1      32.605  19.770  -4.499  0.00  0.00     0.001 A 
HETATM   10  C   UNK N   1      33.192  20.482  -3.432  0.00  0.00     0.001 A 
ENDROOT
BRANCH   2  11
HETATM   11  C   UNK N   1      28.591  24.316  -4.226  0.00  0.00     0.112 A 
HETATM   12  N   UNK N   1      28.868  25.607  -4.563  0.00  0.00    -0.328 N 
HETATM   13  C   UNK N   1      27.940  26.590  -4.479  0.00  0.00     0.118 A 
ATOM     14  HN  UNK N   1      29.807  25.840  -4.889  1.00  0.00     0.169 HD
HETATM   15  N   UNK N   1      28.275  27.867  -4.800  0.00  0.00    -0.332 N 
HETATM   16  C   UNK N   1      26.639  26.291  -4.036  0.00  0.00     0.008 A 
HETATM   17  C   UNK N   1      27.374  28.882  -4.702  0.00  0.00     0.104 A 
ATOM     18  HN  UNK N   1      29.222  28.069  -5.122  1.00  0.00     0.168 HD
HETATM   19 Cl   UNK N   1      27.860  30.513  -5.112  0.00  0.00    -0.065 Cl
HETATM   20  C   UNK N   1      26.070  28.625  -4.265  0.00  0.00     0.043 A 
HETATM   21  C   UNK N   1      25.701  27.318  -3.933  0.00  0.00     0.018 A 
HETATM   22  C   UNK N   1      26.318  24.977  -3.698  0.00  0.00     0.019 A 
HETATM   23  C   UNK N   1      27.297  23.982  -3.786  0.00  0.00     0.050 A 
ENDBRANCH   2  11
BRANCH   3  24
HETATM   24  C   UNK N   1      29.800  22.601  -6.606  0.00  0.00     0.109 C 
BRANCH  24  25
HETATM   25  C   UNK N   1      28.722  21.978  -7.432  0.00  0.00     0.129 C 
HETATM   26  O   UNK N   1      28.966  20.982  -8.097  0.00  0.00    -0.298 OA
BRANCH  25  27
HETATM   27  C   UNK N   1      27.354  22.606  -7.442  0.00  0.00     0.079 C 
BRANCH  27  28
HETATM   28  C   UNK N   1      27.376  24.126  -7.545  0.00  0.00     0.011 C 
BRANCH  28  29
HETATM   29  C   UNK N   1      25.964  24.690  -7.597  0.00  0.00    -0.022 C 
HETATM   30  C   UNK N   1      26.031  26.200  -7.676  0.00  0.00     0.009 C 
HETATM   31  C   UNK N   1      25.215  24.161  -8.808  0.00  0.00     0.009 C 
ENDBRANCH  28  29
ENDBRANCH  27  28
ENDBRANCH  25  27
ENDBRANCH  24  25
ENDBRANCH   3  24
TORSDOF 6
ENDMDL
MODEL 5
REMARK VINA RESULT:      -7.2      2.101      3.613
REMARK  6 active torsions:
REMARK  status: ('A' for Active; 'I' for Inactive)
REMARK    1  A    between atoms: N_4  and  C_18 
REMARK    2  A    between atoms: C_9  and  C_10 
REMARK    3  A    between atoms: C_10  and  C_14 
REMARK    4  A    between atoms: C_14  and  C_15 
REMARK    5  A    between atoms: C_15  and  C_16 
REMARK    6  A    between atoms: C_16  and  C_17 
ROOT
HETATM    1  O   UNK N   1      30.051  17.116   9.371  0.00  0.00    -0.267 OA
HETATM    2  N   UNK N   1      31.571  16.916   7.680  0.00  0.00    -0.290 N 
HETATM    3  C   UNK N   1      31.573  17.036   6.220  0.00  0.00     0.135 A 
HETATM    4  C   UNK N   1      30.119  17.360   5.951  0.00  0.00    -0.019 A 
HETATM    5  C   UNK N   1      29.412  17.411   7.126  0.00  0.00     0.041 A 
HETATM    6  C   UNK N   1      30.330  17.132   8.182  0.00  0.00     0.260 A 
HETATM    7  C   UNK N   1      29.490  17.609   4.729  0.00  0.00     0.010 A 
HETATM    8  C   UNK N   1      28.053  17.713   7.166  0.00  0.00     0.017 A 
HETATM    9  C   UNK N   1      28.117  17.913   4.734  0.00  0.00     0.001 A 
HETATM   10  C   UNK N   1      27.401  17.966   5.948  0.00  0.00     0.001 A 
ENDROOT
BRANCH   2  11
HETATM   11  C   UNK N   1      32.738  16.695   8.476  0.00  0.00     0.112 A 
HETATM   12  N   UNK N   1      32.809  15.603   9.289  0.00  0.00    -0.328 N 
HETATM   13  C   UNK N   1      33.858  15.389  10.120  0.00  0.00     0.118 A 
ATOM     14  HN  UNK N   1      32.046  14.926   9.271  1.00  0.00     0.169 HD
HETATM   15  N   UNK N   1      33.868  14.299  10.932  0.00  0.00    -0.332 N 
HETATM   16  C   UNK N   1      34.922  16.307  10.158  0.00  0.00     0.008 A 
HETATM   17  C   UNK N   1      34.892  14.069  11.795  0.00  0.00     0.104 A 
ATOM     18  HN  UNK N   1      33.090  13.641  10.891  1.00  0.00     0.168 HD
HETATM   19 Cl   UNK N   1      34.849  12.659  12.832  0.00  0.00    -0.065 Cl
HETATM   20  C   UNK N   1      35.969  14.959  11.863  0.00  0.00     0.043 A 
HETATM   21  C   UNK N   1      35.984  16.085  11.035  0.00  0.00     0.018 A 
HETATM   22  C   UNK N   1      34.889  17.427   9.327  0.00  0.00     0.019 A 
HETATM   23  C   UNK N   1      33.790  17.629   8.485  0.00  0.00     0.050 A 
ENDBRANCH   2  11
BRANCH   3  24
HETATM   24  C   UNK N   1      31.972  15.724   5.554  0.00  0.00     0.109 C 
BRANCH  24  25
HETATM   25  C   UNK N   1      33.162  15.938   4.677  0.00  0.00     0.129 C 
HETATM   26  O   UNK N   1      33.166  16.860   3.875  0.00  0.00    -0.298 OA
BRANCH  25  27
HETATM   27  C   UNK N   1      34.329  14.995   4.788  0.00  0.00     0.079 C 
BRANCH  27  28
HETATM   28  C   UNK N   1      35.135  15.162   6.070  0.00  0.00     0.011 C 
BRANCH  28  29
HETATM   29  C   UNK N   1      35.479  13.810   6.679  0.00  0.00    -0.022 C 
HETATM   30  C   UNK N   1      36.446  14.009   7.826  0.00  0.00     0.009 C 
HETATM   31  C   UNK N   1      34.230  13.116   7.194  0.00  0.00     0.009 C 
ENDBRANCH  28  29
ENDBRANCH  27  28
ENDBRANCH  25  27
ENDBRANCH  24  25
ENDBRANCH   3  24
TORSDOF 6
ENDMDL
MODEL 6
REMARK VINA RESULT:      -7.2      5.038      7.976
REMARK  6 active torsions:
REMARK  status: ('A' for Active; 'I' for Inactive)
REMARK    1  A    between atoms: N_4  and  C_18 
REMARK    2  A    between atoms: C_9  and  C_10 
REMARK    3  A    between atoms: C_10  and  C_14 
REMARK    4  A    between atoms: C_14  and  C_15 
REMARK    5  A    between atoms: C_15  and  C_16 
REMARK    6  A    between atoms: C_16  and  C_17 
ROOT
HETATM    1  O   UNK N   1      35.496  16.785  10.991  0.00  0.00    -0.267 OA
HETATM    2  N   UNK N   1      35.110  14.738  10.058  0.00  0.00    -0.290 N 
HETATM    3  C   UNK N   1      34.571  14.216   8.800  0.00  0.00     0.135 A 
HETATM    4  C   UNK N   1      34.224  15.500   8.076  0.00  0.00    -0.019 A 
HETATM    5  C   UNK N   1      34.538  16.588   8.850  0.00  0.00     0.041 A 
HETATM    6  C   UNK N   1      35.083  16.093  10.072  0.00  0.00     0.260 A 
HETATM    7  C   UNK N   1      33.680  15.665   6.801  0.00  0.00     0.010 A 
HETATM    8  C   UNK N   1      34.341  17.896   8.413  0.00  0.00     0.017 A 
HETATM    9  C   UNK N   1      33.463  16.973   6.331  0.00  0.00     0.001 A 
HETATM   10  C   UNK N   1      33.794  18.085   7.133  0.00  0.00     0.001 A 
ENDROOT
BRANCH   2  11
HETATM   11  C   UNK N   1      35.676  13.929  11.094  0.00  0.00     0.112 A 
HETATM   12  N   UNK N   1      35.153  13.973  12.351  0.00  0.00    -0.328 N 
HETATM   13  C   UNK N   1      35.699  13.287  13.385  0.00  0.00     0.118 A 
ATOM     14  HN  UNK N   1      34.323  14.542  12.520  1.00  0.00     0.169 HD
HETATM   15  N   UNK N   1      35.156  13.386  14.626  0.00  0.00    -0.332 N 
HETATM   16  C   UNK N   1      36.840  12.493  13.175  0.00  0.00     0.008 A 
HETATM   17  C   UNK N   1      35.695  12.732  15.690  0.00  0.00     0.104 A 
ATOM     18  HN  UNK N   1      34.327  13.964  14.763  1.00  0.00     0.168 HD
HETATM   19 Cl   UNK N   1      34.967  12.905  17.272  0.00  0.00    -0.065 Cl
HETATM   20  C   UNK N   1      36.830  11.932  15.522  0.00  0.00     0.043 A 
HETATM   21  C   UNK N   1      37.405  11.811  14.253  0.00  0.00     0.018 A 
HETATM   22  C   UNK N   1      37.392  12.414  11.896  0.00  0.00     0.019 A 
HETATM   23  C   UNK N   1      36.814  13.139  10.849  0.00  0.00     0.050 A 
ENDBRANCH   2  11
BRANCH   3  24
HETATM   24  C   UNK N   1      33.326  13.369   9.036  0.00  0.00     0.109 C 
BRANCH  24  25
HETATM   25  C   UNK N   1      33.520  12.006   8.457  0.00  0.00     0.129 C 
HETATM   26  O   UNK N   1      33.043  11.738   7.364  0.00  0.00    -0.298 OA
BRANCH  25  27
HETATM   27  C   UNK N   1      34.285  10.979   9.247  0.00  0.00     0.079 C 
BRANCH  27  28
HETATM   28  C   UNK N   1      33.543  10.469  10.476  0.00  0.00     0.011 C 
BRANCH  28  29
HETATM   29  C   UNK N   1      34.515  10.108  11.590  0.00  0.00    -0.022 C 
HETATM   30  C   UNK N   1      33.831  10.290  12.929  0.00  0.00     0.009 C 
HETATM   31  C   UNK N   1      34.977   8.668  11.459  0.00  0.00     0.009 C 
ENDBRANCH  28  29
ENDBRANCH  27  28
ENDBRANCH  25  27
ENDBRANCH  24  25
ENDBRANCH   3  24
TORSDOF 6
ENDMDL
MODEL 7
REMARK VINA RESULT:      -7.1     13.335     17.084
REMARK  6 active torsions:
REMARK  status: ('A' for Active; 'I' for Inactive)
REMARK    1  A    between atoms: N_4  and  C_18 
REMARK    2  A    between atoms: C_9  and  C_10 
REMARK    3  A    between atoms: C_10  and  C_14 
REMARK    4  A    between atoms: C_14  and  C_15 
REMARK    5  A    between atoms: C_15  and  C_16 
REMARK    6  A    between atoms: C_16  and  C_17 
ROOT
HETATM    1  O   UNK N   1      34.658  13.142  20.414  0.00  0.00    -0.267 OA
HETATM    2  N   UNK N   1      34.993  10.946  19.890  0.00  0.00    -0.290 N 
HETATM    3  C   UNK N   1      35.403  10.174  18.714  0.00  0.00     0.135 A 
HETATM    4  C   UNK N   1      35.591  11.275  17.692  0.00  0.00    -0.019 A 
HETATM    5  C   UNK N   1      35.316  12.499  18.248  0.00  0.00     0.041 A 
HETATM    6  C   UNK N   1      34.947  12.271  19.607  0.00  0.00     0.260 A 
HETATM    7  C   UNK N   1      35.999  11.173  16.361  0.00  0.00     0.010 A 
HETATM    8  C   UNK N   1      35.432  13.687  17.530  0.00  0.00     0.017 A 
HETATM    9  C   UNK N   1      36.121  12.353  15.606  0.00  0.00     0.001 A 
HETATM   10  C   UNK N   1      35.840  13.607  16.189  0.00  0.00     0.001 A 
ENDROOT
BRANCH   2  11
HETATM   11  C   UNK N   1      34.765  10.386  21.186  0.00  0.00     0.112 A 
HETATM   12  N   UNK N   1      33.633  10.706  21.873  0.00  0.00    -0.328 N 
HETATM   13  C   UNK N   1      33.405  10.265  23.134  0.00  0.00     0.118 A 
ATOM     14  HN  UNK N   1      32.933  11.297  21.423  1.00  0.00     0.169 HD
HETATM   15  N   UNK N   1      32.273  10.636  23.788  0.00  0.00    -0.332 N 
HETATM   16  C   UNK N   1      34.353   9.446  23.773  0.00  0.00     0.008 A 
HETATM   17  C   UNK N   1      32.026  10.232  25.063  0.00  0.00     0.104 A 
ATOM     18  HN  UNK N   1      31.593  11.228  23.311  1.00  0.00     0.168 HD
HETATM   19 Cl   UNK N   1      30.560  10.750  25.866  0.00  0.00    -0.065 Cl
HETATM   20  C   UNK N   1      32.944   9.416  25.733  0.00  0.00     0.043 A 
HETATM   21  C   UNK N   1      34.115   9.019  25.080  0.00  0.00     0.018 A 
HETATM   22  C   UNK N   1      35.516   9.087  23.092  0.00  0.00     0.019 A 
HETATM   23  C   UNK N   1      35.730   9.563  21.794  0.00  0.00     0.050 A 
ENDBRANCH   2  11
BRANCH   3  24
HETATM   24  C   UNK N   1      34.312   9.204  18.276  0.00  0.00     0.109 C 
BRANCH  24  25
HETATM   25  C   UNK N   1      34.775   7.796  18.467  0.00  0.00     0.129 C 
HETATM   26  O   UNK N   1      35.595   7.318  17.698  0.00  0.00    -0.298 OA
BRANCH  25  27
HETATM   27  C   UNK N   1      34.201   6.986  19.598  0.00  0.00     0.079 C 
BRANCH  27  28
HETATM   28  C   UNK N   1      32.689   6.811  19.524  0.00  0.00     0.011 C 
BRANCH  28  29
HETATM   29  C   UNK N   1      31.986   7.711  20.530  0.00  0.00    -0.022 C 
HETATM   30  C   UNK N   1      30.527   7.846  20.148  0.00  0.00     0.009 C 
HETATM   31  C   UNK N   1      32.081   7.133  21.931  0.00  0.00     0.009 C 
ENDBRANCH  28  29
ENDBRANCH  27  28
ENDBRANCH  25  27
ENDBRANCH  24  25
ENDBRANCH   3  24
TORSDOF 6
ENDMDL
MODEL 8
REMARK VINA RESULT:      -7.1      4.658      6.754
REMARK  6 active torsions:
REMARK  status: ('A' for Active; 'I' for Inactive)
REMARK    1  A    between atoms: N_4  and  C_18 
REMARK    2  A    between atoms: C_9  and  C_10 
REMARK    3  A    between atoms: C_10  and  C_14 
REMARK    4  A    between atoms: C_14  and  C_15 
REMARK    5  A    between atoms: C_15  and  C_16 
REMARK    6  A    between atoms: C_16  and  C_17 
ROOT
HETATM    1  O   UNK N   1      24.694  20.583   3.119  0.00  0.00    -0.267 OA
HETATM    2  N   UNK N   1      24.139  18.582   4.066  0.00  0.00    -0.290 N 
HETATM    3  C   UNK N   1      22.927  17.778   4.244  0.00  0.00     0.135 A 
HETATM    4  C   UNK N   1      21.889  18.665   3.590  0.00  0.00    -0.019 A 
HETATM    5  C   UNK N   1      22.470  19.812   3.111  0.00  0.00     0.041 A 
HETATM    6  C   UNK N   1      23.861  19.739   3.419  0.00  0.00     0.260 A 
HETATM    7  C   UNK N   1      20.522  18.435   3.425  0.00  0.00     0.010 A 
HETATM    8  C   UNK N   1      21.742  20.793   2.442  0.00  0.00     0.017 A 
HETATM    9  C   UNK N   1      19.757  19.408   2.757  0.00  0.00     0.001 A 
HETATM   10  C   UNK N   1      20.365  20.583   2.266  0.00  0.00     0.001 A 
ENDROOT
BRANCH   2  11
HETATM   11  C   UNK N   1      25.453  18.158   4.439  0.00  0.00     0.112 A 
HETATM   12  N   UNK N   1      25.930  18.442   5.684  0.00  0.00    -0.328 N 
HETATM   13  C   UNK N   1      27.194  18.133   6.061  0.00  0.00     0.118 A 
ATOM     14  HN  UNK N   1      25.314  18.905   6.354  1.00  0.00     0.169 HD
HETATM   15  N   UNK N   1      27.631  18.463   7.304  0.00  0.00    -0.332 N 
HETATM   16  C   UNK N   1      28.059  17.492   5.156  0.00  0.00     0.008 A 
HETATM   17  C   UNK N   1      28.901  18.190   7.705  0.00  0.00     0.104 A 
ATOM     18  HN  UNK N   1      26.991  18.926   7.951  1.00  0.00     0.168 HD
HETATM   19 Cl   UNK N   1      29.420  18.651   9.312  0.00  0.00    -0.065 Cl
HETATM   20  C   UNK N   1      29.792  17.554   6.834  0.00  0.00     0.043 A 
HETATM   21  C   UNK N   1      29.365  17.200   5.550  0.00  0.00     0.018 A 
HETATM   22  C   UNK N   1      27.598  17.173   3.879  0.00  0.00     0.019 A 
HETATM   23  C   UNK N   1      26.291  17.511   3.512  0.00  0.00     0.050 A 
ENDBRANCH   2  11
BRANCH   3  24
HETATM   24  C   UNK N   1      22.611  17.568   5.721  0.00  0.00     0.109 C 
BRANCH  24  25
HETATM   25  C   UNK N   1      22.607  16.108   6.039  0.00  0.00     0.129 C 
HETATM   26  O   UNK N   1      22.110  15.717   7.084  0.00  0.00    -0.298 OA
BRANCH  25  27
HETATM   27  C   UNK N   1      23.237  15.147   5.067  0.00  0.00     0.079 C 
BRANCH  27  28
HETATM   28  C   UNK N   1      24.190  14.152   5.718  0.00  0.00     0.011 C 
BRANCH  28  29
HETATM   29  C   UNK N   1      25.584  14.745   5.863  0.00  0.00    -0.022 C 
HETATM   30  C   UNK N   1      25.883  14.968   7.330  0.00  0.00     0.009 C 
HETATM   31  C   UNK N   1      26.632  13.815   5.277  0.00  0.00     0.009 C 
ENDBRANCH  28  29
ENDBRANCH  27  28
ENDBRANCH  25  27
ENDBRANCH  24  25
ENDBRANCH   3  24
TORSDOF 6
ENDMDL
MODEL 9
REMARK VINA RESULT:      -7.0      7.240      9.636
REMARK  6 active torsions:
REMARK  status: ('A' for Active; 'I' for Inactive)
REMARK    1  A    between atoms: N_4  and  C_18 
REMARK    2  A    between atoms: C_9  and  C_10 
REMARK    3  A    between atoms: C_10  and  C_14 
REMARK    4  A    between atoms: C_14  and  C_15 
REMARK    5  A    between atoms: C_15  and  C_16 
REMARK    6  A    between atoms: C_16  and  C_17 
ROOT
HETATM    1  O   UNK N   1      24.936  12.805   8.183  0.00  0.00    -0.267 OA
HETATM    2  N   UNK N   1      23.213  14.095   7.424  0.00  0.00    -0.290 N 
HETATM    3  C   UNK N   1      21.846  14.414   7.844  0.00  0.00     0.135 A 
HETATM    4  C   UNK N   1      21.722  13.576   9.099  0.00  0.00    -0.019 A 
HETATM    5  C   UNK N   1      22.884  12.886   9.332  0.00  0.00     0.041 A 
HETATM    6  C   UNK N   1      23.791  13.221   8.283  0.00  0.00     0.260 A 
HETATM    7  C   UNK N   1      20.639  13.465   9.973  0.00  0.00     0.010 A 
HETATM    8  C   UNK N   1      23.048  12.054  10.437  0.00  0.00     0.017 A 
HETATM    9  C   UNK N   1      20.770  12.630  11.097  0.00  0.00     0.001 A 
HETATM   10  C   UNK N   1      21.971  11.927  11.329  0.00  0.00     0.001 A 
ENDROOT
BRANCH   2  11
HETATM   11  C   UNK N   1      23.879  14.697   6.311  0.00  0.00     0.112 A 
HETATM   12  N   UNK N   1      24.440  15.932   6.443  0.00  0.00    -0.328 N 
HETATM   13  C   UNK N   1      25.014  16.579   5.400  0.00  0.00     0.118 A 
ATOM     14  HN  UNK N   1      24.426  16.384   7.358  1.00  0.00     0.169 HD
HETATM   15  N   UNK N   1      25.534  17.822   5.577  0.00  0.00    -0.332 N 
HETATM   16  C   UNK N   1      25.049  15.974   4.131  0.00  0.00     0.008 A 
HETATM   17  C   UNK N   1      26.094  18.510   4.546  0.00  0.00     0.104 A 
ATOM     18  HN  UNK N   1      25.504  18.248   6.504  1.00  0.00     0.168 HD
HETATM   19 Cl   UNK N   1      26.736  20.114   4.823  0.00  0.00    -0.065 Cl
HETATM   20  C   UNK N   1      26.148  17.942   3.269  0.00  0.00     0.043 A 
HETATM   21  C   UNK N   1      25.623  16.662   3.062  0.00  0.00     0.018 A 
HETATM   22  C   UNK N   1      24.498  14.704   3.965  0.00  0.00     0.019 A 
HETATM   23  C   UNK N   1      23.903  14.061   5.056  0.00  0.00     0.050 A 
ENDBRANCH   2  11
BRANCH   3  24
HETATM   24  C   UNK N   1      20.826  13.981   6.796  0.00  0.00     0.109 C 
BRANCH  24  25
HETATM   25  C   UNK N   1      20.113  15.177   6.254  0.00  0.00     0.129 C 
HETATM   26  O   UNK N   1      19.189  15.668   6.884  0.00  0.00    -0.298 OA
BRANCH  25  27
HETATM   27  C   UNK N   1      20.539  15.741   4.925  0.00  0.00     0.079 C 
BRANCH  27  28
HETATM   28  C   UNK N   1      21.271  17.073   5.029  0.00  0.00     0.011 C 
BRANCH  28  29
HETATM   29  C   UNK N   1      21.833  17.494   3.679  0.00  0.00    -0.022 C 
HETATM   30  C   UNK N   1      20.718  17.506   2.655  0.00  0.00     0.009 C 
HETATM   31  C   UNK N   1      22.451  18.879   3.758  0.00  0.00     0.009 C 
ENDBRANCH  28  29
ENDBRANCH  27  28
ENDBRANCH  25  27
ENDBRANCH  24  25
ENDBRANCH   3  24
TORSDOF 6
ENDMDL
