REMARK  6 active torsions:
REMARK  status: ('A' for Active; 'I' for Inactive)
REMARK    1  A    between atoms: N_5  and  C_16 
REMARK    2  A    between atoms: N_6  and  C_17 
REMARK       I    between atoms: N_6  and  C_26 
REMARK    3  A    between atoms: N_7  and  C_23 
REMARK       I    between atoms: N_7  and  C_34 
REMARK    4  A    between atoms: C_18  and  C_30 
REMARK    5  A    between atoms: C_22  and  C_26 
REMARK    6  A    between atoms: C_36  and  C_37 
ROOT
HETATM    1  C   UNK N   1       7.612   1.189  -0.235  0.00  0.00     0.034 A 
HETATM    2  C   UNK N   1       8.410  -1.058   0.160  0.00  0.00     0.056 A 
HETATM    3  C   UNK N   1       9.737  -0.592   0.097  0.00  0.00    -0.035 A 
HETATM    4  C   UNK N   1       7.390  -0.149  -0.001  0.00  0.00     0.047 A 
HETATM    5  C   UNK N   1       8.922   1.665  -0.341  0.00  0.00     0.018 A 
HETATM    6  C   UNK N   1       9.988   0.769  -0.166  0.00  0.00     0.010 A 
HETATM    7  C   UNK N   1      10.884  -1.518   0.298  0.00  0.00     0.050 C 
ENDROOT
BRANCH   1   8
HETATM    8  C   UNK N   1       6.432   2.037  -0.286  0.00  0.00     0.256 C 
HETATM    9  O   UNK N   1       6.523   3.214  -0.604  0.00  0.00    -0.267 OA
HETATM   10  N   UNK N   1       5.235   1.473   0.048  0.00  0.00    -0.323 N 
HETATM   11  H   UNK N   1       5.227   0.506   0.231  0.00  0.00     0.169 HD
BRANCH  10  12
HETATM   12  C   UNK N   1       4.012   2.157   0.151  0.00  0.00     0.037 A 
HETATM   13  C   UNK N   1       3.988   3.532   0.253  0.00  0.00     0.059 A 
HETATM   14  C   UNK N   1       2.801   4.241   0.217  0.00  0.00     0.042 A 
HETATM   15  C   UNK N   1       1.587   3.539   0.060  0.00  0.00     0.046 A 
HETATM   16  C   UNK N   1       1.603   2.125  -0.013  0.00  0.00     0.052 A 
HETATM   17  C   UNK N   1       2.823   1.447   0.042  0.00  0.00     0.046 A 
BRANCH  14  18
HETATM   18  N   UNK N   1       2.885   5.671   0.217  0.00  0.00    -0.317 N 
HETATM   19  C   UNK N   1       4.035   6.364   0.337  0.00  0.00     0.122 A 
HETATM   20  C   UNK N   1       3.724   7.687   0.203  0.00  0.00     0.022 A 
HETATM   21  N   UNK N   1       2.400   7.828  -0.003  0.00  0.00    -0.354 N 
HETATM   22  C   UNK N   1       4.700   8.808   0.248  0.00  0.00     0.069 C 
HETATM   23  C   UNK N   1       1.904   6.570   0.011  0.00  0.00     0.188 A 
ATOM     24  HN  UNK N   1       1.883   8.697  -0.139  1.00  0.00     0.166 HD
ENDBRANCH  14  18
BRANCH  16  25
HETATM   25  C   UNK N   1       0.363   1.317  -0.254  0.00  0.00     0.417 C 
HETATM   26  F   UNK N   1      -0.741   2.129  -0.433  0.00  0.00    -0.166 F 
HETATM   27  F   UNK N   1       0.544   0.556  -1.398  0.00  0.00    -0.166 F 
HETATM   28  F   UNK N   1       0.137   0.467   0.813  0.00  0.00    -0.166 F 
ENDBRANCH  16  25
ENDBRANCH  10  12
ENDBRANCH   1   8
BRANCH   2  29
HETATM   29  N   UNK N   1       8.094  -2.434   0.359  0.00  0.00    -0.191 N 
HETATM   30  C   UNK N   1       6.761  -2.959   0.341  0.00  0.00     0.683 A 
HETATM   31  N   UNK N   1       6.575  -4.300   0.274  0.00  0.00    -0.191 N 
HETATM   32  N   UNK N   1       5.670  -2.136   0.332  0.00  0.00    -0.202 N 
HETATM   33  C   UNK N   1       5.328  -4.839   0.184  0.00  0.00     0.062 A 
ATOM     34  HN  UNK N   1       7.386  -4.918   0.291  1.00  0.00     0.184 HD
HETATM   35  C   UNK N   1       4.209  -3.998   0.170  0.00  0.00     0.048 A 
HETATM   36  C   UNK N   1       4.409  -2.627   0.255  0.00  0.00     0.108 A 
ATOM     37  HN  UNK N   1       5.808  -1.126   0.383  1.00  0.00     0.183 HD
HETATM   38  H   UNK N   1       8.836  -3.061   0.519  0.00  0.00     0.184 HD
BRANCH  33  39
HETATM   39  C   UNK N   1       5.174  -6.298   0.068  0.00  0.00     0.007 A 
HETATM   40  C   UNK N   1       3.915  -6.886  -0.109  0.00  0.00     0.016 A 
HETATM   41  C   UNK N   1       3.806  -8.270  -0.237  0.00  0.00     0.018 A 
HETATM   42  C   UNK N   1       4.960  -9.055  -0.182  0.00  0.00     0.087 A 
HETATM   43  N   UNK N   1       6.176  -8.471  -0.007  0.00  0.00    -0.374 N 
HETATM   44  C   UNK N   1       6.304  -7.124   0.114  0.00  0.00     0.101 A 
ATOM     45  HN  UNK N   1       7.009  -9.058   0.034  1.00  0.00     0.164 HD
ENDBRANCH  33  39
ENDBRANCH   2  29
TORSDOF 6
