MODEL 1
REMARK VINA RESULT:      -8.1      0.000      0.000
REMARK  4 active torsions:
REMARK  status: ('A' for Active; 'I' for Inactive)
REMARK    1  A    between atoms: N_2  and  C_13 
REMARK    2  A    between atoms: N_2  and  C_19 
REMARK    3  A    between atoms: C_11  and  C_12 
REMARK    4  A    between atoms: C_12  and  C_15 
ROOT
HETATM    1  N   UNK N   1      30.266  17.285   8.574  0.00  0.00    -0.302 N 
ATOM      2  HN  UNK N   1      29.437  17.232   9.167  1.00  0.00     0.186 HD
HETATM    3  N   UNK N   1      31.457  17.411   9.148  0.00  0.00    -0.285 N 
ATOM      4  HN  UNK N   1      31.512  17.457  10.165  1.00  0.00     0.188 HD
HETATM    5  C   UNK N   1      31.257  17.284   6.412  0.00  0.00     0.002 A 
HETATM    6  C   UNK N   1      32.527  17.417   7.025  0.00  0.00     0.021 A 
HETATM    7  C   UNK N   1      30.114  17.222   7.226  0.00  0.00     0.041 A 
HETATM    8  C   UNK N   1      32.603  17.481   8.427  0.00  0.00     0.131 A 
HETATM    9  C   UNK N   1      31.167  17.220   5.015  0.00  0.00     0.014 A 
HETATM   10  C   UNK N   1      33.679  17.483   6.229  0.00  0.00     0.016 A 
HETATM   11  C   UNK N   1      32.322  17.285   4.231  0.00  0.00     0.001 A 
HETATM   12  C   UNK N   1      33.576  17.416   4.837  0.00  0.00     0.001 A 
ENDROOT
BRANCH   8  13
HETATM   13  N   UNK N   1      33.858  17.628   9.091  0.00  0.00    -0.341 N 
HETATM   14  H   UNK N   1      34.213  18.539   9.204  0.00  0.00     0.167 HD
BRANCH  13  15
HETATM   15  C   UNK N   1      34.635  16.543   9.604  0.00  0.00     0.033 A 
HETATM   16  C   UNK N   1      35.279  16.686  10.838  0.00  0.00     0.031 A 
HETATM   17  C   UNK N   1      36.043  15.633  11.362  0.00  0.00     0.026 A 
HETATM   18  C   UNK N   1      36.169  14.435  10.652  0.00  0.00     0.034 A 
HETATM   19 Cl   UNK N   1      37.120  13.117  11.300  0.00  0.00    -0.084 Cl
HETATM   20  C   UNK N   1      35.535  14.287   9.420  0.00  0.00     0.026 A 
HETATM   21  C   UNK N   1      34.774  15.334   8.901  0.00  0.00     0.031 A 
ENDBRANCH  13  15
ENDBRANCH   8  13
BRANCH   7  22
HETATM   22  C   UNK N   1      28.725  17.087   6.647  0.00  0.00     0.098 C 
BRANCH  22  23
HETATM   23  C   UNK N   1      28.182  18.412   6.194  0.00  0.00    -0.050 A 
HETATM   24  C   UNK N   1      28.033  18.687   4.829  0.00  0.00     0.024 A 
HETATM   25  C   UNK N   1      27.597  19.951   4.428  0.00  0.00     0.088 A 
HETATM   26  N   UNK N   1      27.321  20.905   5.358  0.00  0.00    -0.375 N 
HETATM   27  C   UNK N   1      27.451  20.655   6.690  0.00  0.00     0.088 A 
ATOM     28  HN  UNK N   1      27.009  21.826   5.051  1.00  0.00     0.164 HD
HETATM   29  C   UNK N   1      27.888  19.403   7.131  0.00  0.00     0.024 A 
ENDBRANCH  22  23
ENDBRANCH   7  22
TORSDOF 4
ENDMDL
MODEL 2
REMARK VINA RESULT:      -7.7      3.387      7.912
REMARK  4 active torsions:
REMARK  status: ('A' for Active; 'I' for Inactive)
REMARK    1  A    between atoms: N_2  and  C_13 
REMARK    2  A    between atoms: N_2  and  C_19 
REMARK    3  A    between atoms: C_11  and  C_12 
REMARK    4  A    between atoms: C_12  and  C_15 
ROOT
HETATM    1  N   UNK N   1      31.928  17.445   9.028  0.00  0.00    -0.302 N 
ATOM      2  HN  UNK N   1      32.187  17.546  10.009  1.00  0.00     0.186 HD
HETATM    3  N   UNK N   1      30.655  17.219   8.721  0.00  0.00    -0.285 N 
ATOM      4  HN  UNK N   1      29.972  17.147   9.474  1.00  0.00     0.188 HD
HETATM    5  C   UNK N   1      32.533  17.419   6.728  0.00  0.00     0.002 A 
HETATM    6  C   UNK N   1      31.176  17.180   6.402  0.00  0.00     0.021 A 
HETATM    7  C   UNK N   1      32.894  17.548   8.079  0.00  0.00     0.041 A 
HETATM    8  C   UNK N   1      30.234  17.080   7.439  0.00  0.00     0.131 A 
HETATM    9  C   UNK N   1      33.484  17.520   5.702  0.00  0.00     0.014 A 
HETATM   10  C   UNK N   1      30.798  17.046   5.059  0.00  0.00     0.016 A 
HETATM   11  C   UNK N   1      33.095  17.387   4.366  0.00  0.00     0.001 A 
HETATM   12  C   UNK N   1      31.755  17.150   4.045  0.00  0.00     0.001 A 
ENDROOT
BRANCH   8  13
HETATM   13  N   UNK N   1      28.857  16.827   7.163  0.00  0.00    -0.341 N 
HETATM   14  H   UNK N   1      28.467  15.990   7.503  0.00  0.00     0.167 HD
BRANCH  13  15
HETATM   15  C   UNK N   1      28.003  17.706   6.426  0.00  0.00     0.033 A 
HETATM   16  C   UNK N   1      27.146  17.174   5.455  0.00  0.00     0.031 A 
HETATM   17  C   UNK N   1      26.298  18.018   4.725  0.00  0.00     0.026 A 
HETATM   18  C   UNK N   1      26.305  19.397   4.958  0.00  0.00     0.034 A 
HETATM   19 Cl   UNK N   1      25.248  20.455   4.050  0.00  0.00    -0.084 Cl
HETATM   20  C   UNK N   1      27.159  19.934   5.919  0.00  0.00     0.026 A 
HETATM   21  C   UNK N   1      28.001  19.094   6.647  0.00  0.00     0.031 A 
ENDBRANCH  13  15
ENDBRANCH   8  13
BRANCH   7  22
HETATM   22  C   UNK N   1      34.322  17.798   8.507  0.00  0.00     0.098 C 
BRANCH  22  23
HETATM   23  C   UNK N   1      34.890  16.624   9.252  0.00  0.00    -0.050 A 
HETATM   24  C   UNK N   1      34.941  15.360   8.652  0.00  0.00     0.024 A 
HETATM   25  C   UNK N   1      35.404  14.269   9.389  0.00  0.00     0.088 A 
HETATM   26  N   UNK N   1      35.802  14.436  10.679  0.00  0.00    -0.375 N 
HETATM   27  C   UNK N   1      35.769  15.658  11.278  0.00  0.00     0.088 A 
ATOM     28  HN  UNK N   1      36.133  13.629  11.207  1.00  0.00     0.164 HD
HETATM   29  C   UNK N   1      35.309  16.774  10.575  0.00  0.00     0.024 A 
ENDBRANCH  22  23
ENDBRANCH   7  22
TORSDOF 4
ENDMDL
MODEL 3
REMARK VINA RESULT:      -7.5      9.734     11.176
REMARK  4 active torsions:
REMARK  status: ('A' for Active; 'I' for Inactive)
REMARK    1  A    between atoms: N_2  and  C_13 
REMARK    2  A    between atoms: N_2  and  C_19 
REMARK    3  A    between atoms: C_11  and  C_12 
REMARK    4  A    between atoms: C_12  and  C_15 
ROOT
HETATM    1  N   UNK N   1      22.991  15.498   5.462  0.00  0.00    -0.302 N 
ATOM      2  HN  UNK N   1      23.675  15.508   4.706  1.00  0.00     0.186 HD
HETATM    3  N   UNK N   1      22.763  14.360   6.107  0.00  0.00    -0.285 N 
ATOM      4  HN  UNK N   1      23.275  13.524   5.826  1.00  0.00     0.188 HD
HETATM    5  C   UNK N   1      21.408  16.638   6.825  0.00  0.00     0.002 A 
HETATM    6  C   UNK N   1      21.168  15.423   7.513  0.00  0.00     0.021 A 
HETATM    7  C   UNK N   1      22.343  16.650   5.777  0.00  0.00     0.041 A 
HETATM    8  C   UNK N   1      21.873  14.271   7.126  0.00  0.00     0.131 A 
HETATM    9  C   UNK N   1      20.712  17.795   7.200  0.00  0.00     0.014 A 
HETATM   10  C   UNK N   1      20.237  15.391   8.560  0.00  0.00     0.016 A 
HETATM   11  C   UNK N   1      19.787  17.751   8.247  0.00  0.00     0.001 A 
HETATM   12  C   UNK N   1      19.550  16.552   8.926  0.00  0.00     0.001 A 
ENDROOT
BRANCH   8  13
HETATM   13  N   UNK N   1      21.657  13.021   7.780  0.00  0.00    -0.341 N 
HETATM   14  H   UNK N   1      21.202  12.311   7.272  0.00  0.00     0.167 HD
BRANCH  13  15
HETATM   15  C   UNK N   1      22.056  12.728   9.121  0.00  0.00     0.033 A 
HETATM   16  C   UNK N   1      23.419  12.607   9.419  0.00  0.00     0.031 A 
HETATM   17  C   UNK N   1      23.832  12.325  10.728  0.00  0.00     0.026 A 
HETATM   18  C   UNK N   1      22.885  12.157  11.744  0.00  0.00     0.034 A 
HETATM   19 Cl   UNK N   1      23.395  11.805  13.381  0.00  0.00    -0.084 Cl
HETATM   20  C   UNK N   1      21.527  12.271  11.454  0.00  0.00     0.026 A 
HETATM   21  C   UNK N   1      21.117  12.554  10.152  0.00  0.00     0.031 A 
ENDBRANCH  13  15
ENDBRANCH   8  13
BRANCH   7  22
HETATM   22  C   UNK N   1      22.649  17.905   4.991  0.00  0.00     0.098 C 
BRANCH  22  23
HETATM   23  C   UNK N   1      21.579  18.200   3.979  0.00  0.00    -0.050 A 
HETATM   24  C   UNK N   1      21.177  17.217   3.067  0.00  0.00     0.024 A 
HETATM   25  C   UNK N   1      20.234  17.534   2.088  0.00  0.00     0.088 A 
HETATM   26  N   UNK N   1      19.714  18.790   2.023  0.00  0.00    -0.375 N 
HETATM   27  C   UNK N   1      20.085  19.757   2.906  0.00  0.00     0.088 A 
ATOM     28  HN  UNK N   1      19.031  19.009   1.299  1.00  0.00     0.164 HD
HETATM   29  C   UNK N   1      21.028  19.480   3.899  0.00  0.00     0.024 A 
ENDBRANCH  22  23
ENDBRANCH   7  22
TORSDOF 4
ENDMDL
MODEL 4
REMARK VINA RESULT:      -7.3      5.494      9.579
REMARK  4 active torsions:
REMARK  status: ('A' for Active; 'I' for Inactive)
REMARK    1  A    between atoms: N_2  and  C_13 
REMARK    2  A    between atoms: N_2  and  C_19 
REMARK    3  A    between atoms: C_11  and  C_12 
REMARK    4  A    between atoms: C_12  and  C_15 
ROOT
HETATM    1  N   UNK N   1      27.097  16.383   5.811  0.00  0.00    -0.302 N 
ATOM      2  HN  UNK N   1      27.674  15.727   6.339  1.00  0.00     0.186 HD
HETATM    3  N   UNK N   1      25.814  16.099   5.620  0.00  0.00    -0.285 N 
ATOM      4  HN  UNK N   1      25.439  15.231   6.002  1.00  0.00     0.188 HD
HETATM    5  C   UNK N   1      26.871  18.422   4.609  0.00  0.00     0.002 A 
HETATM    6  C   UNK N   1      25.502  18.120   4.408  0.00  0.00     0.021 A 
HETATM    7  C   UNK N   1      27.668  17.516   5.328  0.00  0.00     0.041 A 
HETATM    8  C   UNK N   1      24.985  16.924   4.934  0.00  0.00     0.131 A 
HETATM    9  C   UNK N   1      27.400  19.612   4.089  0.00  0.00     0.014 A 
HETATM   10  C   UNK N   1      24.692  19.011   3.691  0.00  0.00     0.016 A 
HETATM   11  C   UNK N   1      26.582  20.494   3.377  0.00  0.00     0.001 A 
HETATM   12  C   UNK N   1      25.231  20.194   3.179  0.00  0.00     0.001 A 
ENDROOT
BRANCH   8  13
HETATM   13  N   UNK N   1      23.616  16.568   4.747  0.00  0.00    -0.341 N 
HETATM   14  H   UNK N   1      23.350  16.213   3.868  0.00  0.00     0.167 HD
BRANCH  13  15
HETATM   15  C   UNK N   1      22.602  16.691   5.748  0.00  0.00     0.033 A 
HETATM   16  C   UNK N   1      21.907  17.900   5.873  0.00  0.00     0.031 A 
HETATM   17  C   UNK N   1      20.906  18.041   6.845  0.00  0.00     0.026 A 
HETATM   18  C   UNK N   1      20.599  16.975   7.698  0.00  0.00     0.034 A 
HETATM   19 Cl   UNK N   1      19.351  17.145   8.912  0.00  0.00    -0.084 Cl
HETATM   20  C   UNK N   1      21.290  15.771   7.582  0.00  0.00     0.026 A 
HETATM   21  C   UNK N   1      22.284  15.632   6.614  0.00  0.00     0.031 A 
ENDBRANCH  13  15
ENDBRANCH   8  13
BRANCH   7  22
HETATM   22  C   UNK N   1      29.137  17.766   5.578  0.00  0.00     0.098 C 
BRANCH  22  23
HETATM   23  C   UNK N   1      29.468  17.704   7.042  0.00  0.00    -0.050 A 
HETATM   24  C   UNK N   1      28.799  18.528   7.955  0.00  0.00     0.024 A 
HETATM   25  C   UNK N   1      29.173  18.508   9.299  0.00  0.00     0.088 A 
HETATM   26  N   UNK N   1      30.180  17.693   9.715  0.00  0.00    -0.375 N 
HETATM   27  C   UNK N   1      30.837  16.878   8.846  0.00  0.00     0.088 A 
ATOM     28  HN  UNK N   1      30.447  17.693  10.699  1.00  0.00     0.164 HD
HETATM   29  C   UNK N   1      30.494  16.871   7.491  0.00  0.00     0.024 A 
ENDBRANCH  22  23
ENDBRANCH   7  22
TORSDOF 4
ENDMDL
MODEL 5
REMARK VINA RESULT:      -7.2      4.334      8.945
REMARK  4 active torsions:
REMARK  status: ('A' for Active; 'I' for Inactive)
REMARK    1  A    between atoms: N_2  and  C_13 
REMARK    2  A    between atoms: N_2  and  C_19 
REMARK    3  A    between atoms: C_11  and  C_12 
REMARK    4  A    between atoms: C_12  and  C_15 
ROOT
HETATM    1  N   UNK N   1      29.841  16.586   4.372  0.00  0.00    -0.302 N 
ATOM      2  HN  UNK N   1      30.326  15.893   3.801  1.00  0.00     0.186 HD
HETATM    3  N   UNK N   1      29.103  17.511   3.769  0.00  0.00    -0.285 N 
ATOM      4  HN  UNK N   1      29.045  17.509   2.751  1.00  0.00     0.188 HD
HETATM    5  C   UNK N   1      29.293  17.477   6.508  0.00  0.00     0.002 A 
HETATM    6  C   UNK N   1      28.505  18.462   5.864  0.00  0.00     0.021 A 
HETATM    7  C   UNK N   1      29.970  16.529   5.723  0.00  0.00     0.041 A 
HETATM    8  C   UNK N   1      28.425  18.460   4.462  0.00  0.00     0.131 A 
HETATM    9  C   UNK N   1      29.383  17.468   7.907  0.00  0.00     0.014 A 
HETATM   10  C   UNK N   1      27.825  19.417   6.632  0.00  0.00     0.016 A 
HETATM   11  C   UNK N   1      28.698  18.424   8.662  0.00  0.00     0.001 A 
HETATM   12  C   UNK N   1      27.921  19.397   8.026  0.00  0.00     0.001 A 
ENDROOT
BRANCH   8  13
HETATM   13  N   UNK N   1      27.654  19.439   3.766  0.00  0.00    -0.341 N 
HETATM   14  H   UNK N   1      28.138  20.170   3.319  0.00  0.00     0.167 HD
BRANCH  13  15
HETATM   15  C   UNK N   1      26.228  19.432   3.673  0.00  0.00     0.033 A 
HETATM   16  C   UNK N   1      25.572  20.537   3.118  0.00  0.00     0.031 A 
HETATM   17  C   UNK N   1      24.174  20.550   3.013  0.00  0.00     0.026 A 
HETATM   18  C   UNK N   1      23.426  19.459   3.467  0.00  0.00     0.034 A 
HETATM   19 Cl   UNK N   1      21.681  19.468   3.338  0.00  0.00    -0.084 Cl
HETATM   20  C   UNK N   1      24.071  18.357   4.025  0.00  0.00     0.026 A 
HETATM   21  C   UNK N   1      25.461  18.345   4.127  0.00  0.00     0.031 A 
ENDBRANCH  13  15
ENDBRANCH   8  13
BRANCH   7  22
HETATM   22  C   UNK N   1      30.835  15.451   6.335  0.00  0.00     0.098 C 
BRANCH  22  23
HETATM   23  C   UNK N   1      32.108  16.016   6.898  0.00  0.00    -0.050 A 
HETATM   24  C   UNK N   1      32.516  15.686   8.196  0.00  0.00     0.024 A 
HETATM   25  C   UNK N   1      33.663  16.280   8.726  0.00  0.00     0.088 A 
HETATM   26  N   UNK N   1      34.375  17.170   7.984  0.00  0.00    -0.375 N 
HETATM   27  C   UNK N   1      34.001  17.497   6.717  0.00  0.00     0.088 A 
ATOM     28  HN  UNK N   1      35.208  17.600   8.385  1.00  0.00     0.164 HD
HETATM   29  C   UNK N   1      32.857  16.927   6.152  0.00  0.00     0.024 A 
ENDBRANCH  22  23
ENDBRANCH   7  22
TORSDOF 4
ENDMDL
MODEL 6
REMARK VINA RESULT:      -7.2      6.177     10.755
REMARK  4 active torsions:
REMARK  status: ('A' for Active; 'I' for Inactive)
REMARK    1  A    between atoms: N_2  and  C_13 
REMARK    2  A    between atoms: N_2  and  C_19 
REMARK    3  A    between atoms: C_11  and  C_12 
REMARK    4  A    between atoms: C_12  and  C_15 
ROOT
HETATM    1  N   UNK N   1      25.869  16.698   5.744  0.00  0.00    -0.302 N 
ATOM      2  HN  UNK N   1      26.300  15.951   6.289  1.00  0.00     0.186 HD
HETATM    3  N   UNK N   1      24.545  16.753   5.666  0.00  0.00    -0.285 N 
ATOM      4  HN  UNK N   1      23.993  16.045   6.149  1.00  0.00     0.188 HD
HETATM    5  C   UNK N   1      26.075  18.638   4.383  0.00  0.00     0.002 A 
HETATM    6  C   UNK N   1      24.662  18.697   4.303  0.00  0.00     0.021 A 
HETATM    7  C   UNK N   1      26.670  17.604   5.124  0.00  0.00     0.041 A 
HETATM    8  C   UNK N   1      23.901  17.720   4.966  0.00  0.00     0.131 A 
HETATM    9  C   UNK N   1      26.847  19.605   3.725  0.00  0.00     0.014 A 
HETATM   10  C   UNK N   1      24.051  19.721   3.565  0.00  0.00     0.016 A 
HETATM   11  C   UNK N   1      26.226  20.623   2.994  0.00  0.00     0.001 A 
HETATM   12  C   UNK N   1      24.831  20.680   2.915  0.00  0.00     0.001 A 
ENDROOT
BRANCH   8  13
HETATM   13  N   UNK N   1      22.475  17.730   4.905  0.00  0.00    -0.341 N 
HETATM   14  H   UNK N   1      21.984  18.003   5.713  0.00  0.00     0.167 HD
BRANCH  13  15
HETATM   15  C   UNK N   1      21.711  17.370   3.752  0.00  0.00     0.033 A 
HETATM   16  C   UNK N   1      20.746  18.260   3.265  0.00  0.00     0.031 A 
HETATM   17  C   UNK N   1      19.988  17.929   2.133  0.00  0.00     0.026 A 
HETATM   18  C   UNK N   1      20.190  16.705   1.485  0.00  0.00     0.034 A 
HETATM   19 Cl   UNK N   1      19.248  16.287   0.071  0.00  0.00    -0.084 Cl
HETATM   20  C   UNK N   1      21.145  15.813   1.966  0.00  0.00     0.026 A 
HETATM   21  C   UNK N   1      21.899  16.144   3.091  0.00  0.00     0.031 A 
ENDBRANCH  13  15
ENDBRANCH   8  13
BRANCH   7  22
HETATM   22  C   UNK N   1      28.170  17.470   5.252  0.00  0.00     0.098 C 
BRANCH  22  23
HETATM   23  C   UNK N   1      28.626  17.676   6.668  0.00  0.00    -0.050 A 
HETATM   24  C   UNK N   1      28.070  18.695   7.450  0.00  0.00     0.024 A 
HETATM   25  C   UNK N   1      28.560  18.916   8.738  0.00  0.00     0.088 A 
HETATM   26  N   UNK N   1      29.570  18.146   9.225  0.00  0.00    -0.375 N 
HETATM   27  C   UNK N   1      30.118  17.144   8.485  0.00  0.00     0.088 A 
ATOM     28  HN  UNK N   1      29.922  18.322  10.166  1.00  0.00     0.164 HD
HETATM   29  C   UNK N   1      29.657  16.893   7.190  0.00  0.00     0.024 A 
ENDBRANCH  22  23
ENDBRANCH   7  22
TORSDOF 4
ENDMDL
MODEL 7
REMARK VINA RESULT:      -7.2      3.888      5.709
REMARK  4 active torsions:
REMARK  status: ('A' for Active; 'I' for Inactive)
REMARK    1  A    between atoms: N_2  and  C_13 
REMARK    2  A    between atoms: N_2  and  C_19 
REMARK    3  A    between atoms: C_11  and  C_12 
REMARK    4  A    between atoms: C_12  and  C_15 
ROOT
HETATM    1  N   UNK N   1      26.105  16.126   6.700  0.00  0.00    -0.302 N 
ATOM      2  HN  UNK N   1      25.662  15.278   7.054  1.00  0.00     0.186 HD
HETATM    3  N   UNK N   1      27.172  16.603   7.330  0.00  0.00    -0.285 N 
ATOM      4  HN  UNK N   1      27.518  16.113   8.154  1.00  0.00     0.188 HD
HETATM    5  C   UNK N   1      26.201  17.890   5.107  0.00  0.00     0.002 A 
HETATM    6  C   UNK N   1      27.340  18.397   5.779  0.00  0.00     0.021 A 
HETATM    7  C   UNK N   1      25.584  16.728   5.600  0.00  0.00     0.041 A 
HETATM    8  C   UNK N   1      27.817  17.722   6.915  0.00  0.00     0.131 A 
HETATM    9  C   UNK N   1      25.714  18.554   3.973  0.00  0.00     0.014 A 
HETATM   10  C   UNK N   1      27.968  19.556   5.303  0.00  0.00     0.016 A 
HETATM   11  C   UNK N   1      26.349  19.708   3.506  0.00  0.00     0.001 A 
HETATM   12  C   UNK N   1      27.473  20.209   4.170  0.00  0.00     0.001 A 
ENDROOT
BRANCH   8  13
HETATM   13  N   UNK N   1      28.954  18.200   7.633  0.00  0.00    -0.341 N 
HETATM   14  H   UNK N   1      28.813  18.926   8.283  0.00  0.00     0.167 HD
BRANCH  13  15
HETATM   15  C   UNK N   1      30.283  17.698   7.475  0.00  0.00     0.033 A 
HETATM   16  C   UNK N   1      31.196  17.832   8.529  0.00  0.00     0.031 A 
HETATM   17  C   UNK N   1      32.502  17.343   8.397  0.00  0.00     0.026 A 
HETATM   18  C   UNK N   1      32.904  16.721   7.210  0.00  0.00     0.034 A 
HETATM   19 Cl   UNK N   1      34.534  16.107   7.040  0.00  0.00    -0.084 Cl
HETATM   20  C   UNK N   1      32.003  16.587   6.156  0.00  0.00     0.026 A 
HETATM   21  C   UNK N   1      30.703  17.072   6.289  0.00  0.00     0.031 A 
ENDBRANCH  13  15
ENDBRANCH   8  13
BRANCH   7  22
HETATM   22  C   UNK N   1      24.362  16.130   4.942  0.00  0.00     0.098 C 
BRANCH  22  23
HETATM   23  C   UNK N   1      23.105  16.477   5.688  0.00  0.00    -0.050 A 
HETATM   24  C   UNK N   1      22.517  17.739   5.537  0.00  0.00     0.024 A 
HETATM   25  C   UNK N   1      21.393  18.067   6.296  0.00  0.00     0.088 A 
HETATM   26  N   UNK N   1      20.875  17.166   7.174  0.00  0.00    -0.375 N 
HETATM   27  C   UNK N   1      21.426  15.931   7.329  0.00  0.00     0.088 A 
ATOM     28  HN  UNK N   1      20.057  17.421   7.725  1.00  0.00     0.164 HD
HETATM   29  C   UNK N   1      22.555  15.566   6.591  0.00  0.00     0.024 A 
ENDBRANCH  22  23
ENDBRANCH   7  22
TORSDOF 4
ENDMDL
MODEL 8
REMARK VINA RESULT:      -7.2      3.903      6.936
REMARK  4 active torsions:
REMARK  status: ('A' for Active; 'I' for Inactive)
REMARK    1  A    between atoms: N_2  and  C_13 
REMARK    2  A    between atoms: N_2  and  C_19 
REMARK    3  A    between atoms: C_11  and  C_12 
REMARK    4  A    between atoms: C_12  and  C_15 
ROOT
HETATM    1  N   UNK N   1      34.251  14.284  11.165  0.00  0.00    -0.302 N 
ATOM      2  HN  UNK N   1      33.285  14.597  11.259  1.00  0.00     0.186 HD
HETATM    3  N   UNK N   1      34.996  14.163  12.258  0.00  0.00    -0.285 N 
ATOM      4  HN  UNK N   1      34.584  14.390  13.162  1.00  0.00     0.188 HD
HETATM    5  C   UNK N   1      36.061  13.565   9.799  0.00  0.00     0.002 A 
HETATM    6  C   UNK N   1      36.853  13.434  10.966  0.00  0.00     0.021 A 
HETATM    7  C   UNK N   1      34.733  14.005   9.926  0.00  0.00     0.041 A 
HETATM    8  C   UNK N   1      36.286  13.748  12.212  0.00  0.00     0.131 A 
HETATM    9  C   UNK N   1      36.615  13.256   8.548  0.00  0.00     0.014 A 
HETATM   10  C   UNK N   1      38.181  12.999  10.858  0.00  0.00     0.016 A 
HETATM   11  C   UNK N   1      37.940  12.821   8.454  0.00  0.00     0.001 A 
HETATM   12  C   UNK N   1      38.721  12.693   9.606  0.00  0.00     0.001 A 
ENDROOT
BRANCH   8  13
HETATM   13  N   UNK N   1      37.047  13.644  13.415  0.00  0.00    -0.341 N 
HETATM   14  H   UNK N   1      37.893  14.144  13.467  0.00  0.00     0.167 HD
BRANCH  13  15
HETATM   15  C   UNK N   1      36.665  12.866  14.552  0.00  0.00     0.033 A 
HETATM   16  C   UNK N   1      37.090  11.535  14.645  0.00  0.00     0.031 A 
HETATM   17  C   UNK N   1      36.731  10.755  15.752  0.00  0.00     0.026 A 
HETATM   18  C   UNK N   1      35.942  11.300  16.770  0.00  0.00     0.034 A 
HETATM   19 Cl   UNK N   1      35.490  10.332  18.156  0.00  0.00    -0.084 Cl
HETATM   20  C   UNK N   1      35.510  12.622  16.683  0.00  0.00     0.026 A 
HETATM   21  C   UNK N   1      35.870  13.398  15.581  0.00  0.00     0.031 A 
ENDBRANCH  13  15
ENDBRANCH   8  13
BRANCH   7  22
HETATM   22  C   UNK N   1      33.828  14.176   8.728  0.00  0.00     0.098 C 
BRANCH  22  23
HETATM   23  C   UNK N   1      33.553  15.625   8.443  0.00  0.00    -0.050 A 
HETATM   24  C   UNK N   1      34.597  16.487   8.086  0.00  0.00     0.024 A 
HETATM   25  C   UNK N   1      34.332  17.844   7.898  0.00  0.00     0.088 A 
HETATM   26  N   UNK N   1      33.069  18.321   8.061  0.00  0.00    -0.375 N 
HETATM   27  C   UNK N   1      32.038  17.499   8.398  0.00  0.00     0.088 A 
ATOM     28  HN  UNK N   1      32.890  19.316   7.925  1.00  0.00     0.164 HD
HETATM   29  C   UNK N   1      32.263  16.134   8.599  0.00  0.00     0.024 A 
ENDBRANCH  22  23
ENDBRANCH   7  22
TORSDOF 4
ENDMDL
MODEL 9
REMARK VINA RESULT:      -7.1      4.861      7.521
REMARK  4 active torsions:
REMARK  status: ('A' for Active; 'I' for Inactive)
REMARK    1  A    between atoms: N_2  and  C_13 
REMARK    2  A    between atoms: N_2  and  C_19 
REMARK    3  A    between atoms: C_11  and  C_12 
REMARK    4  A    between atoms: C_12  and  C_15 
ROOT
HETATM    1  N   UNK N   1      24.144  18.464   5.416  0.00  0.00    -0.302 N 
ATOM      2  HN  UNK N   1      23.500  18.990   6.006  1.00  0.00     0.186 HD
HETATM    3  N   UNK N   1      25.423  18.820   5.386  0.00  0.00    -0.285 N 
ATOM      4  HN  UNK N   1      25.727  19.613   5.950  1.00  0.00     0.188 HD
HETATM    5  C   UNK N   1      24.556  16.691   3.884  0.00  0.00     0.002 A 
HETATM    6  C   UNK N   1      25.920  17.071   3.855  0.00  0.00     0.021 A 
HETATM    7  C   UNK N   1      23.665  17.422   4.689  0.00  0.00     0.041 A 
HETATM    8  C   UNK N   1      26.339  18.165   4.631  0.00  0.00     0.131 A 
HETATM    9  C   UNK N   1      24.124  15.602   3.115  0.00  0.00     0.014 A 
HETATM   10  C   UNK N   1      26.823  16.355   3.057  0.00  0.00     0.016 A 
HETATM   11  C   UNK N   1      25.033  14.895   2.323  0.00  0.00     0.001 A 
HETATM   12  C   UNK N   1      26.380  15.271   2.295  0.00  0.00     0.001 A 
ENDROOT
BRANCH   8  13
HETATM   13  N   UNK N   1      27.700  18.594   4.625  0.00  0.00    -0.341 N 
HETATM   14  H   UNK N   1      27.968  19.259   3.951  0.00  0.00     0.167 HD
BRANCH  13  15
HETATM   15  C   UNK N   1      28.702  18.125   5.531  0.00  0.00     0.033 A 
HETATM   16  C   UNK N   1      29.870  17.546   5.021  0.00  0.00     0.031 A 
HETATM   17  C   UNK N   1      30.867  17.083   5.891  0.00  0.00     0.026 A 
HETATM   18  C   UNK N   1      30.699  17.194   7.275  0.00  0.00     0.034 A 
HETATM   19 Cl   UNK N   1      31.940  16.619   8.367  0.00  0.00    -0.084 Cl
HETATM   20  C   UNK N   1      29.537  17.765   7.791  0.00  0.00     0.026 A 
HETATM   21  C   UNK N   1      28.547  18.227   6.924  0.00  0.00     0.031 A 
ENDBRANCH  13  15
ENDBRANCH   8  13
BRANCH   7  22
HETATM   22  C   UNK N   1      22.195  17.082   4.768  0.00  0.00     0.098 C 
BRANCH  22  23
HETATM   23  C   UNK N   1      21.385  17.898   3.802  0.00  0.00    -0.050 A 
HETATM   24  C   UNK N   1      21.124  19.249   4.061  0.00  0.00     0.024 A 
HETATM   25  C   UNK N   1      20.308  19.970   3.188  0.00  0.00     0.088 A 
HETATM   26  N   UNK N   1      19.772  19.361   2.096  0.00  0.00    -0.375 N 
HETATM   27  C   UNK N   1      20.020  18.051   1.821  0.00  0.00     0.088 A 
ATOM     28  HN  UNK N   1      19.173  19.898   1.469  1.00  0.00     0.164 HD
HETATM   29  C   UNK N   1      20.830  17.295   2.673  0.00  0.00     0.024 A 
ENDBRANCH  22  23
ENDBRANCH   7  22
TORSDOF 4
ENDMDL
