REMARK  1 active torsions:
REMARK  status: ('A' for Active; 'I' for Inactive)
REMARK    1  A    between atoms: N_2  and  C_3 
ROOT
HETATM    1  O   UNK N   1       0.958   0.723   0.000  0.00  0.00    -0.268 OA
HETATM    2  N   UNK N   1       3.234   0.606  -0.000  0.00  0.00    -0.289 N 
HETATM    3  C   UNK N   1       4.411   1.306  -0.000  0.00  0.00     0.107 A 
HETATM    4  C   UNK N   1       4.427   2.697   0.000  0.00  0.00    -0.046 A 
HETATM    5  C   UNK N   1       2.028   1.306   0.000  0.00  0.00     0.252 A 
HETATM    6  C   UNK N   1       3.228   3.399   0.000  0.00  0.00     0.013 A 
HETATM    7  C   UNK N   1       2.024   2.703   0.000  0.00  0.00     0.075 A 
HETATM    8  C   UNK N   1       5.723   3.423   0.000  0.00  0.00     0.049 C 
ENDROOT
BRANCH   2   9
HETATM    9  C   UNK N   1       3.311  -0.847  -0.000  0.00  0.00     0.042 A 
HETATM   10  C   UNK N   1       4.565  -1.491   0.000  0.00  0.00     0.030 A 
HETATM   11  C   UNK N   1       4.653  -2.885   0.000  0.00  0.00     0.002 A 
HETATM   12  C   UNK N   1       3.491  -3.657  -0.000  0.00  0.00     0.000 A 
HETATM   13  C   UNK N   1       2.241  -3.038  -0.000  0.00  0.00     0.002 A 
HETATM   14  C   UNK N   1       2.153  -1.645  -0.000  0.00  0.00     0.030 A 
ENDBRANCH   2   9
TORSDOF 1
