MODEL 1
REMARK VINA RESULT:      -5.9      0.000      0.000
REMARK  5 active torsions:
REMARK  status: ('A' for Active; 'I' for Inactive)
REMARK    1  A    between atoms: C_12  and  O_2 
REMARK    2  A    between atoms: C_14  and  O_3 
REMARK    3  A    between atoms: O_4  and  C_16 
REMARK    4  A    between atoms: C_13  and  N_6 
REMARK    5  A    between atoms: C_15  and  C_16 
ROOT
HETATM    1  O   UNK N   1      27.615  17.930   6.748  0.00  0.00    -0.266 OA
HETATM    2  N   UNK N   1      31.902  16.860   7.385  0.00  0.00    -0.297 N 
HETATM    3  N   UNK N   1      30.517  17.108   9.363  0.00  0.00    -0.336 N 
HETATM    4  N   UNK N   1      30.296  17.332   5.880  0.00  0.00    -0.345 N 
ATOM      5  HN  UNK N   1      29.812  17.498   4.999  1.00  0.00     0.167 HD
HETATM    6  N   UNK N   1      28.248  17.673   8.899  0.00  0.00    -0.318 N 
ATOM      7  HN  UNK N   1      27.309  17.876   9.238  1.00  0.00     0.169 HD
HETATM    8  C   UNK N   1      30.755  17.132   8.028  0.00  0.00     0.144 A 
HETATM    9  C   UNK N   1      31.600  16.979   6.065  0.00  0.00     0.188 A 
HETATM   10  C   UNK N   1      29.793  17.409   7.126  0.00  0.00     0.146 A 
HETATM   11  C   UNK N   1      28.503  17.690   7.545  0.00  0.00     0.277 A 
HETATM   12  C   UNK N   1      29.247  17.385   9.798  0.00  0.00     0.185 A 
HETATM   13  H   UNK N   1      31.236  16.898  10.001  0.00  0.00     0.168 HD
ENDROOT
BRANCH   2  14
HETATM   14  C   UNK N   1      33.194  16.437   7.939  0.00  0.00     0.262 C 
HETATM   15  O   UNK N   1      33.047  15.463   8.954  0.00  0.00    -0.353 OA
HETATM   16  C   UNK N   1      34.031  15.773   9.920  0.00  0.00     0.179 C 
HETATM   17  C   UNK N   1      34.964  16.790   9.300  0.00  0.00     0.182 C 
HETATM   18  C   UNK N   1      33.982  17.584   8.525  0.00  0.00     0.198 C 
BRANCH  16  19
HETATM   19  C   UNK N   1      34.783  14.514  10.326  0.00  0.00     0.198 C 
BRANCH  19  20
HETATM   20  O   UNK N   1      36.145  14.651  10.056  0.00  0.00    -0.398 OA
HETATM   21  H   UNK N   1      36.645  14.199   9.357  0.00  0.00     0.209 HD
ENDBRANCH  19  20
ENDBRANCH  16  19
BRANCH  17  22
HETATM   22  O   UNK N   1      35.608  17.566  10.263  0.00  0.00    -0.390 OA
HETATM   23  H   UNK N   1      36.213  18.325  10.271  0.00  0.00     0.210 HD
ENDBRANCH  17  22
BRANCH  18  24
HETATM   24  O   UNK N   1      34.621  18.314   7.521  0.00  0.00    -0.388 OA
HETATM   25  H   UNK N   1      34.357  19.199   7.226  0.00  0.00     0.210 HD
ENDBRANCH  18  24
ENDBRANCH   2  14
TORSDOF 5
ENDMDL
MODEL 2
REMARK VINA RESULT:      -5.7      4.857      7.886
REMARK  5 active torsions:
REMARK  status: ('A' for Active; 'I' for Inactive)
REMARK    1  A    between atoms: C_12  and  O_2 
REMARK    2  A    between atoms: C_14  and  O_3 
REMARK    3  A    between atoms: O_4  and  C_16 
REMARK    4  A    between atoms: C_13  and  N_6 
REMARK    5  A    between atoms: C_15  and  C_16 
ROOT
HETATM    1  O   UNK N   1      36.373  11.302  16.193  0.00  0.00    -0.266 OA
HETATM    2  N   UNK N   1      35.699  14.301  12.955  0.00  0.00    -0.297 N 
HETATM    3  N   UNK N   1      34.521  12.187  12.769  0.00  0.00    -0.336 N 
HETATM    4  N   UNK N   1      36.772  13.834  14.878  0.00  0.00    -0.345 N 
ATOM      5  HN  UNK N   1      37.372  13.916  15.698  1.00  0.00     0.167 HD
HETATM    6  N   UNK N   1      34.954  10.670  14.556  0.00  0.00    -0.318 N 
ATOM      7  HN  UNK N   1      34.788   9.767  14.998  1.00  0.00     0.169 HD
HETATM    8  C   UNK N   1      35.377  13.061  13.356  0.00  0.00     0.144 A 
HETATM    9  C   UNK N   1      36.551  14.766  13.908  0.00  0.00     0.188 A 
HETATM   10  C   UNK N   1      36.015  12.784  14.509  0.00  0.00     0.146 A 
HETATM   11  C   UNK N   1      35.817  11.569  15.143  0.00  0.00     0.277 A 
HETATM   12  C   UNK N   1      34.314  10.978  13.379  0.00  0.00     0.185 A 
HETATM   13  H   UNK N   1      34.063  12.415  11.928  0.00  0.00     0.168 HD
ENDROOT
BRANCH   2  14
HETATM   14  C   UNK N   1      35.199  15.060  11.802  0.00  0.00     0.262 C 
HETATM   15  O   UNK N   1      33.919  14.621  11.390  0.00  0.00    -0.353 OA
HETATM   16  C   UNK N   1      33.932  14.693   9.978  0.00  0.00     0.179 C 
HETATM   17  C   UNK N   1      35.166  15.473   9.580  0.00  0.00     0.182 C 
HETATM   18  C   UNK N   1      36.113  14.973  10.605  0.00  0.00     0.198 C 
BRANCH  16  19
HETATM   19  C   UNK N   1      32.668  15.374   9.475  0.00  0.00     0.198 C 
BRANCH  19  20
HETATM   20  O   UNK N   1      31.630  15.218  10.394  0.00  0.00    -0.398 OA
HETATM   21  H   UNK N   1      31.436  15.792  11.152  0.00  0.00     0.209 HD
ENDBRANCH  19  20
ENDBRANCH  16  19
BRANCH  17  22
HETATM   22  O   UNK N   1      35.591  15.158   8.290  0.00  0.00    -0.390 OA
HETATM   23  H   UNK N   1      35.531  14.395   7.693  0.00  0.00     0.210 HD
ENDBRANCH  17  22
BRANCH  18  24
HETATM   24  O   UNK N   1      37.197  15.843  10.741  0.00  0.00    -0.388 OA
HETATM   25  H   UNK N   1      37.282  16.519  11.431  0.00  0.00     0.210 HD
ENDBRANCH  18  24
ENDBRANCH   2  14
TORSDOF 5
ENDMDL
MODEL 3
REMARK VINA RESULT:      -5.7      7.255     11.826
REMARK  5 active torsions:
REMARK  status: ('A' for Active; 'I' for Inactive)
REMARK    1  A    between atoms: C_12  and  O_2 
REMARK    2  A    between atoms: C_14  and  O_3 
REMARK    3  A    between atoms: O_4  and  C_16 
REMARK    4  A    between atoms: C_13  and  N_6 
REMARK    5  A    between atoms: C_15  and  C_16 
ROOT
HETATM    1  O   UNK N   1      28.053  18.046   4.338  0.00  0.00    -0.266 OA
HETATM    2  N   UNK N   1      23.875  19.440   3.607  0.00  0.00    -0.297 N 
HETATM    3  N   UNK N   1      24.186  17.082   4.096  0.00  0.00    -0.336 N 
HETATM    4  N   UNK N   1      26.048  20.019   3.722  0.00  0.00    -0.345 N 
ATOM      5  HN  UNK N   1      26.907  20.567   3.702  1.00  0.00     0.167 HD
HETATM    6  N   UNK N   1      26.455  16.457   4.474  0.00  0.00    -0.318 N 
ATOM      7  HN  UNK N   1      27.139  15.736   4.698  1.00  0.00     0.169 HD
HETATM    8  C   UNK N   1      24.614  18.352   3.876  0.00  0.00     0.144 A 
HETATM    9  C   UNK N   1      24.772  20.459   3.523  0.00  0.00     0.188 A 
HETATM   10  C   UNK N   1      25.913  18.700   3.950  0.00  0.00     0.146 A 
HETATM   11  C   UNK N   1      26.874  17.751   4.254  0.00  0.00     0.277 A 
HETATM   12  C   UNK N   1      25.123  16.128   4.394  0.00  0.00     0.185 A 
HETATM   13  H   UNK N   1      23.230  16.854   4.040  0.00  0.00     0.168 HD
ENDROOT
BRANCH   2  14
HETATM   14  C   UNK N   1      22.417  19.565   3.505  0.00  0.00     0.262 C 
HETATM   15  O   UNK N   1      21.790  18.322   3.256  0.00  0.00    -0.353 OA
HETATM   16  C   UNK N   1      20.729  18.605   2.367  0.00  0.00     0.179 C 
HETATM   17  C   UNK N   1      20.564  20.109   2.329  0.00  0.00     0.182 C 
HETATM   18  C   UNK N   1      21.987  20.514   2.412  0.00  0.00     0.198 C 
BRANCH  16  19
HETATM   19  C   UNK N   1      19.452  17.926   2.840  0.00  0.00     0.198 C 
BRANCH  19  20
HETATM   20  O   UNK N   1      18.331  18.624   2.388  0.00  0.00    -0.398 OA
HETATM   21  H   UNK N   1      17.411  18.315   2.404  0.00  0.00     0.209 HD
ENDBRANCH  19  20
ENDBRANCH  16  19
BRANCH  17  22
HETATM   22  O   UNK N   1      19.974  20.542   1.142  0.00  0.00    -0.390 OA
HETATM   23  H   UNK N   1      20.050  21.310   0.554  0.00  0.00     0.210 HD
ENDBRANCH  17  22
BRANCH  18  24
HETATM   24  O   UNK N   1      22.099  21.841   2.831  0.00  0.00    -0.388 OA
HETATM   25  H   UNK N   1      22.504  22.128   3.664  0.00  0.00     0.210 HD
ENDBRANCH  18  24
ENDBRANCH   2  14
TORSDOF 5
ENDMDL
MODEL 4
REMARK VINA RESULT:      -5.7      9.430     11.991
REMARK  5 active torsions:
REMARK  status: ('A' for Active; 'I' for Inactive)
REMARK    1  A    between atoms: C_12  and  O_2 
REMARK    2  A    between atoms: C_14  and  O_3 
REMARK    3  A    between atoms: O_4  and  C_16 
REMARK    4  A    between atoms: C_13  and  N_6 
REMARK    5  A    between atoms: C_15  and  C_16 
ROOT
HETATM    1  O   UNK N   1      23.834  11.313  12.912  0.00  0.00    -0.266 OA
HETATM    2  N   UNK N   1      21.390  13.309   9.754  0.00  0.00    -0.297 N 
HETATM    3  N   UNK N   1      23.804  13.479   9.558  0.00  0.00    -0.336 N 
HETATM    4  N   UNK N   1      21.366  12.099  11.651  0.00  0.00    -0.345 N 
ATOM      5  HN  UNK N   1      21.040  11.578  12.465  1.00  0.00     0.167 HD
HETATM    6  N   UNK N   1      25.002  12.371  11.295  0.00  0.00    -0.318 N 
ATOM      7  HN  UNK N   1      25.892  12.105  11.713  1.00  0.00     0.169 HD
HETATM    8  C   UNK N   1      22.651  13.094  10.161  0.00  0.00     0.144 A 
HETATM    9  C   UNK N   1      20.612  12.683  10.677  0.00  0.00     0.188 A 
HETATM   10  C   UNK N   1      22.636  12.366  11.294  0.00  0.00     0.146 A 
HETATM   11  C   UNK N   1      23.824  11.983  11.894  0.00  0.00     0.277 A 
HETATM   12  C   UNK N   1      24.989  13.113  10.138  0.00  0.00     0.185 A 
HETATM   13  H   UNK N   1      23.788  14.008   8.728  0.00  0.00     0.168 HD
ENDROOT
BRANCH   2  14
HETATM   14  C   UNK N   1      20.913  13.987   8.542  0.00  0.00     0.262 C 
HETATM   15  O   UNK N   1      21.929  14.117   7.568  0.00  0.00    -0.353 OA
HETATM   16  C   UNK N   1      21.724  15.383   6.974  0.00  0.00     0.179 C 
HETATM   17  C   UNK N   1      20.367  15.876   7.426  0.00  0.00     0.182 C 
HETATM   18  C   UNK N   1      20.374  15.369   8.819  0.00  0.00     0.198 C 
BRANCH  16  19
HETATM   19  C   UNK N   1      21.788  15.269   5.458  0.00  0.00     0.198 C 
BRANCH  19  20
HETATM   20  O   UNK N   1      20.586  15.687   4.885  0.00  0.00    -0.398 OA
HETATM   21  H   UNK N   1      19.738  15.806   5.341  0.00  0.00     0.209 HD
ENDBRANCH  19  20
ENDBRANCH  16  19
BRANCH  17  22
HETATM   22  O   UNK N   1      20.274  17.267   7.385  0.00  0.00    -0.390 OA
HETATM   23  H   UNK N   1      19.622  17.939   7.640  0.00  0.00     0.210 HD
ENDBRANCH  17  22
BRANCH  18  24
HETATM   24  O   UNK N   1      19.075  15.305   9.327  0.00  0.00    -0.388 OA
HETATM   25  H   UNK N   1      18.314  14.930   8.859  0.00  0.00     0.210 HD
ENDBRANCH  18  24
ENDBRANCH   2  14
TORSDOF 5
ENDMDL
MODEL 5
REMARK VINA RESULT:      -5.7      8.834     11.086
REMARK  5 active torsions:
REMARK  status: ('A' for Active; 'I' for Inactive)
REMARK    1  A    between atoms: C_12  and  O_2 
REMARK    2  A    between atoms: C_14  and  O_3 
REMARK    3  A    between atoms: O_4  and  C_16 
REMARK    4  A    between atoms: C_13  and  N_6 
REMARK    5  A    between atoms: C_15  and  C_16 
ROOT
HETATM    1  O   UNK N   1      24.819  20.925   2.190  0.00  0.00    -0.266 OA
HETATM    2  N   UNK N   1      22.572  18.237   4.958  0.00  0.00    -0.297 N 
HETATM    3  N   UNK N   1      24.971  18.411   5.288  0.00  0.00    -0.336 N 
HETATM    4  N   UNK N   1      22.448  19.638   3.201  0.00  0.00    -0.345 N 
ATOM      5  HN  UNK N   1      22.083  20.194   2.427  1.00  0.00     0.167 HD
HETATM    6  N   UNK N   1      26.061  19.877   3.757  0.00  0.00    -0.318 N 
ATOM      7  HN  UNK N   1      26.917  20.320   3.427  1.00  0.00     0.169 HD
HETATM    8  C   UNK N   1      23.801  18.684   4.656  0.00  0.00     0.144 A 
HETATM    9  C   UNK N   1      21.750  18.840   4.058  0.00  0.00     0.188 A 
HETATM   10  C   UNK N   1      23.726  19.527   3.608  0.00  0.00     0.146 A 
HETATM   11  C   UNK N   1      24.866  20.150   3.129  0.00  0.00     0.277 A 
HETATM   12  C   UNK N   1      26.110  19.015   4.826  0.00  0.00     0.185 A 
HETATM   13  H   UNK N   1      24.999  17.795   6.055  0.00  0.00     0.168 HD
ENDROOT
BRANCH   2  14
HETATM   14  C   UNK N   1      22.151  17.362   6.058  0.00  0.00     0.262 C 
HETATM   15  O   UNK N   1      22.106  16.002   5.672  0.00  0.00    -0.353 OA
HETATM   16  C   UNK N   1      20.980  15.459   6.331  0.00  0.00     0.179 C 
HETATM   17  C   UNK N   1      20.529  16.474   7.359  0.00  0.00     0.182 C 
HETATM   18  C   UNK N   1      20.789  17.721   6.603  0.00  0.00     0.198 C 
BRANCH  16  19
HETATM   19  C   UNK N   1      21.344  14.137   6.989  0.00  0.00     0.198 C 
BRANCH  19  20
HETATM   20  O   UNK N   1      20.293  13.682   7.787  0.00  0.00    -0.398 OA
HETATM   21  H   UNK N   1      20.276  13.643   8.756  0.00  0.00     0.209 HD
ENDBRANCH  19  20
ENDBRANCH  16  19
BRANCH  17  22
HETATM   22  O   UNK N   1      19.177  16.335   7.673  0.00  0.00    -0.390 OA
HETATM   23  H   UNK N   1      18.498  16.866   8.120  0.00  0.00     0.210 HD
ENDBRANCH  17  22
BRANCH  18  24
HETATM   24  O   UNK N   1      20.871  18.814   7.467  0.00  0.00    -0.388 OA
HETATM   25  H   UNK N   1      20.114  19.237   7.900  0.00  0.00     0.210 HD
ENDBRANCH  18  24
ENDBRANCH   2  14
TORSDOF 5
ENDMDL
MODEL 6
REMARK VINA RESULT:      -5.6      7.955     10.864
REMARK  5 active torsions:
REMARK  status: ('A' for Active; 'I' for Inactive)
REMARK    1  A    between atoms: C_12  and  O_2 
REMARK    2  A    between atoms: C_14  and  O_3 
REMARK    3  A    between atoms: O_4  and  C_16 
REMARK    4  A    between atoms: C_13  and  N_6 
REMARK    5  A    between atoms: C_15  and  C_16 
ROOT
HETATM    1  O   UNK N   1      35.037  10.730  20.792  0.00  0.00    -0.266 OA
HETATM    2  N   UNK N   1      35.392  13.029  16.982  0.00  0.00    -0.297 N 
HETATM    3  N   UNK N   1      35.268  10.611  16.808  0.00  0.00    -0.336 N 
HETATM    4  N   UNK N   1      35.278  13.136  19.227  0.00  0.00    -0.345 N 
ATOM      5  HN  UNK N   1      35.250  13.497  20.180  1.00  0.00     0.167 HD
HETATM    6  N   UNK N   1      35.074   9.493  18.904  0.00  0.00    -0.318 N 
ATOM      7  HN  UNK N   1      34.985   8.623  19.428  1.00  0.00     0.169 HD
HETATM    8  C   UNK N   1      35.314  11.787  17.484  0.00  0.00     0.144 A 
HETATM    9  C   UNK N   1      35.359  13.848  18.067  0.00  0.00     0.188 A 
HETATM   10  C   UNK N   1      35.241  11.851  18.828  0.00  0.00     0.146 A 
HETATM   11  C   UNK N   1      35.118  10.694  19.577  0.00  0.00     0.277 A 
HETATM   12  C   UNK N   1      35.149   9.454  17.532  0.00  0.00     0.185 A 
HETATM   13  H   UNK N   1      35.318  10.591  15.825  0.00  0.00     0.168 HD
ENDROOT
BRANCH   2  14
HETATM   14  C   UNK N   1      35.418  13.459  15.578  0.00  0.00     0.262 C 
HETATM   15  O   UNK N   1      34.655  12.608  14.745  0.00  0.00    -0.353 OA
HETATM   16  C   UNK N   1      35.380  12.514  13.536  0.00  0.00     0.179 C 
HETATM   17  C   UNK N   1      36.455  13.579  13.573  0.00  0.00     0.182 C 
HETATM   18  C   UNK N   1      36.815  13.514  15.009  0.00  0.00     0.198 C 
BRANCH  16  19
HETATM   19  C   UNK N   1      34.450  12.716  12.349  0.00  0.00     0.198 C 
BRANCH  19  20
HETATM   20  O   UNK N   1      34.466  14.049  11.936  0.00  0.00    -0.398 OA
HETATM   21  H   UNK N   1      33.866  14.464  11.297  0.00  0.00     0.209 HD
ENDBRANCH  19  20
ENDBRANCH  16  19
BRANCH  17  22
HETATM   22  O   UNK N   1      37.538  13.258  12.756  0.00  0.00    -0.390 OA
HETATM   23  H   UNK N   1      38.447  13.576  12.631  0.00  0.00     0.210 HD
ENDBRANCH  17  22
BRANCH  18  24
HETATM   24  O   UNK N   1      37.470  14.681  15.407  0.00  0.00    -0.388 OA
HETATM   25  H   UNK N   1      37.054  15.553  15.479  0.00  0.00     0.210 HD
ENDBRANCH  18  24
ENDBRANCH   2  14
TORSDOF 5
ENDMDL
MODEL 7
REMARK VINA RESULT:      -5.5      3.125      4.628
REMARK  5 active torsions:
REMARK  status: ('A' for Active; 'I' for Inactive)
REMARK    1  A    between atoms: C_12  and  O_2 
REMARK    2  A    between atoms: C_14  and  O_3 
REMARK    3  A    between atoms: O_4  and  C_16 
REMARK    4  A    between atoms: C_13  and  N_6 
REMARK    5  A    between atoms: C_15  and  C_16 
ROOT
HETATM    1  O   UNK N   1      33.650  17.053   5.152  0.00  0.00    -0.266 OA
HETATM    2  N   UNK N   1      35.315  15.124   8.818  0.00  0.00    -0.297 N 
HETATM    3  N   UNK N   1      33.837  17.023   9.140  0.00  0.00    -0.336 N 
HETATM    4  N   UNK N   1      35.245  15.117   6.568  0.00  0.00    -0.345 N 
ATOM      5  HN  UNK N   1      35.412  14.868   5.594  1.00  0.00     0.167 HD
HETATM    6  N   UNK N   1      33.006  17.965   7.114  0.00  0.00    -0.318 N 
ATOM      7  HN  UNK N   1      32.428  18.660   6.644  1.00  0.00     0.169 HD
HETATM    8  C   UNK N   1      34.534  16.130   8.393  0.00  0.00     0.144 A 
HETATM    9  C   UNK N   1      35.737  14.506   7.683  0.00  0.00     0.188 A 
HETATM   10  C   UNK N   1      34.489  16.123   7.046  0.00  0.00     0.146 A 
HETATM   11  C   UNK N   1      33.716  17.050   6.368  0.00  0.00     0.277 A 
HETATM   12  C   UNK N   1      33.068  17.950   8.487  0.00  0.00     0.185 A 
HETATM   13  H   UNK N   1      33.883  17.005  10.123  0.00  0.00     0.168 HD
ENDROOT
BRANCH   2  14
HETATM   14  C   UNK N   1      35.604  14.696  10.192  0.00  0.00     0.262 C 
HETATM   15  O   UNK N   1      36.662  13.758  10.247  0.00  0.00    -0.353 OA
HETATM   16  C   UNK N   1      36.298  12.838  11.255  0.00  0.00     0.179 C 
HETATM   17  C   UNK N   1      35.125  13.432  12.004  0.00  0.00     0.182 C 
HETATM   18  C   UNK N   1      34.411  14.070  10.873  0.00  0.00     0.198 C 
BRANCH  16  19
HETATM   19  C   UNK N   1      37.474  12.590  12.189  0.00  0.00     0.198 C 
BRANCH  19  20
HETATM   20  O   UNK N   1      37.188  13.062  13.471  0.00  0.00    -0.398 OA
HETATM   21  H   UNK N   1      37.222  13.984  13.769  0.00  0.00     0.209 HD
ENDBRANCH  19  20
ENDBRANCH  16  19
BRANCH  17  22
HETATM   22  O   UNK N   1      34.344  12.452  12.617  0.00  0.00    -0.390 OA
HETATM   23  H   UNK N   1      34.364  11.951  13.448  0.00  0.00     0.210 HD
ENDBRANCH  17  22
BRANCH  18  24
HETATM   24  O   UNK N   1      33.531  15.050  11.335  0.00  0.00    -0.388 OA
HETATM   25  H   UNK N   1      32.640  15.207  10.985  0.00  0.00     0.210 HD
ENDBRANCH  18  24
ENDBRANCH   2  14
TORSDOF 5
ENDMDL
MODEL 8
REMARK VINA RESULT:      -5.5      3.552      6.711
REMARK  5 active torsions:
REMARK  status: ('A' for Active; 'I' for Inactive)
REMARK    1  A    between atoms: C_12  and  O_2 
REMARK    2  A    between atoms: C_14  and  O_3 
REMARK    3  A    between atoms: O_4  and  C_16 
REMARK    4  A    between atoms: C_13  and  N_6 
REMARK    5  A    between atoms: C_15  and  C_16 
ROOT
HETATM    1  O   UNK N   1      37.260  11.373  12.344  0.00  0.00    -0.266 OA
HETATM    2  N   UNK N   1      34.725  14.465  10.359  0.00  0.00    -0.297 N 
HETATM    3  N   UNK N   1      35.606  15.000  12.557  0.00  0.00    -0.336 N 
HETATM    4  N   UNK N   1      35.629  12.410  10.208  0.00  0.00    -0.345 N 
ATOM      5  HN  UNK N   1      35.886  11.487   9.859  1.00  0.00     0.167 HD
HETATM    6  N   UNK N   1      36.949  13.279  13.513  0.00  0.00    -0.318 N 
ATOM      7  HN  UNK N   1      37.524  12.943  14.284  1.00  0.00     0.169 HD
HETATM    8  C   UNK N   1      35.412  14.197  11.481  0.00  0.00     0.144 A 
HETATM    9  C   UNK N   1      34.876  13.359   9.583  0.00  0.00     0.188 A 
HETATM   10  C   UNK N   1      35.957  12.968  11.388  0.00  0.00     0.146 A 
HETATM   11  C   UNK N   1      36.747  12.475  12.412  0.00  0.00     0.277 A 
HETATM   12  C   UNK N   1      36.382  14.529  13.583  0.00  0.00     0.185 A 
HETATM   13  H   UNK N   1      35.200  15.896  12.598  0.00  0.00     0.168 HD
ENDROOT
BRANCH   2  14
HETATM   14  C   UNK N   1      34.026  15.698   9.975  0.00  0.00     0.262 C 
HETATM   15  O   UNK N   1      32.987  15.455   9.048  0.00  0.00    -0.353 OA
HETATM   16  C   UNK N   1      33.013  16.552   8.156  0.00  0.00     0.179 C 
HETATM   17  C   UNK N   1      33.914  17.604   8.766  0.00  0.00     0.182 C 
HETATM   18  C   UNK N   1      34.947  16.726   9.363  0.00  0.00     0.198 C 
BRANCH  16  19
HETATM   19  C   UNK N   1      31.606  17.091   7.946  0.00  0.00     0.198 C 
BRANCH  19  20
HETATM   20  O   UNK N   1      31.230  17.908   9.013  0.00  0.00    -0.398 OA
HETATM   21  H   UNK N   1      31.773  18.139   9.784  0.00  0.00     0.209 HD
ENDBRANCH  19  20
ENDBRANCH  16  19
BRANCH  17  22
HETATM   22  O   UNK N   1      34.456  18.452   7.800  0.00  0.00    -0.390 OA
HETATM   23  H   UNK N   1      34.125  18.969   7.048  0.00  0.00     0.210 HD
ENDBRANCH  17  22
BRANCH  18  24
HETATM   24  O   UNK N   1      35.661  17.406  10.351  0.00  0.00    -0.388 OA
HETATM   25  H   UNK N   1      35.457  18.300  10.668  0.00  0.00     0.210 HD
ENDBRANCH  18  24
ENDBRANCH   2  14
TORSDOF 5
ENDMDL
MODEL 9
REMARK VINA RESULT:      -5.5      2.690      5.808
REMARK  5 active torsions:
REMARK  status: ('A' for Active; 'I' for Inactive)
REMARK    1  A    between atoms: C_12  and  O_2 
REMARK    2  A    between atoms: C_14  and  O_3 
REMARK    3  A    between atoms: O_4  and  C_16 
REMARK    4  A    between atoms: C_13  and  N_6 
REMARK    5  A    between atoms: C_15  and  C_16 
ROOT
HETATM    1  O   UNK N   1      35.187  13.441  11.800  0.00  0.00    -0.266 OA
HETATM    2  N   UNK N   1      33.001  15.618   8.573  0.00  0.00    -0.297 N 
HETATM    3  N   UNK N   1      34.541  16.910   9.933  0.00  0.00    -0.336 N 
HETATM    4  N   UNK N   1      33.327  13.646   9.609  0.00  0.00    -0.345 N 
ATOM      5  HN  UNK N   1      33.259  12.661   9.863  1.00  0.00     0.167 HD
HETATM    6  N   UNK N   1      35.654  15.642  11.616  0.00  0.00    -0.318 N 
ATOM      7  HN  UNK N   1      36.322  15.601  12.385  1.00  0.00     0.169 HD
HETATM    8  C   UNK N   1      33.883  15.780   9.572  0.00  0.00     0.144 A 
HETATM    9  C   UNK N   1      32.676  14.298   8.604  0.00  0.00     0.188 A 
HETATM   10  C   UNK N   1      34.082  14.599  10.188  0.00  0.00     0.146 A 
HETATM   11  C   UNK N   1      34.981  14.501  11.236  0.00  0.00     0.277 A 
HETATM   12  C   UNK N   1      35.434  16.834  10.970  0.00  0.00     0.185 A 
HETATM   13  H   UNK N   1      34.381  17.760   9.463  0.00  0.00     0.168 HD
ENDROOT
BRANCH   2  14
HETATM   14  C   UNK N   1      32.531  16.598   7.586  0.00  0.00     0.262 C 
HETATM   15  O   UNK N   1      31.255  16.268   7.072  0.00  0.00    -0.353 OA
HETATM   16  C   UNK N   1      31.297  16.620   5.704  0.00  0.00     0.179 C 
HETATM   17  C   UNK N   1      32.546  17.448   5.492  0.00  0.00     0.182 C 
HETATM   18  C   UNK N   1      33.468  16.741   6.412  0.00  0.00     0.198 C 
BRANCH  16  19
HETATM   19  C   UNK N   1      30.050  17.404   5.325  0.00  0.00     0.198 C 
BRANCH  19  20
HETATM   20  O   UNK N   1      30.157  17.894   4.023  0.00  0.00    -0.398 OA
HETATM   21  H   UNK N   1      29.469  17.875   3.338  0.00  0.00     0.209 HD
ENDBRANCH  19  20
ENDBRANCH  16  19
BRANCH  17  22
HETATM   22  O   UNK N   1      32.993  17.392   4.172  0.00  0.00    -0.390 OA
HETATM   23  H   UNK N   1      33.808  17.612   3.692  0.00  0.00     0.210 HD
ENDBRANCH  17  22
BRANCH  18  24
HETATM   24  O   UNK N   1      34.556  17.552   6.739  0.00  0.00    -0.388 OA
HETATM   25  H   UNK N   1      35.450  17.230   6.932  0.00  0.00     0.210 HD
ENDBRANCH  18  24
ENDBRANCH   2  14
TORSDOF 5
ENDMDL
