MODEL 1
REMARK VINA RESULT:      -7.8      0.000      0.000
REMARK  6 active torsions:
REMARK  status: ('A' for Active; 'I' for Inactive)
REMARK    1  A    between atoms: O_4  and  C_20 
REMARK    2  A    between atoms: N_6  and  C_14 
REMARK       I    between atoms: N_7  and  C_17 
REMARK    3  A    between atoms: N_7  and  C_21 
REMARK    4  A    between atoms: C_12  and  C_17 
REMARK    5  A    between atoms: C_14  and  C_20 
REMARK    6  A    between atoms: C_22  and  C_23 
ROOT
HETATM    1  O   UNK N   1      33.654  13.889   9.659  0.00  0.00    -0.266 OA
HETATM    2  N   UNK N   1      35.716  14.741   9.457  0.00  0.00    -0.302 N 
HETATM    3  C   UNK N   1      34.444  14.555   9.005  0.00  0.00     0.274 C 
HETATM    4  H   UNK N   1      36.293  15.419   9.031  0.00  0.00     0.171 HD
ENDROOT
BRANCH   3   5
HETATM    5  C   UNK N   1      34.011  15.052   7.687  0.00  0.00     0.105 A 
HETATM    6  N   UNK N   1      33.571  16.299   7.388  0.00  0.00    -0.332 N 
HETATM    7  C   UNK N   1      33.415  16.331   6.051  0.00  0.00     0.045 A 
HETATM    8  C   UNK N   1      33.732  15.114   5.510  0.00  0.00    -0.007 A 
HETATM    9  C   UNK N   1      33.029  17.406   5.251  0.00  0.00     0.030 A 
HETATM   10  C   UNK N   1      34.107  14.275   6.531  0.00  0.00     0.049 A 
HETATM   11  C   UNK N   1      33.686  14.877   4.141  0.00  0.00     0.014 A 
HETATM   12  C   UNK N   1      33.302  15.939   3.307  0.00  0.00     0.001 A 
HETATM   13  C   UNK N   1      32.975  17.200   3.859  0.00  0.00     0.002 A 
BRANCH   6  14
HETATM   14  C   UNK N   1      33.347  17.404   8.319  0.00  0.00     0.239 C 
BRANCH  14  15
HETATM   15  C   UNK N   1      34.638  18.101   8.628  0.00  0.00     0.158 C 
HETATM   16  O   UNK N   1      35.074  18.957   7.876  0.00  0.00    -0.649 OA
BRANCH  15  17
HETATM   17  O   UNK N   1      35.320  17.779   9.742  0.00  0.00    -0.775 OA
HETATM   18  H   UNK N   1      35.329  18.331  10.500  0.00  0.00     0.167 HD
ENDBRANCH  15  17
ENDBRANCH  14  15
ENDBRANCH   6  14
ENDBRANCH   3   5
BRANCH   2  19
HETATM   19  C   UNK N   1      36.219  13.965  10.535  0.00  0.00     0.151 A 
HETATM   20  S   UNK N   1      37.352  12.774  10.468  0.00  0.00    -0.063 SA
HETATM   21  C   UNK N   1      37.335  12.358  12.085  0.00  0.00     0.083 A 
HETATM   22  C   UNK N   1      36.354  13.198  12.669  0.00  0.00     0.052 A 
HETATM   23  N   UNK N   1      35.753  14.071  11.798  0.00  0.00    -0.335 N 
ATOM     24  HN  UNK N   1      35.030  14.734  12.077  1.00  0.00     0.168 HD
BRANCH  22  25
HETATM   25  C   UNK N   1      35.997  13.175  14.113  0.00  0.00     0.013 A 
HETATM   26  C   UNK N   1      34.988  12.321  14.649  0.00  0.00     0.046 A 
HETATM   27 Cl   UNK N   1      34.087  11.151  13.689  0.00  0.00    -0.083 Cl
HETATM   28  C   UNK N   1      34.692  12.369  16.015  0.00  0.00     0.025 A 
HETATM   29  C   UNK N   1      35.369  13.247  16.859  0.00  0.00     0.002 A 
HETATM   30  C   UNK N   1      36.362  14.080  16.346  0.00  0.00     0.001 A 
HETATM   31  C   UNK N   1      36.676  14.041  14.985  0.00  0.00     0.015 A 
ENDBRANCH  22  25
ENDBRANCH   2  19
TORSDOF 6
ENDMDL
MODEL 2
REMARK VINA RESULT:      -7.7      2.564      3.323
REMARK  6 active torsions:
REMARK  status: ('A' for Active; 'I' for Inactive)
REMARK    1  A    between atoms: O_4  and  C_20 
REMARK    2  A    between atoms: N_6  and  C_14 
REMARK       I    between atoms: N_7  and  C_17 
REMARK    3  A    between atoms: N_7  and  C_21 
REMARK    4  A    between atoms: C_12  and  C_17 
REMARK    5  A    between atoms: C_14  and  C_20 
REMARK    6  A    between atoms: C_22  and  C_23 
ROOT
HETATM    1  O   UNK N   1      32.028  14.717   9.341  0.00  0.00    -0.266 OA
HETATM    2  N   UNK N   1      33.457  16.439   9.471  0.00  0.00    -0.302 N 
HETATM    3  C   UNK N   1      32.287  15.877   9.054  0.00  0.00     0.274 C 
HETATM    4  H   UNK N   1      33.585  17.414   9.400  0.00  0.00     0.171 HD
ENDROOT
BRANCH   3   5
HETATM    5  C   UNK N   1      31.356  16.599   8.168  0.00  0.00     0.105 A 
HETATM    6  N   UNK N   1      31.449  16.736   6.822  0.00  0.00    -0.332 N 
HETATM    7  C   UNK N   1      30.319  17.355   6.430  0.00  0.00     0.045 A 
HETATM    8  C   UNK N   1      29.529  17.626   7.515  0.00  0.00    -0.007 A 
HETATM    9  C   UNK N   1      29.916  17.678   5.135  0.00  0.00     0.030 A 
HETATM   10  C   UNK N   1      30.169  17.163   8.639  0.00  0.00     0.049 A 
HETATM   11  C   UNK N   1      28.286  18.238   7.392  0.00  0.00     0.014 A 
HETATM   12  C   UNK N   1      27.850  18.575   6.100  0.00  0.00     0.001 A 
HETATM   13  C   UNK N   1      28.660  18.296   4.975  0.00  0.00     0.002 A 
BRANCH   6  14
HETATM   14  C   UNK N   1      32.534  16.272   5.960  0.00  0.00     0.239 C 
BRANCH  14  15
HETATM   15  C   UNK N   1      33.533  17.367   5.737  0.00  0.00     0.158 C 
HETATM   16  O   UNK N   1      33.489  18.049   4.726  0.00  0.00    -0.649 OA
BRANCH  15  17
HETATM   17  O   UNK N   1      34.486  17.599   6.658  0.00  0.00    -0.775 OA
HETATM   18  H   UNK N   1      34.285  17.734   7.563  0.00  0.00     0.167 HD
ENDBRANCH  15  17
ENDBRANCH  14  15
ENDBRANCH   6  14
ENDBRANCH   3   5
BRANCH   2  19
HETATM   19  C   UNK N   1      34.494  15.629  10.008  0.00  0.00     0.151 A 
HETATM   20  S   UNK N   1      35.779  14.988   9.206  0.00  0.00    -0.063 SA
HETATM   21  C   UNK N   1      36.457  14.167  10.492  0.00  0.00     0.083 A 
HETATM   22  C   UNK N   1      35.584  14.407  11.582  0.00  0.00     0.052 A 
HETATM   23  N   UNK N   1      34.511  15.212  11.292  0.00  0.00    -0.335 N 
ATOM     24  HN  UNK N   1      33.801  15.469  11.976  1.00  0.00     0.168 HD
BRANCH  22  25
HETATM   25  C   UNK N   1      35.798  13.863  12.950  0.00  0.00     0.013 A 
HETATM   26  C   UNK N   1      35.352  12.568  13.348  0.00  0.00     0.046 A 
HETATM   27 Cl   UNK N   1      34.554  11.433  12.263  0.00  0.00    -0.083 Cl
HETATM   28  C   UNK N   1      35.571  12.132  14.659  0.00  0.00     0.025 A 
HETATM   29  C   UNK N   1      36.214  12.952  15.584  0.00  0.00     0.002 A 
HETATM   30  C   UNK N   1      36.660  14.216  15.202  0.00  0.00     0.001 A 
HETATM   31  C   UNK N   1      36.457  14.666  13.895  0.00  0.00     0.015 A 
ENDBRANCH  22  25
ENDBRANCH   2  19
TORSDOF 6
ENDMDL
MODEL 3
REMARK VINA RESULT:      -7.5      2.123      3.348
REMARK  6 active torsions:
REMARK  status: ('A' for Active; 'I' for Inactive)
REMARK    1  A    between atoms: O_4  and  C_20 
REMARK    2  A    between atoms: N_6  and  C_14 
REMARK       I    between atoms: N_7  and  C_17 
REMARK    3  A    between atoms: N_7  and  C_21 
REMARK    4  A    between atoms: C_12  and  C_17 
REMARK    5  A    between atoms: C_14  and  C_20 
REMARK    6  A    between atoms: C_22  and  C_23 
ROOT
HETATM    1  O   UNK N   1      34.236  14.902  11.496  0.00  0.00    -0.266 OA
HETATM    2  N   UNK N   1      36.401  14.542  11.043  0.00  0.00    -0.302 N 
HETATM    3  C   UNK N   1      35.155  14.967  10.692  0.00  0.00     0.274 C 
HETATM    4  H   UNK N   1      37.173  14.759  10.470  0.00  0.00     0.171 HD
ENDROOT
BRANCH   3   5
HETATM    5  C   UNK N   1      34.850  15.416   9.321  0.00  0.00     0.105 A 
HETATM    6  N   UNK N   1      34.689  14.636   8.223  0.00  0.00    -0.332 N 
HETATM    7  C   UNK N   1      34.298  15.460   7.232  0.00  0.00     0.045 A 
HETATM    8  C   UNK N   1      34.231  16.749   7.691  0.00  0.00    -0.007 A 
HETATM    9  C   UNK N   1      33.956  15.134   5.921  0.00  0.00     0.030 A 
HETATM   10  C   UNK N   1      34.587  16.752   9.017  0.00  0.00     0.049 A 
HETATM   11  C   UNK N   1      33.824  17.803   6.880  0.00  0.00     0.014 A 
HETATM   12  C   UNK N   1      33.472  17.507   5.553  0.00  0.00     0.001 A 
HETATM   13  C   UNK N   1      33.536  16.178   5.075  0.00  0.00     0.002 A 
BRANCH   6  14
HETATM   14  C   UNK N   1      34.864  13.187   8.135  0.00  0.00     0.239 C 
BRANCH  14  15
HETATM   15  C   UNK N   1      33.683  12.478   8.726  0.00  0.00     0.158 C 
HETATM   16  O   UNK N   1      32.688  12.267   8.053  0.00  0.00    -0.649 OA
BRANCH  15  17
HETATM   17  O   UNK N   1      33.722  12.071  10.008  0.00  0.00    -0.775 OA
HETATM   18  H   UNK N   1      34.409  12.326  10.593  0.00  0.00     0.167 HD
ENDBRANCH  15  17
ENDBRANCH  14  15
ENDBRANCH   6  14
ENDBRANCH   3   5
BRANCH   2  19
HETATM   19  C   UNK N   1      36.596  13.786  12.231  0.00  0.00     0.151 A 
HETATM   20  S   UNK N   1      37.251  12.283  12.363  0.00  0.00    -0.063 SA
HETATM   21  C   UNK N   1      37.076  12.108  14.015  0.00  0.00     0.083 A 
HETATM   22  C   UNK N   1      36.438  13.298  14.444  0.00  0.00     0.052 A 
HETATM   23  N   UNK N   1      36.182  14.204  13.446  0.00  0.00    -0.335 N 
ATOM     24  HN  UNK N   1      35.728  15.103  13.606  1.00  0.00     0.168 HD
BRANCH  22  25
HETATM   25  C   UNK N   1      36.080  13.582  15.860  0.00  0.00     0.013 A 
HETATM   26  C   UNK N   1      36.552  14.731  16.562  0.00  0.00     0.046 A 
HETATM   27 Cl   UNK N   1      37.557  15.979  15.831  0.00  0.00    -0.083 Cl
HETATM   28  C   UNK N   1      36.190  14.923  17.899  0.00  0.00     0.025 A 
HETATM   29  C   UNK N   1      35.379  14.000  18.557  0.00  0.00     0.002 A 
HETATM   30  C   UNK N   1      34.908  12.878  17.876  0.00  0.00     0.001 A 
HETATM   31  C   UNK N   1      35.252  12.674  16.538  0.00  0.00     0.015 A 
ENDBRANCH  22  25
ENDBRANCH   2  19
TORSDOF 6
ENDMDL
MODEL 4
REMARK VINA RESULT:      -7.4     10.384     12.729
REMARK  6 active torsions:
REMARK  status: ('A' for Active; 'I' for Inactive)
REMARK    1  A    between atoms: O_4  and  C_20 
REMARK    2  A    between atoms: N_6  and  C_14 
REMARK       I    between atoms: N_7  and  C_17 
REMARK    3  A    between atoms: N_7  and  C_21 
REMARK    4  A    between atoms: C_12  and  C_17 
REMARK    5  A    between atoms: C_14  and  C_20 
REMARK    6  A    between atoms: C_22  and  C_23 
ROOT
HETATM    1  O   UNK N   1      23.376  18.375   5.829  0.00  0.00    -0.266 OA
HETATM    2  N   UNK N   1      24.607  19.067   4.088  0.00  0.00    -0.302 N 
HETATM    3  C   UNK N   1      23.539  18.406   4.617  0.00  0.00     0.274 C 
HETATM    4  H   UNK N   1      24.640  19.248   3.120  0.00  0.00     0.171 HD
ENDROOT
BRANCH   3   5
HETATM    5  C   UNK N   1      22.614  17.630   3.771  0.00  0.00     0.105 A 
HETATM    6  N   UNK N   1      21.517  18.093   3.122  0.00  0.00    -0.332 N 
HETATM    7  C   UNK N   1      21.062  17.067   2.377  0.00  0.00     0.045 A 
HETATM    8  C   UNK N   1      21.849  15.962   2.566  0.00  0.00    -0.007 A 
HETATM    9  C   UNK N   1      19.985  17.053   1.492  0.00  0.00     0.030 A 
HETATM   10  C   UNK N   1      22.841  16.289   3.458  0.00  0.00     0.049 A 
HETATM   11  C   UNK N   1      21.620  14.767   1.894  0.00  0.00     0.014 A 
HETATM   12  C   UNK N   1      20.543  14.720   0.994  0.00  0.00     0.001 A 
HETATM   13  C   UNK N   1      19.729  15.858   0.792  0.00  0.00     0.002 A 
BRANCH   6  14
HETATM   14  C   UNK N   1      20.958  19.442   3.183  0.00  0.00     0.239 C 
BRANCH  14  15
HETATM   15  C   UNK N   1      21.718  20.368   2.283  0.00  0.00     0.158 C 
HETATM   16  O   UNK N   1      21.494  20.388   1.084  0.00  0.00    -0.649 OA
BRANCH  15  17
HETATM   17  O   UNK N   1      22.656  21.182   2.802  0.00  0.00    -0.775 OA
HETATM   18  H   UNK N   1      22.999  21.915   2.329  0.00  0.00     0.167 HD
ENDBRANCH  15  17
ENDBRANCH  14  15
ENDBRANCH   6  14
ENDBRANCH   3   5
BRANCH   2  19
HETATM   19  C   UNK N   1      25.673  19.497   4.923  0.00  0.00     0.151 A 
HETATM   20  S   UNK N   1      26.241  21.029   5.111  0.00  0.00    -0.063 SA
HETATM   21  C   UNK N   1      27.477  20.680   6.178  0.00  0.00     0.083 A 
HETATM   22  C   UNK N   1      27.429  19.274   6.347  0.00  0.00     0.052 A 
HETATM   23  N   UNK N   1      26.431  18.645   5.646  0.00  0.00    -0.335 N 
ATOM     24  HN  UNK N   1      26.277  17.638   5.670  1.00  0.00     0.168 HD
BRANCH  22  25
HETATM   25  C   UNK N   1      28.358  18.513   7.224  0.00  0.00     0.013 A 
HETATM   26  C   UNK N   1      29.411  17.695   6.715  0.00  0.00     0.046 A 
HETATM   27 Cl   UNK N   1      29.779  17.532   5.000  0.00  0.00    -0.083 Cl
HETATM   28  C   UNK N   1      30.232  16.991   7.601  0.00  0.00     0.025 A 
HETATM   29  C   UNK N   1      30.031  17.075   8.978  0.00  0.00     0.002 A 
HETATM   30  C   UNK N   1      29.011  17.878   9.484  0.00  0.00     0.001 A 
HETATM   31  C   UNK N   1      28.184  18.594   8.615  0.00  0.00     0.015 A 
ENDBRANCH  22  25
ENDBRANCH   2  19
TORSDOF 6
ENDMDL
MODEL 5
REMARK VINA RESULT:      -7.3      3.165      9.546
REMARK  6 active torsions:
REMARK  status: ('A' for Active; 'I' for Inactive)
REMARK    1  A    between atoms: O_4  and  C_20 
REMARK    2  A    between atoms: N_6  and  C_14 
REMARK       I    between atoms: N_7  and  C_17 
REMARK    3  A    between atoms: N_7  and  C_21 
REMARK    4  A    between atoms: C_12  and  C_17 
REMARK    5  A    between atoms: C_14  and  C_20 
REMARK    6  A    between atoms: C_22  and  C_23 
ROOT
HETATM    1  O   UNK N   1      36.097  14.262  13.676  0.00  0.00    -0.266 OA
HETATM    2  N   UNK N   1      34.592  12.809  12.870  0.00  0.00    -0.302 N 
HETATM    3  C   UNK N   1      35.354  13.313  13.882  0.00  0.00     0.274 C 
HETATM    4  H   UNK N   1      33.867  12.173  13.073  0.00  0.00     0.171 HD
ENDROOT
BRANCH   3   5
HETATM    5  C   UNK N   1      35.389  12.678  15.212  0.00  0.00     0.105 A 
HETATM    6  N   UNK N   1      35.914  11.467  15.525  0.00  0.00    -0.332 N 
HETATM    7  C   UNK N   1      35.838  11.362  16.866  0.00  0.00     0.045 A 
HETATM    8  C   UNK N   1      35.255  12.483  17.395  0.00  0.00    -0.007 A 
HETATM    9  C   UNK N   1      36.292  10.324  17.678  0.00  0.00     0.030 A 
HETATM   10  C   UNK N   1      34.949  13.335  16.362  0.00  0.00     0.049 A 
HETATM   11  C   UNK N   1      35.078  12.650  18.763  0.00  0.00     0.014 A 
HETATM   12  C   UNK N   1      35.526  11.623  19.610  0.00  0.00     0.001 A 
HETATM   13  C   UNK N   1      36.132  10.464  19.071  0.00  0.00     0.002 A 
BRANCH   6  14
HETATM   14  C   UNK N   1      36.484  10.486  14.605  0.00  0.00     0.239 C 
BRANCH  14  15
HETATM   15  C   UNK N   1      37.930  10.787  14.345  0.00  0.00     0.158 C 
HETATM   16  O   UNK N   1      38.801  10.045  14.768  0.00  0.00    -0.649 OA
BRANCH  15  17
HETATM   17  O   UNK N   1      38.268  11.883  13.642  0.00  0.00    -0.775 OA
HETATM   18  H   UNK N   1      37.829  12.124  12.849  0.00  0.00     0.167 HD
ENDBRANCH  15  17
ENDBRANCH  14  15
ENDBRANCH   6  14
ENDBRANCH   3   5
BRANCH   2  19
HETATM   19  C   UNK N   1      34.836  13.195  11.525  0.00  0.00     0.151 A 
HETATM   20  S   UNK N   1      35.805  12.443  10.429  0.00  0.00    -0.063 SA
HETATM   21  C   UNK N   1      35.586  13.513   9.165  0.00  0.00     0.083 A 
HETATM   22  C   UNK N   1      34.728  14.516   9.680  0.00  0.00     0.052 A 
HETATM   23  N   UNK N   1      34.330  14.321  10.978  0.00  0.00    -0.335 N 
ATOM     24  HN  UNK N   1      33.713  14.961  11.479  1.00  0.00     0.168 HD
BRANCH  22  25
HETATM   25  C   UNK N   1      34.257  15.688   8.893  0.00  0.00     0.013 A 
HETATM   26  C   UNK N   1      33.280  15.585   7.859  0.00  0.00     0.046 A 
HETATM   27 Cl   UNK N   1      32.467  14.083   7.427  0.00  0.00    -0.083 Cl
HETATM   28  C   UNK N   1      32.901  16.728   7.147  0.00  0.00     0.025 A 
HETATM   29  C   UNK N   1      33.474  17.966   7.432  0.00  0.00     0.002 A 
HETATM   30  C   UNK N   1      34.423  18.077   8.446  0.00  0.00     0.001 A 
HETATM   31  C   UNK N   1      34.809  16.948   9.173  0.00  0.00     0.015 A 
ENDBRANCH  22  25
ENDBRANCH   2  19
TORSDOF 6
ENDMDL
MODEL 6
REMARK VINA RESULT:      -7.3      2.471      3.317
REMARK  6 active torsions:
REMARK  status: ('A' for Active; 'I' for Inactive)
REMARK    1  A    between atoms: O_4  and  C_20 
REMARK    2  A    between atoms: N_6  and  C_14 
REMARK       I    between atoms: N_7  and  C_17 
REMARK    3  A    between atoms: N_7  and  C_21 
REMARK    4  A    between atoms: C_12  and  C_17 
REMARK    5  A    between atoms: C_14  and  C_20 
REMARK    6  A    between atoms: C_22  and  C_23 
ROOT
HETATM    1  O   UNK N   1      34.178  16.020   9.665  0.00  0.00    -0.266 OA
HETATM    2  N   UNK N   1      33.505  14.023   8.902  0.00  0.00    -0.302 N 
HETATM    3  C   UNK N   1      33.394  15.379   8.978  0.00  0.00     0.274 C 
HETATM    4  H   UNK N   1      32.999  13.528   8.216  0.00  0.00     0.171 HD
ENDROOT
BRANCH   3   5
HETATM    5  C   UNK N   1      32.282  16.101   8.334  0.00  0.00     0.105 A 
HETATM    6  N   UNK N   1      32.071  16.256   7.003  0.00  0.00    -0.332 N 
HETATM    7  C   UNK N   1      30.877  16.867   6.882  0.00  0.00     0.045 A 
HETATM    8  C   UNK N   1      30.346  17.114   8.120  0.00  0.00    -0.007 A 
HETATM    9  C   UNK N   1      30.192  17.201   5.715  0.00  0.00     0.030 A 
HETATM   10  C   UNK N   1      31.225  16.646   9.066  0.00  0.00     0.049 A 
HETATM   11  C   UNK N   1      29.103  17.713   8.287  0.00  0.00     0.014 A 
HETATM   12  C   UNK N   1      28.386  18.061   7.130  0.00  0.00     0.001 A 
HETATM   13  C   UNK N   1      28.927  17.805   5.849  0.00  0.00     0.002 A 
BRANCH   6  14
HETATM   14  C   UNK N   1      32.940  15.816   5.914  0.00  0.00     0.239 C 
BRANCH  14  15
HETATM   15  C   UNK N   1      34.239  16.564   5.942  0.00  0.00     0.158 C 
HETATM   16  O   UNK N   1      35.300  15.964   5.884  0.00  0.00    -0.649 OA
BRANCH  15  17
HETATM   17  O   UNK N   1      34.234  17.906   6.033  0.00  0.00    -0.775 OA
HETATM   18  H   UNK N   1      34.177  18.459   5.277  0.00  0.00     0.167 HD
ENDBRANCH  15  17
ENDBRANCH  14  15
ENDBRANCH   6  14
ENDBRANCH   3   5
BRANCH   2  19
HETATM   19  C   UNK N   1      34.345  13.317   9.804  0.00  0.00     0.151 A 
HETATM   20  S   UNK N   1      35.634  12.365   9.433  0.00  0.00    -0.063 SA
HETATM   21  C   UNK N   1      36.019  11.894  10.988  0.00  0.00     0.083 A 
HETATM   22  C   UNK N   1      35.044  12.511  11.810  0.00  0.00     0.052 A 
HETATM   23  N   UNK N   1      34.133  13.286  11.137  0.00  0.00    -0.335 N 
ATOM     24  HN  UNK N   1      33.376  13.790  11.597  1.00  0.00     0.168 HD
BRANCH  22  25
HETATM   25  C   UNK N   1      34.996  12.368  13.290  0.00  0.00     0.013 A 
HETATM   26  C   UNK N   1      35.597  13.309  14.179  0.00  0.00     0.046 A 
HETATM   27 Cl   UNK N   1      36.410  14.777  13.645  0.00  0.00    -0.083 Cl
HETATM   28  C   UNK N   1      35.530  13.098  15.560  0.00  0.00     0.025 A 
HETATM   29  C   UNK N   1      34.887  11.975  16.078  0.00  0.00     0.002 A 
HETATM   30  C   UNK N   1      34.291  11.055  15.217  0.00  0.00     0.001 A 
HETATM   31  C   UNK N   1      34.342  11.252  13.835  0.00  0.00     0.015 A 
ENDBRANCH  22  25
ENDBRANCH   2  19
TORSDOF 6
ENDMDL
MODEL 7
REMARK VINA RESULT:      -7.3      1.679      2.068
REMARK  6 active torsions:
REMARK  status: ('A' for Active; 'I' for Inactive)
REMARK    1  A    between atoms: O_4  and  C_20 
REMARK    2  A    between atoms: N_6  and  C_14 
REMARK       I    between atoms: N_7  and  C_17 
REMARK    3  A    between atoms: N_7  and  C_21 
REMARK    4  A    between atoms: C_12  and  C_17 
REMARK    5  A    between atoms: C_14  and  C_20 
REMARK    6  A    between atoms: C_22  and  C_23 
ROOT
HETATM    1  O   UNK N   1      33.490  13.290   8.736  0.00  0.00    -0.266 OA
HETATM    2  N   UNK N   1      34.054  15.169   9.819  0.00  0.00    -0.302 N 
HETATM    3  C   UNK N   1      33.473  14.512   8.776  0.00  0.00     0.274 C 
HETATM    4  H   UNK N   1      33.885  16.132   9.947  0.00  0.00     0.171 HD
ENDROOT
BRANCH   3   5
HETATM    5  C   UNK N   1      32.903  15.238   7.626  0.00  0.00     0.105 A 
HETATM    6  N   UNK N   1      33.439  16.308   6.990  0.00  0.00    -0.332 N 
HETATM    7  C   UNK N   1      32.644  16.551   5.930  0.00  0.00     0.045 A 
HETATM    8  C   UNK N   1      31.606  15.657   5.906  0.00  0.00    -0.007 A 
HETATM    9  C   UNK N   1      32.798  17.517   4.937  0.00  0.00     0.030 A 
HETATM   10  C   UNK N   1      31.740  14.814   6.981  0.00  0.00     0.049 A 
HETATM   11  C   UNK N   1      30.648  15.663   4.899  0.00  0.00     0.014 A 
HETATM   12  C   UNK N   1      30.774  16.624   3.882  0.00  0.00     0.001 A 
HETATM   13  C   UNK N   1      31.846  17.547   3.900  0.00  0.00     0.002 A 
BRANCH   6  14
HETATM   14  C   UNK N   1      34.655  17.034   7.352  0.00  0.00     0.239 C 
BRANCH  14  15
HETATM   15  C   UNK N   1      34.336  18.165   8.282  0.00  0.00     0.158 C 
HETATM   16  O   UNK N   1      35.057  19.148   8.332  0.00  0.00    -0.649 OA
BRANCH  15  17
HETATM   17  O   UNK N   1      33.247  18.095   9.069  0.00  0.00    -0.775 OA
HETATM   18  H   UNK N   1      33.272  18.318   9.980  0.00  0.00     0.167 HD
ENDBRANCH  15  17
ENDBRANCH  14  15
ENDBRANCH   6  14
ENDBRANCH   3   5
BRANCH   2  19
HETATM   19  C   UNK N   1      34.904  14.477  10.723  0.00  0.00     0.151 A 
HETATM   20  S   UNK N   1      36.536  14.293  10.620  0.00  0.00    -0.063 SA
HETATM   21  C   UNK N   1      36.741  13.352  11.985  0.00  0.00     0.083 A 
HETATM   22  C   UNK N   1      35.435  13.169  12.503  0.00  0.00     0.052 A 
HETATM   23  N   UNK N   1      34.442  13.794  11.792  0.00  0.00    -0.335 N 
ATOM     24  HN  UNK N   1      33.456  13.749  12.046  1.00  0.00     0.168 HD
BRANCH  22  25
HETATM   25  C   UNK N   1      35.133  12.385  13.731  0.00  0.00     0.013 A 
HETATM   26  C   UNK N   1      35.687  12.700  15.007  0.00  0.00     0.046 A 
HETATM   27 Cl   UNK N   1      36.739  14.082  15.302  0.00  0.00    -0.083 Cl
HETATM   28  C   UNK N   1      35.374  11.905  16.114  0.00  0.00     0.025 A 
HETATM   29  C   UNK N   1      34.531  10.803  15.983  0.00  0.00     0.002 A 
HETATM   30  C   UNK N   1      33.979  10.492  14.742  0.00  0.00     0.001 A 
HETATM   31  C   UNK N   1      34.275  11.279  13.626  0.00  0.00     0.015 A 
ENDBRANCH  22  25
ENDBRANCH   2  19
TORSDOF 6
ENDMDL
MODEL 8
REMARK VINA RESULT:      -7.2      4.530      9.159
REMARK  6 active torsions:
REMARK  status: ('A' for Active; 'I' for Inactive)
REMARK    1  A    between atoms: O_4  and  C_20 
REMARK    2  A    between atoms: N_6  and  C_14 
REMARK       I    between atoms: N_7  and  C_17 
REMARK    3  A    between atoms: N_7  and  C_21 
REMARK    4  A    between atoms: C_12  and  C_17 
REMARK    5  A    between atoms: C_14  and  C_20 
REMARK    6  A    between atoms: C_22  and  C_23 
ROOT
HETATM    1  O   UNK N   1      31.304  14.469   7.045  0.00  0.00    -0.266 OA
HETATM    2  N   UNK N   1      32.530  15.885   5.814  0.00  0.00    -0.302 N 
HETATM    3  C   UNK N   1      32.341  15.105   6.916  0.00  0.00     0.274 C 
HETATM    4  H   UNK N   1      33.425  16.249   5.620  0.00  0.00     0.171 HD
ENDROOT
BRANCH   3   5
HETATM    5  C   UNK N   1      33.315  15.080   8.022  0.00  0.00     0.105 A 
HETATM    6  N   UNK N   1      33.698  16.126   8.795  0.00  0.00    -0.332 N 
HETATM    7  C   UNK N   1      34.498  15.612   9.750  0.00  0.00     0.045 A 
HETATM    8  C   UNK N   1      34.636  14.261   9.572  0.00  0.00    -0.007 A 
HETATM    9  C   UNK N   1      35.106  16.273  10.816  0.00  0.00     0.030 A 
HETATM   10  C   UNK N   1      33.900  13.895   8.472  0.00  0.00     0.049 A 
HETATM   11  C   UNK N   1      35.388  13.473  10.436  0.00  0.00     0.014 A 
HETATM   12  C   UNK N   1      36.013  14.109  11.522  0.00  0.00     0.001 A 
HETATM   13  C   UNK N   1      35.872  15.503  11.712  0.00  0.00     0.002 A 
BRANCH   6  14
HETATM   14  C   UNK N   1      33.298  17.524   8.653  0.00  0.00     0.239 C 
BRANCH  14  15
HETATM   15  C   UNK N   1      34.311  18.282   7.849  0.00  0.00     0.158 C 
HETATM   16  O   UNK N   1      35.038  19.102   8.386  0.00  0.00    -0.649 OA
BRANCH  15  17
HETATM   17  O   UNK N   1      34.418  18.057   6.527  0.00  0.00    -0.775 OA
HETATM   18  H   UNK N   1      34.897  18.630   5.959  0.00  0.00     0.167 HD
ENDBRANCH  15  17
ENDBRANCH  14  15
ENDBRANCH   6  14
ENDBRANCH   3   5
BRANCH   2  19
HETATM   19  C   UNK N   1      31.445  16.178   4.944  0.00  0.00     0.151 A 
HETATM   20  S   UNK N   1      31.277  15.732   3.370  0.00  0.00    -0.063 SA
HETATM   21  C   UNK N   1      29.816  16.487   3.079  0.00  0.00     0.083 A 
HETATM   22  C   UNK N   1      29.492  17.138   4.294  0.00  0.00     0.052 A 
HETATM   23  N   UNK N   1      30.402  16.956   5.305  0.00  0.00    -0.335 N 
ATOM     24  HN  UNK N   1      30.301  17.365   6.233  1.00  0.00     0.168 HD
BRANCH  22  25
HETATM   25  C   UNK N   1      28.258  17.944   4.499  0.00  0.00     0.013 A 
HETATM   26  C   UNK N   1      26.956  17.365   4.570  0.00  0.00     0.046 A 
HETATM   27 Cl   UNK N   1      26.652  15.632   4.486  0.00  0.00    -0.083 Cl
HETATM   28  C   UNK N   1      25.840  18.188   4.744  0.00  0.00     0.025 A 
HETATM   29  C   UNK N   1      25.983  19.571   4.842  0.00  0.00     0.002 A 
HETATM   30  C   UNK N   1      27.252  20.145   4.782  0.00  0.00     0.001 A 
HETATM   31  C   UNK N   1      28.380  19.338   4.616  0.00  0.00     0.015 A 
ENDBRANCH  22  25
ENDBRANCH   2  19
TORSDOF 6
ENDMDL
MODEL 9
REMARK VINA RESULT:      -7.0      3.023      9.013
REMARK  6 active torsions:
REMARK  status: ('A' for Active; 'I' for Inactive)
REMARK    1  A    between atoms: O_4  and  C_20 
REMARK    2  A    between atoms: N_6  and  C_14 
REMARK       I    between atoms: N_7  and  C_17 
REMARK    3  A    between atoms: N_7  and  C_21 
REMARK    4  A    between atoms: C_12  and  C_17 
REMARK    5  A    between atoms: C_14  and  C_20 
REMARK    6  A    between atoms: C_22  and  C_23 
ROOT
HETATM    1  O   UNK N   1      35.848  11.154  12.277  0.00  0.00    -0.266 OA
HETATM    2  N   UNK N   1      37.733  12.345  12.505  0.00  0.00    -0.302 N 
HETATM    3  C   UNK N   1      36.734  11.569  13.011  0.00  0.00     0.274 C 
HETATM    4  H   UNK N   1      38.536  12.526  13.047  0.00  0.00     0.171 HD
ENDROOT
BRANCH   3   5
HETATM    5  C   UNK N   1      36.627  11.292  14.456  0.00  0.00     0.105 A 
HETATM    6  N   UNK N   1      36.047  12.077  15.397  0.00  0.00    -0.332 N 
HETATM    7  C   UNK N   1      36.071  11.368  16.542  0.00  0.00     0.045 A 
HETATM    8  C   UNK N   1      36.677  10.158  16.334  0.00  0.00    -0.007 A 
HETATM    9  C   UNK N   1      35.550  11.719  17.786  0.00  0.00     0.030 A 
HETATM   10  C   UNK N   1      37.051  10.085  15.015  0.00  0.00     0.049 A 
HETATM   11  C   UNK N   1      36.811   9.213  17.346  0.00  0.00     0.014 A 
HETATM   12  C   UNK N   1      36.295   9.535  18.612  0.00  0.00     0.001 A 
HETATM   13  C   UNK N   1      35.665  10.783  18.832  0.00  0.00     0.002 A 
BRANCH   6  14
HETATM   14  C   UNK N   1      35.473  13.407  15.207  0.00  0.00     0.239 C 
BRANCH  14  15
HETATM   15  C   UNK N   1      36.535  14.386  14.805  0.00  0.00     0.158 C 
HETATM   16  O   UNK N   1      36.465  14.971  13.737  0.00  0.00    -0.649 OA
BRANCH  15  17
HETATM   17  O   UNK N   1      37.574  14.619  15.628  0.00  0.00    -0.775 OA
HETATM   18  H   UNK N   1      38.431  14.822  15.307  0.00  0.00     0.167 HD
ENDBRANCH  15  17
ENDBRANCH  14  15
ENDBRANCH   6  14
ENDBRANCH   3   5
BRANCH   2  19
HETATM   19  C   UNK N   1      37.626  12.896  11.199  0.00  0.00     0.151 A 
HETATM   20  S   UNK N   1      38.773  12.906  10.020  0.00  0.00    -0.063 SA
HETATM   21  C   UNK N   1      37.904  13.751   8.871  0.00  0.00     0.083 A 
HETATM   22  C   UNK N   1      36.668  14.051   9.493  0.00  0.00     0.052 A 
HETATM   23  N   UNK N   1      36.538  13.572  10.773  0.00  0.00    -0.335 N 
ATOM     24  HN  UNK N   1      35.704  13.712  11.343  1.00  0.00     0.168 HD
BRANCH  22  25
HETATM   25  C   UNK N   1      35.567  14.802   8.832  0.00  0.00     0.013 A 
HETATM   26  C   UNK N   1      34.986  15.978   9.392  0.00  0.00     0.046 A 
HETATM   27 Cl   UNK N   1      35.532  16.719  10.894  0.00  0.00    -0.083 Cl
HETATM   28  C   UNK N   1      33.940  16.621   8.722  0.00  0.00     0.025 A 
HETATM   29  C   UNK N   1      33.454  16.121   7.515  0.00  0.00     0.002 A 
HETATM   30  C   UNK N   1      34.022  14.977   6.957  0.00  0.00     0.001 A 
HETATM   31  C   UNK N   1      35.072  14.326   7.608  0.00  0.00     0.015 A 
ENDBRANCH  22  25
ENDBRANCH   2  19
TORSDOF 6
ENDMDL
