REMARK  30 active torsions:
REMARK  status: ('A' for Active; 'I' for Inactive)
REMARK    1  A    between atoms: C_7  and  C_6 
REMARK    2  A    between atoms: C_20  and  C_6 
REMARK    3  A    between atoms: C_22  and  C_7 
REMARK    4  A    between atoms: C_12  and  C_8 
REMARK    5  A    between atoms: C_13  and  C_9 
REMARK    6  A    between atoms: C_14  and  C_10 
REMARK    7  A    between atoms: C_15  and  C_11 
REMARK    8  A    between atoms: N_36  and  C_12 
REMARK    9  A    between atoms: N_36  and  C_13 
REMARK   10  A    between atoms: N_37  and  C_14 
REMARK   11  A    between atoms: N_37  and  C_15 
REMARK   12  A    between atoms: C_17  and  C_16 
REMARK   13  A    between atoms: O_47  and  C_16 
REMARK   14  A    between atoms: S_49  and  C_17 
REMARK   15  A    between atoms: C_21  and  C_18 
REMARK   16  A    between atoms: S_49  and  C_18 
REMARK   17  A    between atoms: C_23  and  C_19 
REMARK   18  A    between atoms: C_25  and  C_20 
REMARK   19  A    between atoms: C_20  and  N_31 
REMARK   20  A    between atoms: C_24  and  C_21 
REMARK   21  A    between atoms: C_21  and  N_32 
REMARK   22  A    between atoms: C_22  and  O_38 
REMARK   23  A    between atoms: C_26  and  C_23 
REMARK   24  A    between atoms: C_23  and  N_34 
REMARK   25  A    between atoms: C_24  and  O_39 
REMARK   26  A    between atoms: O_41  and  C_25 
REMARK   27  A    between atoms: O_43  and  C_26 
REMARK   28  A    between atoms: P_48  and  N_36 
REMARK   29  A    between atoms: P_48  and  N_37 
REMARK   30  A    between atoms: P_48  and  O_47 
ROOT
HETATM    1  C   UNK N   1       1.190   0.583   0.388  0.00  0.00     0.171 C 
ENDROOT
BRANCH   1   2
HETATM    2  C   UNK N   1       0.349   0.289  -0.877  0.00  0.00     0.173 C 
BRANCH   2   3
HETATM    3  S   UNK N   1      -1.011  -0.959  -0.792  0.00  0.00     0.148 S 
HETATM    4  O   UNK N   1      -1.580  -0.208  -2.002  0.00  0.00    -0.228 OA
HETATM    5  O   UNK N   1      -1.390   0.095   0.241  0.00  0.00    -0.228 OA
BRANCH   3   6
HETATM    6  C   UNK N   1      -2.730  -1.280  -0.169  0.00  0.00     0.167 C 
BRANCH   6   7
HETATM    7  C   UNK N   1      -4.007  -0.662  -0.812  0.00  0.00     0.193 C 
BRANCH   7   8
HETATM    8  O   UNK N   1      -3.868   0.621  -1.382  0.00  0.00    -0.310 OA
BRANCH   8   9
HETATM    9  P   UNK N   1      -3.706   1.852  -0.139  0.00  0.00     0.347 P 
HETATM   10  O   UNK N   1      -3.821   1.205   1.272  0.00  0.00    -0.254 OA
BRANCH   9  11
HETATM   11  N   UNK N   1      -4.985   3.117  -0.289  0.00  0.00    -0.225 NA
BRANCH  11  12
HETATM   12  C   UNK N   1      -6.240   2.539   0.168  0.00  0.00     0.115 C 
BRANCH  12  13
HETATM   13  C   UNK N   1      -6.956   1.845  -0.971  0.00  0.00     0.129 C 
HETATM   14 Cl   UNK N   1      -8.315   0.909  -0.310  0.00  0.00    -0.129 Cl
ENDBRANCH  12  13
ENDBRANCH  11  12
BRANCH  11  15
HETATM   15  C   UNK N   1      -4.662   4.192   0.632  0.00  0.00     0.115 C 
BRANCH  15  16
HETATM   16  C   UNK N   1      -5.026   5.522   0.005  0.00  0.00     0.129 C 
HETATM   17 Cl   UNK N   1      -4.467   6.841   1.055  0.00  0.00    -0.129 Cl
ENDBRANCH  15  16
ENDBRANCH  11  15
ENDBRANCH   9  11
BRANCH   9  18
HETATM   18  N   UNK N   1      -2.045   2.562  -0.277  0.00  0.00    -0.225 NA
BRANCH  18  19
HETATM   19  C   UNK N   1      -1.711   3.448   0.839  0.00  0.00     0.115 C 
BRANCH  19  20
HETATM   20  C   UNK N   1      -0.226   3.776   0.826  0.00  0.00     0.129 C 
HETATM   21 Cl   UNK N   1       0.289   4.370   2.418  0.00  0.00    -0.129 Cl
ENDBRANCH  19  20
ENDBRANCH  18  19
BRANCH  18  22
HETATM   22  C   UNK N   1      -1.814   3.121  -1.613  0.00  0.00     0.115 C 
BRANCH  22  23
HETATM   23  C   UNK N   1      -2.277   4.561  -1.759  0.00  0.00     0.129 C 
HETATM   24 Cl   UNK N   1      -0.882   5.555  -2.236  0.00  0.00    -0.129 Cl
ENDBRANCH  22  23
ENDBRANCH  18  22
ENDBRANCH   9  18
ENDBRANCH   8   9
ENDBRANCH   7   8
ENDBRANCH   6   7
ENDBRANCH   3   6
ENDBRANCH   2   3
ENDBRANCH   1   2
BRANCH   1  25
HETATM   25  C   UNK N   1       2.459   1.270  -0.050  0.00  0.00     0.136 C 
HETATM   26  N   UNK N   1       3.591   0.693   0.168  0.00  0.00    -0.355 N 
ATOM     27  HN  UNK N   1       3.576  -0.165   0.721  1.00  0.00     0.162 HD
BRANCH  26  28
HETATM   28  C   UNK N   1       4.879   1.153  -0.300  0.00  0.00     0.215 C 
BRANCH  28  29
HETATM   29  C   UNK N   1       5.843  -0.015  -0.226  0.00  0.00    -0.025 A 
HETATM   30  C   UNK N   1       7.125   0.085  -0.782  0.00  0.00     0.010 A 
HETATM   31  C   UNK N   1       7.984  -1.019  -0.775  0.00  0.00     0.001 A 
HETATM   32  C   UNK N   1       7.569  -2.231  -0.216  0.00  0.00     0.000 A 
HETATM   33  C   UNK N   1       6.296  -2.342   0.343  0.00  0.00     0.001 A 
HETATM   34  C   UNK N   1       5.438  -1.244   0.334  0.00  0.00     0.010 A 
ENDBRANCH  28  29
BRANCH  28  35
HETATM   35  C   UNK N   1       5.380   2.354   0.473  0.00  0.00     0.168 C 
HETATM   36  O   UNK N   1       4.716   2.832   1.383  0.00  0.00    -0.648 OA
BRANCH  35  37
HETATM   37  O   UNK N   1       6.558   2.919   0.149  0.00  0.00    -0.775 OA
HETATM   38  H   UNK N   1       7.308   2.405  -0.078  0.00  0.00     0.167 HD
ENDBRANCH  35  37
ENDBRANCH  28  35
ENDBRANCH  26  28
BRANCH  25  39
HETATM   39  O   UNK N   1       2.400   2.434  -0.729  0.00  0.00    -0.348 OA
HETATM   40  H   UNK N   1       3.080   2.874  -1.200  0.00  0.00     0.219 HD
ENDBRANCH  25  39
ENDBRANCH   1  25
BRANCH   1  41
HETATM   41  N   UNK N   1       1.431  -0.628   1.157  0.00  0.00    -0.362 N 
HETATM   42  C   UNK N   1       1.990  -1.696   0.692  0.00  0.00     0.111 C 
ATOM     43  HN  UNK N   1       1.138  -0.635   2.134  1.00  0.00     0.162 HD
BRANCH  42  44
HETATM   44  C   UNK N   1       2.160  -2.875   1.587  0.00  0.00     0.086 C 
BRANCH  44  45
HETATM   45  C   UNK N   1       1.111  -3.950   1.302  0.00  0.00     0.043 C 
BRANCH  45  46
HETATM   46  C   UNK N   1       1.219  -4.610  -0.076  0.00  0.00     0.173 C 
BRANCH  46  47
HETATM   47  C   UNK N   1       2.534  -5.328  -0.248  0.00  0.00     0.163 C 
HETATM   48  O   UNK N   1       3.583  -4.705  -0.210  0.00  0.00    -0.648 OA
BRANCH  47  49
HETATM   49  O   UNK N   1       2.562  -6.658  -0.464  0.00  0.00    -0.775 OA
HETATM   50  H   UNK N   1       1.772  -7.138  -0.614  0.00  0.00     0.167 HD
ENDBRANCH  47  49
ENDBRANCH  46  47
BRANCH  46  51
HETATM   51  N   UNK N   1       0.116  -5.545  -0.216  0.00  0.00    -0.418 N 
HETATM   52  H   UNK N   1      -0.840  -5.203  -0.314  0.00  0.00     0.150 HD
HETATM   53  H   UNK N   1       0.298  -6.549  -0.216  0.00  0.00     0.150 HD
ENDBRANCH  46  51
ENDBRANCH  45  46
ENDBRANCH  44  45
ENDBRANCH  42  44
BRANCH  42  54
HETATM   54  O   UNK N   1       2.410  -1.758  -0.589  0.00  0.00    -0.350 OA
HETATM   55  H   UNK N   1       2.518  -2.033  -1.479  0.00  0.00     0.219 HD
ENDBRANCH  42  54
ENDBRANCH   1  41
TORSDOF 30
