REMARK  8 active torsions:
REMARK  status: ('A' for Active; 'I' for Inactive)
REMARK    1  A    between atoms: C_16  and  O_2 
REMARK    2  A    between atoms: C_18  and  O_3 
REMARK    3  A    between atoms: O_4  and  C_26 
REMARK    4  A    between atoms: C_17  and  N_5 
REMARK    5  A    between atoms: N_10  and  N_12 
REMARK       I    between atoms: N_12  and  C_32 
REMARK    6  A    between atoms: N_15  and  C_31 
REMARK    7  A    between atoms: C_19  and  C_26 
REMARK    8  A    between atoms: C_20  and  C_29 
ROOT
HETATM    1  N   UNK N   1       9.327  -0.911  -0.365  0.00  0.00    -0.297 N 
HETATM    2  N   UNK N   1       9.067  -3.120  -0.023  0.00  0.00    -0.346 N 
ATOM      3  HN  UNK N   1       9.263  -4.115   0.090  1.00  0.00     0.167 HD
HETATM    4  N   UNK N   1       7.005  -0.301  -0.136  0.00  0.00    -0.172 N 
ATOM      5  HN  UNK N   1       7.160   0.694  -0.297  1.00  0.00     0.186 HD
HETATM    6  N   UNK N   1       4.653   0.088   0.116  0.00  0.00    -0.133 N 
HETATM    7  N   UNK N   1       5.560  -2.138   0.282  0.00  0.00    -0.173 N 
ATOM      8  HN  UNK N   1       4.616  -2.489   0.441  1.00  0.00     0.186 HD
HETATM    9  C   UNK N   1       8.038  -1.178  -0.143  0.00  0.00     0.157 A 
HETATM   10  C   UNK N   1       9.953  -2.115  -0.285  0.00  0.00     0.188 A 
HETATM   11  C   UNK N   1       7.873  -2.499   0.052  0.00  0.00     0.123 A 
HETATM   12  C   UNK N   1       6.606  -3.015   0.262  0.00  0.00     0.145 A 
HETATM   13  C   UNK N   1       5.756  -0.787   0.093  0.00  0.00     0.700 A 
HETATM   14  H   UNK N   1       4.746   1.035  -0.139  0.00  0.00     0.205 HD
ENDROOT
BRANCH   1  15
HETATM   15  C   UNK N   1       9.913   0.388  -0.709  0.00  0.00     0.262 C 
HETATM   16  O   UNK N   1       8.921   1.396  -0.762  0.00  0.00    -0.353 OA
HETATM   17  C   UNK N   1       9.416   2.463   0.004  0.00  0.00     0.179 C 
HETATM   18  C   UNK N   1      10.916   2.304   0.014  0.00  0.00     0.182 C 
HETATM   19  C   UNK N   1      10.979   0.837   0.265  0.00  0.00     0.198 C 
BRANCH  17  20
HETATM   20  C   UNK N   1       8.974   3.782  -0.608  0.00  0.00     0.198 C 
BRANCH  20  21
HETATM   21  O   UNK N   1       9.218   4.831   0.277  0.00  0.00    -0.398 OA
HETATM   22  H   UNK N   1       9.935   5.049   0.893  0.00  0.00     0.209 HD
ENDBRANCH  20  21
ENDBRANCH  17  20
BRANCH  18  23
HETATM   23  O   UNK N   1      11.515   3.033   1.040  0.00  0.00    -0.390 OA
HETATM   24  H   UNK N   1      12.162   2.926   1.755  0.00  0.00     0.210 HD
ENDBRANCH  18  23
BRANCH  19  25
HETATM   25  O   UNK N   1      12.226   0.319  -0.087  0.00  0.00    -0.388 OA
HETATM   26  H   UNK N   1      12.348  -0.611  -0.332  0.00  0.00     0.210 HD
ENDBRANCH  19  25
ENDBRANCH   1  15
BRANCH  12  27
HETATM   27  N   UNK N   1       6.385  -4.397   0.429  0.00  0.00    -0.383 N 
HETATM   28  H   UNK N   1       5.473  -4.746   0.547  0.00  0.00     0.157 HD
HETATM   29  H   UNK N   1       7.150  -5.017   0.429  0.00  0.00     0.157 HD
ENDBRANCH  12  27
BRANCH   6  30
HETATM   30  N   UNK N   1       3.452  -0.425   0.505  0.00  0.00    -0.301 N 
HETATM   31  C   UNK N   1       2.350  -0.045  -0.013  0.00  0.00     0.085 C 
ATOM     32  HN  UNK N   1       3.434  -1.137   1.236  1.00  0.00     0.186 HD
BRANCH  31  33
HETATM   33  C   UNK N   1       1.143  -0.835   0.341  0.00  0.00     0.025 C 
HETATM   34  C   UNK N   1      -0.086  -0.347  -0.412  0.00  0.00     0.010 C 
HETATM   35  C   UNK N   1      -1.279  -1.235  -0.057  0.00  0.00     0.001 C 
HETATM   36  C   UNK N   1      -0.986  -2.698  -0.399  0.00  0.00     0.000 C 
HETATM   37  C   UNK N   1       0.254  -3.178   0.344  0.00  0.00     0.001 C 
HETATM   38  C   UNK N   1       1.430  -2.296  -0.027  0.00  0.00     0.010 C 
ENDBRANCH  31  33
ENDBRANCH   6  30
TORSDOF 8
