MODEL 1
REMARK VINA RESULT:      -6.7      0.000      0.000
REMARK  3 active torsions:
REMARK  status: ('A' for Active; 'I' for Inactive)
REMARK    1  A    between atoms: O_2  and  C_14 
REMARK    2  A    between atoms: O_3  and  C_18 
REMARK    3  A    between atoms: C_4  and  C_9 
ROOT
HETATM    1  O   UNK N   1      22.546  20.710   2.744  0.00  0.00    -0.346 OA
HETATM    2  C   UNK N   1      24.335  19.286   3.654  0.00  0.00    -0.023 A 
HETATM    3  C   UNK N   1      23.899  20.619   3.057  0.00  0.00     0.215 A 
HETATM    4  C   UNK N   1      22.045  18.487   3.461  0.00  0.00    -0.002 A 
HETATM    5  C   UNK N   1      23.442  18.301   3.835  0.00  0.00     0.024 A 
HETATM    6  C   UNK N   1      21.644  19.712   2.919  0.00  0.00     0.082 A 
HETATM    7  C   UNK N   1      21.121  17.454   3.635  0.00  0.00     0.017 A 
HETATM    8  C   UNK N   1      20.307  19.905   2.556  0.00  0.00     0.074 A 
HETATM    9  C   UNK N   1      19.378  18.873   2.734  0.00  0.00     0.068 A 
HETATM   10  C   UNK N   1      19.787  17.648   3.271  0.00  0.00     0.037 A 
ENDROOT
BRANCH   2  11
HETATM   11  C   UNK N   1      25.762  19.054   3.988  0.00  0.00    -0.028 A 
HETATM   12  C   UNK N   1      26.596  20.129   4.331  0.00  0.00     0.015 A 
HETATM   13  C   UNK N   1      27.955  19.918   4.581  0.00  0.00     0.037 A 
HETATM   14  C   UNK N   1      28.491  18.629   4.496  0.00  0.00     0.065 A 
HETATM   15  C   UNK N   1      27.666  17.550   4.175  0.00  0.00     0.037 A 
HETATM   16  C   UNK N   1      26.310  17.761   3.920  0.00  0.00     0.015 A 
BRANCH  14  17
HETATM   17  O   UNK N   1      29.799  18.429   4.716  0.00  0.00    -0.361 OA
HETATM   18  H   UNK N   1      30.406  19.136   4.613  0.00  0.00     0.217 HD
ENDBRANCH  14  17
ENDBRANCH   2  11
BRANCH   9  19
HETATM   19  O   UNK N   1      18.094  19.059   2.392  0.00  0.00    -0.361 OA
HETATM   20  H   UNK N   1      17.730  19.922   2.372  0.00  0.00     0.217 HD
ENDBRANCH   9  19
TORSDOF 3
ENDMDL
MODEL 2
REMARK VINA RESULT:      -6.6      8.093     12.743
REMARK  3 active torsions:
REMARK  status: ('A' for Active; 'I' for Inactive)
REMARK    1  A    between atoms: O_2  and  C_14 
REMARK    2  A    between atoms: O_3  and  C_18 
REMARK    3  A    between atoms: C_4  and  C_9 
ROOT
HETATM    1  O   UNK N   1      35.063  17.778   9.342  0.00  0.00    -0.346 OA
HETATM    2  C   UNK N   1      33.550  16.834   7.646  0.00  0.00    -0.023 A 
HETATM    3  C   UNK N   1      34.362  18.015   8.163  0.00  0.00     0.215 A 
HETATM    4  C   UNK N   1      34.294  15.527   9.559  0.00  0.00    -0.002 A 
HETATM    5  C   UNK N   1      33.536  15.674   8.321  0.00  0.00     0.024 A 
HETATM    6  C   UNK N   1      35.044  16.609  10.030  0.00  0.00     0.082 A 
HETATM    7  C   UNK N   1      34.265  14.324  10.268  0.00  0.00     0.017 A 
HETATM    8  C   UNK N   1      35.776  16.482  11.215  0.00  0.00     0.074 A 
HETATM    9  C   UNK N   1      35.753  15.276  11.925  0.00  0.00     0.068 A 
HETATM   10  C   UNK N   1      34.995  14.199  11.453  0.00  0.00     0.037 A 
ENDROOT
BRANCH   2  11
HETATM   11  C   UNK N   1      32.726  16.979   6.421  0.00  0.00    -0.028 A 
HETATM   12  C   UNK N   1      31.374  16.603   6.424  0.00  0.00     0.015 A 
HETATM   13  C   UNK N   1      30.616  16.678   5.251  0.00  0.00     0.037 A 
HETATM   14  C   UNK N   1      31.202  17.136   4.068  0.00  0.00     0.065 A 
HETATM   15  C   UNK N   1      32.541  17.532   4.058  0.00  0.00     0.037 A 
HETATM   16  C   UNK N   1      33.300  17.451   5.227  0.00  0.00     0.015 A 
BRANCH  14  17
HETATM   17  O   UNK N   1      30.480  17.190   2.937  0.00  0.00    -0.361 OA
HETATM   18  H   UNK N   1      30.858  17.542   2.156  0.00  0.00     0.217 HD
ENDBRANCH  14  17
ENDBRANCH   2  11
BRANCH   9  19
HETATM   19  O   UNK N   1      36.459  15.151  13.059  0.00  0.00    -0.361 OA
HETATM   20  H   UNK N   1      36.040  14.874  13.850  0.00  0.00     0.217 HD
ENDBRANCH   9  19
TORSDOF 3
ENDMDL
MODEL 3
REMARK VINA RESULT:      -6.5      2.771      8.084
REMARK  3 active torsions:
REMARK  status: ('A' for Active; 'I' for Inactive)
REMARK    1  A    between atoms: O_2  and  C_14 
REMARK    2  A    between atoms: O_3  and  C_18 
REMARK    3  A    between atoms: C_4  and  C_9 
ROOT
HETATM    1  O   UNK N   1      29.504  17.081   5.213  0.00  0.00    -0.346 OA
HETATM    2  C   UNK N   1      27.495  18.499   5.112  0.00  0.00    -0.023 A 
HETATM    3  C   UNK N   1      28.462  17.549   4.417  0.00  0.00     0.215 A 
HETATM    4  C   UNK N   1      28.815  18.303   7.146  0.00  0.00    -0.002 A 
HETATM    5  C   UNK N   1      27.683  18.836   6.397  0.00  0.00     0.024 A 
HETATM    6  C   UNK N   1      29.700  17.427   6.510  0.00  0.00     0.082 A 
HETATM    7  C   UNK N   1      29.018  18.669   8.479  0.00  0.00     0.017 A 
HETATM    8  C   UNK N   1      30.790  16.908   7.216  0.00  0.00     0.074 A 
HETATM    9  C   UNK N   1      30.993  17.269   8.554  0.00  0.00     0.068 A 
HETATM   10  C   UNK N   1      30.109  18.152   9.183  0.00  0.00     0.037 A 
ENDROOT
BRANCH   2  11
HETATM   11  C   UNK N   1      26.369  19.098   4.354  0.00  0.00    -0.028 A 
HETATM   12  C   UNK N   1      26.603  20.128   3.430  0.00  0.00     0.015 A 
HETATM   13  C   UNK N   1      25.534  20.737   2.765  0.00  0.00     0.037 A 
HETATM   14  C   UNK N   1      24.224  20.316   3.013  0.00  0.00     0.065 A 
HETATM   15  C   UNK N   1      23.982  19.279   3.915  0.00  0.00     0.037 A 
HETATM   16  C   UNK N   1      25.048  18.675   4.585  0.00  0.00     0.015 A 
BRANCH  14  17
HETATM   17  O   UNK N   1      23.197  20.915   2.390  0.00  0.00    -0.361 OA
HETATM   18  H   UNK N   1      22.601  21.451   2.876  0.00  0.00     0.217 HD
ENDBRANCH  14  17
ENDBRANCH   2  11
BRANCH   9  19
HETATM   19  O   UNK N   1      32.035  16.767   9.234  0.00  0.00    -0.361 OA
HETATM   20  H   UNK N   1      32.912  16.966   8.970  0.00  0.00     0.217 HD
ENDBRANCH   9  19
TORSDOF 3
ENDMDL
MODEL 4
REMARK VINA RESULT:      -6.4     14.516     17.696
REMARK  3 active torsions:
REMARK  status: ('A' for Active; 'I' for Inactive)
REMARK    1  A    between atoms: O_2  and  C_14 
REMARK    2  A    between atoms: O_3  and  C_18 
REMARK    3  A    between atoms: C_4  and  C_9 
ROOT
HETATM    1  O   UNK N   1      34.747  11.722  12.696  0.00  0.00    -0.346 OA
HETATM    2  C   UNK N   1      35.344  12.545  14.937  0.00  0.00    -0.023 A 
HETATM    3  C   UNK N   1      34.780  11.435  14.058  0.00  0.00     0.215 A 
HETATM    4  C   UNK N   1      35.668  13.911  12.950  0.00  0.00    -0.002 A 
HETATM    5  C   UNK N   1      35.756  13.700  14.390  0.00  0.00     0.024 A 
HETATM    6  C   UNK N   1      35.156  12.891  12.142  0.00  0.00     0.082 A 
HETATM    7  C   UNK N   1      36.082  15.120  12.385  0.00  0.00     0.017 A 
HETATM    8  C   UNK N   1      35.067  13.080  10.759  0.00  0.00     0.074 A 
HETATM    9  C   UNK N   1      35.486  14.288  10.190  0.00  0.00     0.068 A 
HETATM   10  C   UNK N   1      35.990  15.308  11.004  0.00  0.00     0.037 A 
ENDROOT
BRANCH   2  11
HETATM   11  C   UNK N   1      35.389  12.374  16.410  0.00  0.00    -0.028 A 
HETATM   12  C   UNK N   1      35.590  11.104  16.972  0.00  0.00     0.015 A 
HETATM   13  C   UNK N   1      35.566  10.934  18.360  0.00  0.00     0.037 A 
HETATM   14  C   UNK N   1      35.347  12.033  19.196  0.00  0.00     0.065 A 
HETATM   15  C   UNK N   1      35.165  13.303  18.648  0.00  0.00     0.037 A 
HETATM   16  C   UNK N   1      35.183  13.473  17.263  0.00  0.00     0.015 A 
BRANCH  14  17
HETATM   17  O   UNK N   1      35.304  11.865  20.527  0.00  0.00    -0.361 OA
HETATM   18  H   UNK N   1      34.963  12.545  21.075  0.00  0.00     0.217 HD
ENDBRANCH  14  17
ENDBRANCH   2  11
BRANCH   9  19
HETATM   19  O   UNK N   1      35.406  14.469   8.863  0.00  0.00    -0.361 OA
HETATM   20  H   UNK N   1      36.114  14.866   8.395  0.00  0.00     0.217 HD
ENDBRANCH   9  19
TORSDOF 3
ENDMDL
MODEL 5
REMARK VINA RESULT:      -6.2     11.314     12.752
REMARK  3 active torsions:
REMARK  status: ('A' for Active; 'I' for Inactive)
REMARK    1  A    between atoms: O_2  and  C_14 
REMARK    2  A    between atoms: O_3  and  C_18 
REMARK    3  A    between atoms: C_4  and  C_9 
ROOT
HETATM    1  O   UNK N   1      26.453  22.302  -7.918  0.00  0.00    -0.346 OA
HETATM    2  C   UNK N   1      26.797  23.964  -6.136  0.00  0.00    -0.023 A 
HETATM    3  C   UNK N   1      25.937  23.422  -7.272  0.00  0.00     0.215 A 
HETATM    4  C   UNK N   1      28.425  22.211  -6.574  0.00  0.00    -0.002 A 
HETATM    5  C   UNK N   1      27.962  23.375  -5.828  0.00  0.00     0.024 A 
HETATM    6  C   UNK N   1      27.634  21.710  -7.613  0.00  0.00     0.082 A 
HETATM    7  C   UNK N   1      29.646  21.609  -6.262  0.00  0.00     0.017 A 
HETATM    8  C   UNK N   1      28.066  20.594  -8.337  0.00  0.00     0.074 A 
HETATM    9  C   UNK N   1      29.287  19.986  -8.022  0.00  0.00     0.068 A 
HETATM   10  C   UNK N   1      30.077  20.496  -6.987  0.00  0.00     0.037 A 
ENDROOT
BRANCH   2  11
HETATM   11  C   UNK N   1      26.373  25.182  -5.401  0.00  0.00    -0.028 A 
HETATM   12  C   UNK N   1      25.496  26.102  -5.996  0.00  0.00     0.015 A 
HETATM   13  C   UNK N   1      25.150  27.281  -5.328  0.00  0.00     0.037 A 
HETATM   14  C   UNK N   1      25.673  27.546  -4.059  0.00  0.00     0.065 A 
HETATM   15  C   UNK N   1      26.530  26.629  -3.451  0.00  0.00     0.037 A 
HETATM   16  C   UNK N   1      26.881  25.454  -4.119  0.00  0.00     0.015 A 
BRANCH  14  17
HETATM   17  O   UNK N   1      25.356  28.688  -3.428  0.00  0.00    -0.361 OA
HETATM   18  H   UNK N   1      25.960  29.404  -3.422  0.00  0.00     0.217 HD
ENDBRANCH  14  17
ENDBRANCH   2  11
BRANCH   9  19
HETATM   19  O   UNK N   1      29.699  18.911  -8.712  0.00  0.00    -0.361 OA
HETATM   20  H   UNK N   1      29.178  18.570  -9.412  0.00  0.00     0.217 HD
ENDBRANCH   9  19
TORSDOF 3
ENDMDL
MODEL 6
REMARK VINA RESULT:      -6.2     10.743     11.492
REMARK  3 active torsions:
REMARK  status: ('A' for Active; 'I' for Inactive)
REMARK    1  A    between atoms: O_2  and  C_14 
REMARK    2  A    between atoms: O_3  and  C_18 
REMARK    3  A    between atoms: C_4  and  C_9 
ROOT
HETATM    1  O   UNK N   1      29.718  27.303  -3.700  0.00  0.00    -0.346 OA
HETATM    2  C   UNK N   1      29.400  24.865  -3.790  0.00  0.00    -0.023 A 
HETATM    3  C   UNK N   1      30.343  26.060  -3.716  0.00  0.00     0.215 A 
HETATM    4  C   UNK N   1      27.512  26.397  -3.835  0.00  0.00    -0.002 A 
HETATM    5  C   UNK N   1      28.073  25.051  -3.843  0.00  0.00     0.024 A 
HETATM    6  C   UNK N   1      28.376  27.494  -3.762  0.00  0.00     0.082 A 
HETATM    7  C   UNK N   1      26.130  26.589  -3.908  0.00  0.00     0.017 A 
HETATM    8  C   UNK N   1      27.852  28.791  -3.753  0.00  0.00     0.074 A 
HETATM    9  C   UNK N   1      26.467  28.986  -3.821  0.00  0.00     0.068 A 
HETATM   10  C   UNK N   1      25.608  27.885  -3.901  0.00  0.00     0.037 A 
ENDROOT
BRANCH   2  11
HETATM   11  C   UNK N   1      29.951  23.488  -3.857  0.00  0.00    -0.028 A 
HETATM   12  C   UNK N   1      30.821  23.021  -2.860  0.00  0.00     0.015 A 
HETATM   13  C   UNK N   1      31.391  21.748  -2.959  0.00  0.00     0.037 A 
HETATM   14  C   UNK N   1      31.092  20.930  -4.053  0.00  0.00     0.065 A 
HETATM   15  C   UNK N   1      30.213  21.378  -5.041  0.00  0.00     0.037 A 
HETATM   16  C   UNK N   1      29.648  22.651  -4.946  0.00  0.00     0.015 A 
BRANCH  14  17
HETATM   17  O   UNK N   1      31.656  19.717  -4.158  0.00  0.00    -0.361 OA
HETATM   18  H   UNK N   1      31.167  18.951  -3.927  0.00  0.00     0.217 HD
ENDBRANCH  14  17
ENDBRANCH   2  11
BRANCH   9  19
HETATM   19  O   UNK N   1      25.963  30.229  -3.807  0.00  0.00    -0.361 OA
HETATM   20  H   UNK N   1      25.072  30.382  -4.053  0.00  0.00     0.217 HD
ENDBRANCH   9  19
TORSDOF 3
ENDMDL
MODEL 7
REMARK VINA RESULT:      -6.2     11.112     12.015
REMARK  3 active torsions:
REMARK  status: ('A' for Active; 'I' for Inactive)
REMARK    1  A    between atoms: O_2  and  C_14 
REMARK    2  A    between atoms: O_3  and  C_18 
REMARK    3  A    between atoms: C_4  and  C_9 
ROOT
HETATM    1  O   UNK N   1      28.226  24.927  -3.865  0.00  0.00    -0.346 OA
HETATM    2  C   UNK N   1      27.996  23.374  -5.760  0.00  0.00    -0.023 A 
HETATM    3  C   UNK N   1      28.721  23.782  -4.484  0.00  0.00     0.215 A 
HETATM    4  C   UNK N   1      26.528  25.297  -5.504  0.00  0.00    -0.002 A 
HETATM    5  C   UNK N   1      26.966  24.103  -6.217  0.00  0.00     0.024 A 
HETATM    6  C   UNK N   1      27.190  25.669  -4.330  0.00  0.00     0.082 A 
HETATM    7  C   UNK N   1      25.467  26.063  -5.991  0.00  0.00     0.017 A 
HETATM    8  C   UNK N   1      26.780  26.812  -3.635  0.00  0.00     0.074 A 
HETATM    9  C   UNK N   1      25.713  27.579  -4.118  0.00  0.00     0.068 A 
HETATM   10  C   UNK N   1      25.060  27.205  -5.297  0.00  0.00     0.037 A 
ENDROOT
BRANCH   2  11
HETATM   11  C   UNK N   1      28.461  22.195  -6.533  0.00  0.00    -0.028 A 
HETATM   12  C   UNK N   1      27.734  21.742  -7.644  0.00  0.00     0.015 A 
HETATM   13  C   UNK N   1      28.137  20.593  -8.331  0.00  0.00     0.037 A 
HETATM   14  C   UNK N   1      29.273  19.891  -7.916  0.00  0.00     0.065 A 
HETATM   15  C   UNK N   1      30.014  20.344  -6.824  0.00  0.00     0.037 A 
HETATM   16  C   UNK N   1      29.609  21.488  -6.133  0.00  0.00     0.015 A 
BRANCH  14  17
HETATM   17  O   UNK N   1      29.648  18.776  -8.563  0.00  0.00    -0.361 OA
HETATM   18  H   UNK N   1      30.546  18.649  -8.797  0.00  0.00     0.217 HD
ENDBRANCH  14  17
ENDBRANCH   2  11
BRANCH   9  19
HETATM   19  O   UNK N   1      25.316  28.672  -3.450  0.00  0.00    -0.361 OA
HETATM   20  H   UNK N   1      25.452  29.525  -3.813  0.00  0.00     0.217 HD
ENDBRANCH   9  19
TORSDOF 3
ENDMDL
MODEL 8
REMARK VINA RESULT:      -6.2      2.935      5.558
REMARK  3 active torsions:
REMARK  status: ('A' for Active; 'I' for Inactive)
REMARK    1  A    between atoms: O_2  and  C_14 
REMARK    2  A    between atoms: O_3  and  C_18 
REMARK    3  A    between atoms: C_4  and  C_9 
ROOT
HETATM    1  O   UNK N   1      26.818  16.708   5.217  0.00  0.00    -0.346 OA
HETATM    2  C   UNK N   1      29.115  17.585   5.113  0.00  0.00    -0.023 A 
HETATM    3  C   UNK N   1      28.158  16.464   5.502  0.00  0.00     0.215 A 
HETATM    4  C   UNK N   1      27.221  18.877   4.302  0.00  0.00    -0.002 A 
HETATM    5  C   UNK N   1      28.648  18.709   4.549  0.00  0.00     0.024 A 
HETATM    6  C   UNK N   1      26.343  17.847   4.653  0.00  0.00     0.082 A 
HETATM    7  C   UNK N   1      26.736  20.055   3.729  0.00  0.00     0.017 A 
HETATM    8  C   UNK N   1      24.972  17.995   4.422  0.00  0.00     0.074 A 
HETATM    9  C   UNK N   1      24.483  19.173   3.843  0.00  0.00     0.068 A 
HETATM   10  C   UNK N   1      25.365  20.203   3.500  0.00  0.00     0.037 A 
ENDROOT
BRANCH   2  11
HETATM   11  C   UNK N   1      30.564  17.458   5.408  0.00  0.00    -0.028 A 
HETATM   12  C   UNK N   1      31.005  17.229   6.720  0.00  0.00     0.015 A 
HETATM   13  C   UNK N   1      32.373  17.177   7.007  0.00  0.00     0.037 A 
HETATM   14  C   UNK N   1      33.310  17.347   5.983  0.00  0.00     0.065 A 
HETATM   15  C   UNK N   1      32.881  17.555   4.671  0.00  0.00     0.037 A 
HETATM   16  C   UNK N   1      31.516  17.614   4.385  0.00  0.00     0.015 A 
BRANCH  14  17
HETATM   17  O   UNK N   1      34.622  17.317   6.262  0.00  0.00    -0.361 OA
HETATM   18  H   UNK N   1      35.180  16.701   5.828  0.00  0.00     0.217 HD
ENDBRANCH  14  17
ENDBRANCH   2  11
BRANCH   9  19
HETATM   19  O   UNK N   1      23.169  19.313   3.615  0.00  0.00    -0.361 OA
HETATM   20  H   UNK N   1      22.789  18.995   2.820  0.00  0.00     0.217 HD
ENDBRANCH   9  19
TORSDOF 3
ENDMDL
MODEL 9
REMARK VINA RESULT:      -6.1     14.914     18.443
REMARK  3 active torsions:
REMARK  status: ('A' for Active; 'I' for Inactive)
REMARK    1  A    between atoms: O_2  and  C_14 
REMARK    2  A    between atoms: O_3  and  C_18 
REMARK    3  A    between atoms: C_4  and  C_9 
ROOT
HETATM    1  O   UNK N   1      35.393  10.530  16.071  0.00  0.00    -0.346 OA
HETATM    2  C   UNK N   1      35.361  12.549  14.664  0.00  0.00    -0.023 A 
HETATM    3  C   UNK N   1      35.421  11.030  14.772  0.00  0.00     0.215 A 
HETATM    4  C   UNK N   1      35.287  12.687  17.092  0.00  0.00    -0.002 A 
HETATM    5  C   UNK N   1      35.297  13.305  15.771  0.00  0.00     0.024 A 
HETATM    6  C   UNK N   1      35.337  11.293  17.191  0.00  0.00     0.082 A 
HETATM    7  C   UNK N   1      35.237  13.476  18.243  0.00  0.00     0.017 A 
HETATM    8  C   UNK N   1      35.327  10.686  18.451  0.00  0.00     0.074 A 
HETATM    9  C   UNK N   1      35.272  11.475  19.606  0.00  0.00     0.068 A 
HETATM   10  C   UNK N   1      35.230  12.869  19.501  0.00  0.00     0.037 A 
ENDROOT
BRANCH   2  11
HETATM   11  C   UNK N   1      35.428  13.202  13.333  0.00  0.00    -0.028 A 
HETATM   12  C   UNK N   1      35.033  12.507  12.180  0.00  0.00     0.015 A 
HETATM   13  C   UNK N   1      35.159  13.099  10.920  0.00  0.00     0.037 A 
HETATM   14  C   UNK N   1      35.675  14.393  10.803  0.00  0.00     0.065 A 
HETATM   15  C   UNK N   1      36.053  15.101  11.945  0.00  0.00     0.037 A 
HETATM   16  C   UNK N   1      35.934  14.508  13.203  0.00  0.00     0.015 A 
BRANCH  14  17
HETATM   17  O   UNK N   1      35.815  14.954   9.591  0.00  0.00    -0.361 OA
HETATM   18  H   UNK N   1      36.360  14.548   8.946  0.00  0.00     0.217 HD
ENDBRANCH  14  17
ENDBRANCH   2  11
BRANCH   9  19
HETATM   19  O   UNK N   1      35.257  10.894  20.816  0.00  0.00    -0.361 OA
HETATM   20  H   UNK N   1      36.010  10.432  21.128  0.00  0.00     0.217 HD
ENDBRANCH   9  19
TORSDOF 3
ENDMDL
