MODEL 1
REMARK VINA RESULT:      -7.6      0.000      0.000
REMARK  3 active torsions:
REMARK  status: ('A' for Active; 'I' for Inactive)
REMARK    1  A    between atoms: O_1  and  C_17 
REMARK    2  A    between atoms: O_1  and  C_19 
REMARK       I    between atoms: N_5  and  C_19 
REMARK    3  A    between atoms: N_5  and  C_20 
ROOT
HETATM    1  N   UNK N   1      32.254  16.408   6.286  0.00  0.00     0.108 N 
HETATM    2  N   UNK N   1      34.300  15.116   6.993  0.00  0.00    -0.354 N 
HETATM    3  C   UNK N   1      33.390  16.820   8.306  0.00  0.00     0.036 C 
HETATM    4  C   UNK N   1      33.036  15.727   7.295  0.00  0.00     0.336 C 
HETATM    5  C   UNK N   1      31.968  17.214   8.609  0.00  0.00     0.048 C 
HETATM    6  C   UNK N   1      34.424  16.050   9.073  0.00  0.00    -0.017 A 
HETATM    7  C   UNK N   1      31.338  17.169   7.172  0.00  0.00     0.276 C 
HETATM    8  C   UNK N   1      34.995  15.134   8.210  0.00  0.00     0.039 A 
HETATM    9  C   UNK N   1      34.119  18.017   7.674  0.00  0.00     0.025 C 
HETATM   10  C   UNK N   1      31.468  15.443   5.529  0.00  0.00     0.312 C 
HETATM   11  C   UNK N   1      34.913  16.235  10.368  0.00  0.00     0.047 A 
HETATM   12  C   UNK N   1      34.459  14.060   6.024  0.00  0.00     0.152 C 
HETATM   13  C   UNK N   1      36.049  14.321   8.590  0.00  0.00     0.033 A 
HETATM   14  C   UNK N   1      35.961  15.404  10.800  0.00  0.00     0.081 A 
HETATM   15  C   UNK N   1      36.530  14.462   9.893  0.00  0.00     0.040 A 
ENDROOT
BRANCH  14  16
HETATM   16  O   UNK N   1      36.445  15.512  12.066  0.00  0.00    -0.261 OA
BRANCH  16  17
HETATM   17  C   UNK N   1      35.999  14.693  13.051  0.00  0.00     0.370 C 
HETATM   18  O   UNK N   1      34.951  14.073  12.893  0.00  0.00    -0.238 OA
HETATM   19  N   UNK N   1      36.772  14.467  14.140  0.00  0.00    -0.302 N 
HETATM   20  H   UNK N   1      37.473  15.122  14.363  0.00  0.00     0.171 HD
BRANCH  19  21
HETATM   21  C   UNK N   1      36.620  13.326  14.979  0.00  0.00     0.036 A 
HETATM   22  C   UNK N   1      37.188  12.107  14.601  0.00  0.00     0.029 A 
HETATM   23  C   UNK N   1      36.944  10.953  15.357  0.00  0.00     0.002 A 
HETATM   24  C   UNK N   1      36.110  11.010  16.478  0.00  0.00     0.000 A 
HETATM   25  C   UNK N   1      35.526  12.220  16.855  0.00  0.00     0.002 A 
HETATM   26  C   UNK N   1      35.775  13.368  16.106  0.00  0.00     0.029 A 
ENDBRANCH  19  21
ENDBRANCH  16  17
ENDBRANCH  14  16
TORSDOF 3
ENDMDL
MODEL 2
REMARK VINA RESULT:      -7.5      2.010      7.895
REMARK  3 active torsions:
REMARK  status: ('A' for Active; 'I' for Inactive)
REMARK    1  A    between atoms: O_1  and  C_17 
REMARK    2  A    between atoms: O_1  and  C_19 
REMARK       I    between atoms: N_5  and  C_19 
REMARK    3  A    between atoms: N_5  and  C_20 
ROOT
HETATM    1  N   UNK N   1      37.010  10.916  14.248  0.00  0.00     0.108 N 
HETATM    2  N   UNK N   1      37.095  11.786  11.883  0.00  0.00    -0.354 N 
HETATM    3  C   UNK N   1      36.130  13.009  13.623  0.00  0.00     0.036 C 
HETATM    4  C   UNK N   1      37.222  11.988  13.299  0.00  0.00     0.336 C 
HETATM    5  C   UNK N   1      36.524  13.201  15.064  0.00  0.00     0.048 C 
HETATM    6  C   UNK N   1      36.284  13.858  12.398  0.00  0.00    -0.017 A 
HETATM    7  C   UNK N   1      36.846  11.723  15.482  0.00  0.00     0.276 C 
HETATM    8  C   UNK N   1      36.758  13.051  11.381  0.00  0.00     0.039 A 
HETATM    9  C   UNK N   1      34.712  12.417  13.566  0.00  0.00     0.025 C 
HETATM   10  C   UNK N   1      38.220  10.116  14.376  0.00  0.00     0.312 C 
HETATM   11  C   UNK N   1      35.911  15.183  12.163  0.00  0.00     0.047 A 
HETATM   12  C   UNK N   1      37.896  10.846  11.140  0.00  0.00     0.152 C 
HETATM   13  C   UNK N   1      36.929  13.518  10.089  0.00  0.00     0.033 A 
HETATM   14  C   UNK N   1      36.102  15.701  10.870  0.00  0.00     0.081 A 
HETATM   15  C   UNK N   1      36.598  14.850   9.839  0.00  0.00     0.040 A 
ENDROOT
BRANCH  14  16
HETATM   16  O   UNK N   1      35.796  16.998  10.599  0.00  0.00    -0.261 OA
BRANCH  16  17
HETATM   17  C   UNK N   1      34.832  17.309   9.697  0.00  0.00     0.370 C 
HETATM   18  O   UNK N   1      35.073  18.126   8.812  0.00  0.00    -0.238 OA
HETATM   19  N   UNK N   1      33.662  16.626   9.699  0.00  0.00    -0.302 N 
HETATM   20  H   UNK N   1      33.393  16.157  10.522  0.00  0.00     0.171 HD
BRANCH  19  21
HETATM   21  C   UNK N   1      32.801  16.553   8.566  0.00  0.00     0.036 A 
HETATM   22  C   UNK N   1      31.737  17.450   8.445  0.00  0.00     0.029 A 
HETATM   23  C   UNK N   1      30.817  17.311   7.398  0.00  0.00     0.002 A 
HETATM   24  C   UNK N   1      30.943  16.260   6.484  0.00  0.00     0.000 A 
HETATM   25  C   UNK N   1      31.994  15.351   6.606  0.00  0.00     0.002 A 
HETATM   26  C   UNK N   1      32.913  15.493   7.643  0.00  0.00     0.029 A 
ENDBRANCH  19  21
ENDBRANCH  16  17
ENDBRANCH  14  16
TORSDOF 3
ENDMDL
MODEL 3
REMARK VINA RESULT:      -7.2      2.078      8.750
REMARK  3 active torsions:
REMARK  status: ('A' for Active; 'I' for Inactive)
REMARK    1  A    between atoms: O_1  and  C_17 
REMARK    2  A    between atoms: O_1  and  C_19 
REMARK       I    between atoms: N_5  and  C_19 
REMARK    3  A    between atoms: N_5  and  C_20 
ROOT
HETATM    1  N   UNK N   1      35.977   9.682  16.895  0.00  0.00     0.108 N 
HETATM    2  N   UNK N   1      36.933  10.291  14.643  0.00  0.00    -0.354 N 
HETATM    3  C   UNK N   1      35.280  11.575  15.680  0.00  0.00     0.036 C 
HETATM    4  C   UNK N   1      36.476  10.661  15.953  0.00  0.00     0.336 C 
HETATM    5  C   UNK N   1      35.059  11.970  17.117  0.00  0.00     0.048 C 
HETATM    6  C   UNK N   1      35.851  12.297  14.496  0.00  0.00    -0.017 A 
HETATM    7  C   UNK N   1      35.285  10.595  17.839  0.00  0.00     0.276 C 
HETATM    8  C   UNK N   1      36.740  11.444  13.870  0.00  0.00     0.039 A 
HETATM    9  C   UNK N   1      34.043  10.817  15.172  0.00  0.00     0.025 C 
HETATM   10  C   UNK N   1      37.087   9.049  17.593  0.00  0.00     0.312 C 
HETATM   11  C   UNK N   1      35.515  13.535  13.944  0.00  0.00     0.047 A 
HETATM   12  C   UNK N   1      38.022   9.376  14.411  0.00  0.00     0.152 C 
HETATM   13  C   UNK N   1      37.377  11.783  12.688  0.00  0.00     0.033 A 
HETATM   14  C   UNK N   1      36.167  13.926  12.762  0.00  0.00     0.081 A 
HETATM   15  C   UNK N   1      37.085  13.031  12.137  0.00  0.00     0.040 A 
ENDROOT
BRANCH  14  16
HETATM   16  O   UNK N   1      35.909  15.140  12.206  0.00  0.00    -0.261 OA
BRANCH  16  17
HETATM   17  C   UNK N   1      35.131  15.245  11.101  0.00  0.00     0.370 C 
HETATM   18  O   UNK N   1      33.921  15.058  11.194  0.00  0.00    -0.238 OA
HETATM   19  N   UNK N   1      35.669  15.680   9.936  0.00  0.00    -0.302 N 
HETATM   20  H   UNK N   1      36.643  15.605   9.812  0.00  0.00     0.171 HD
BRANCH  19  21
HETATM   21  C   UNK N   1      34.893  16.242   8.882  0.00  0.00     0.036 A 
HETATM   22  C   UNK N   1      34.608  15.478   7.748  0.00  0.00     0.029 A 
HETATM   23  C   UNK N   1      33.949  16.059   6.657  0.00  0.00     0.002 A 
HETATM   24  C   UNK N   1      33.596  17.412   6.686  0.00  0.00     0.000 A 
HETATM   25  C   UNK N   1      33.891  18.187   7.808  0.00  0.00     0.002 A 
HETATM   26  C   UNK N   1      34.540  17.607   8.896  0.00  0.00     0.029 A 
ENDBRANCH  19  21
ENDBRANCH  16  17
ENDBRANCH  14  16
TORSDOF 3
ENDMDL
MODEL 4
REMARK VINA RESULT:      -7.1      2.631      7.997
REMARK  3 active torsions:
REMARK  status: ('A' for Active; 'I' for Inactive)
REMARK    1  A    between atoms: O_1  and  C_17 
REMARK    2  A    between atoms: O_1  and  C_19 
REMARK       I    between atoms: N_5  and  C_19 
REMARK    3  A    between atoms: N_5  and  C_20 
ROOT
HETATM    1  N   UNK N   1      36.160   8.651  13.652  0.00  0.00     0.108 N 
HETATM    2  N   UNK N   1      37.015  10.308  11.955  0.00  0.00    -0.354 N 
HETATM    3  C   UNK N   1      35.321  10.843  13.472  0.00  0.00     0.036 C 
HETATM    4  C   UNK N   1      36.575   9.987  13.284  0.00  0.00     0.336 C 
HETATM    5  C   UNK N   1      35.119  10.501  14.925  0.00  0.00     0.048 C 
HETATM    6  C   UNK N   1      35.816  12.072  12.770  0.00  0.00    -0.017 A 
HETATM    7  C   UNK N   1      35.444   8.965  14.914  0.00  0.00     0.276 C 
HETATM    8  C   UNK N   1      36.734  11.673  11.817  0.00  0.00     0.039 A 
HETATM    9  C   UNK N   1      34.115  10.336  12.665  0.00  0.00     0.025 C 
HETATM   10  C   UNK N   1      37.324   7.836  13.972  0.00  0.00     0.312 C 
HETATM   11  C   UNK N   1      35.393  13.400  12.866  0.00  0.00     0.047 A 
HETATM   12  C   UNK N   1      38.147   9.681  11.321  0.00  0.00     0.152 C 
HETATM   13  C   UNK N   1      37.316  12.569  10.935  0.00  0.00     0.033 A 
HETATM   14  C   UNK N   1      35.988  14.343  12.008  0.00  0.00     0.081 A 
HETATM   15  C   UNK N   1      36.937  13.908  11.037  0.00  0.00     0.040 A 
ENDROOT
BRANCH  14  16
HETATM   16  O   UNK N   1      35.645  15.656  12.091  0.00  0.00    -0.261 OA
BRANCH  16  17
HETATM   17  C   UNK N   1      35.276  16.346  10.983  0.00  0.00     0.370 C 
HETATM   18  O   UNK N   1      35.989  17.258  10.574  0.00  0.00    -0.238 OA
HETATM   19  N   UNK N   1      34.198  15.945  10.268  0.00  0.00    -0.302 N 
HETATM   20  H   UNK N   1      33.521  15.384  10.712  0.00  0.00     0.171 HD
BRANCH  19  21
HETATM   21  C   UNK N   1      33.996  16.295   8.902  0.00  0.00     0.036 A 
HETATM   22  C   UNK N   1      34.623  15.555   7.897  0.00  0.00     0.029 A 
HETATM   23  C   UNK N   1      34.528  15.963   6.560  0.00  0.00     0.002 A 
HETATM   24  C   UNK N   1      33.827  17.127   6.227  0.00  0.00     0.000 A 
HETATM   25  C   UNK N   1      33.211  17.881   7.226  0.00  0.00     0.002 A 
HETATM   26  C   UNK N   1      33.300  17.471   8.554  0.00  0.00     0.029 A 
ENDBRANCH  19  21
ENDBRANCH  16  17
ENDBRANCH  14  16
TORSDOF 3
ENDMDL
MODEL 5
REMARK VINA RESULT:      -7.0      2.654      9.738
REMARK  3 active torsions:
REMARK  status: ('A' for Active; 'I' for Inactive)
REMARK    1  A    between atoms: O_1  and  C_17 
REMARK    2  A    between atoms: O_1  and  C_19 
REMARK       I    between atoms: N_5  and  C_19 
REMARK    3  A    between atoms: N_5  and  C_20 
ROOT
HETATM    1  N   UNK N   1      36.144   8.693  19.096  0.00  0.00     0.108 N 
HETATM    2  N   UNK N   1      37.090   9.126  16.799  0.00  0.00    -0.354 N 
HETATM    3  C   UNK N   1      35.607  10.605  17.832  0.00  0.00     0.036 C 
HETATM    4  C   UNK N   1      36.712   9.583  18.107  0.00  0.00     0.336 C 
HETATM    5  C   UNK N   1      35.469  11.068  19.259  0.00  0.00     0.048 C 
HETATM    6  C   UNK N   1      36.212  11.225  16.609  0.00  0.00    -0.017 A 
HETATM    7  C   UNK N   1      35.577   9.702  20.024  0.00  0.00     0.276 C 
HETATM    8  C   UNK N   1      36.991  10.266  15.990  0.00  0.00     0.039 A 
HETATM    9  C   UNK N   1      34.284   9.960  17.385  0.00  0.00     0.025 C 
HETATM   10  C   UNK N   1      37.205   7.974  19.787  0.00  0.00     0.312 C 
HETATM   11  C   UNK N   1      35.986  12.472  16.021  0.00  0.00     0.047 A 
HETATM   12  C   UNK N   1      38.074   8.097  16.572  0.00  0.00     0.152 C 
HETATM   13  C   UNK N   1      37.624  10.499  14.781  0.00  0.00     0.033 A 
HETATM   14  C   UNK N   1      36.639  12.755  14.808  0.00  0.00     0.081 A 
HETATM   15  C   UNK N   1      37.443  11.751  14.193  0.00  0.00     0.040 A 
ENDROOT
BRANCH  14  16
HETATM   16  O   UNK N   1      36.488  13.970  14.216  0.00  0.00    -0.261 OA
BRANCH  16  17
HETATM   17  C   UNK N   1      35.950  14.074  12.976  0.00  0.00     0.370 C 
HETATM   18  O   UNK N   1      34.769  13.787  12.804  0.00  0.00    -0.238 OA
HETATM   19  N   UNK N   1      36.679  14.615  11.969  0.00  0.00    -0.302 N 
HETATM   20  H   UNK N   1      37.660  14.624  12.052  0.00  0.00     0.171 HD
BRANCH  19  21
HETATM   21  C   UNK N   1      36.092  15.171  10.797  0.00  0.00     0.036 A 
HETATM   22  C   UNK N   1      35.521  16.445  10.845  0.00  0.00     0.029 A 
HETATM   23  C   UNK N   1      34.838  16.952   9.732  0.00  0.00     0.002 A 
HETATM   24  C   UNK N   1      34.701  16.176   8.577  0.00  0.00     0.000 A 
HETATM   25  C   UNK N   1      35.254  14.896   8.524  0.00  0.00     0.002 A 
HETATM   26  C   UNK N   1      35.940  14.396   9.629  0.00  0.00     0.029 A 
ENDBRANCH  19  21
ENDBRANCH  16  17
ENDBRANCH  14  16
TORSDOF 3
ENDMDL
MODEL 6
REMARK VINA RESULT:      -7.0      6.196      9.367
REMARK  3 active torsions:
REMARK  status: ('A' for Active; 'I' for Inactive)
REMARK    1  A    between atoms: O_1  and  C_17 
REMARK    2  A    between atoms: O_1  and  C_19 
REMARK       I    between atoms: N_5  and  C_19 
REMARK    3  A    between atoms: N_5  and  C_20 
ROOT
HETATM    1  N   UNK N   1      36.759  11.003  13.295  0.00  0.00     0.108 N 
HETATM    2  N   UNK N   1      35.743  12.454  15.089  0.00  0.00    -0.354 N 
HETATM    3  C   UNK N   1      36.361  10.237  15.485  0.00  0.00     0.036 C 
HETATM    4  C   UNK N   1      36.706  11.479  14.660  0.00  0.00     0.336 C 
HETATM    5  C   UNK N   1      37.540   9.418  15.027  0.00  0.00     0.048 C 
HETATM    6  C   UNK N   1      36.039  10.938  16.770  0.00  0.00    -0.017 A 
HETATM    7  C   UNK N   1      37.578   9.783  13.501  0.00  0.00     0.276 C 
HETATM    8  C   UNK N   1      35.581  12.204  16.458  0.00  0.00     0.039 A 
HETATM    9  C   UNK N   1      35.065   9.548  15.029  0.00  0.00     0.025 C 
HETATM   10  C   UNK N   1      37.517  11.935  12.471  0.00  0.00     0.312 C 
HETATM   11  C   UNK N   1      36.019  10.457  18.082  0.00  0.00     0.047 A 
HETATM   12  C   UNK N   1      35.650  13.778  14.527  0.00  0.00     0.152 C 
HETATM   13  C   UNK N   1      35.118  13.079  17.426  0.00  0.00     0.033 A 
HETATM   14  C   UNK N   1      35.587  11.331  19.095  0.00  0.00     0.081 A 
HETATM   15  C   UNK N   1      35.124  12.635  18.749  0.00  0.00     0.040 A 
ENDROOT
BRANCH  14  16
HETATM   16  O   UNK N   1      35.590  10.928  20.394  0.00  0.00    -0.261 OA
BRANCH  16  17
HETATM   17  C   UNK N   1      34.521  10.280  20.921  0.00  0.00     0.370 C 
HETATM   18  O   UNK N   1      33.661  10.920  21.520  0.00  0.00    -0.238 OA
HETATM   19  N   UNK N   1      34.346   8.960  20.673  0.00  0.00    -0.302 N 
HETATM   20  H   UNK N   1      35.127   8.424  20.404  0.00  0.00     0.171 HD
BRANCH  19  21
HETATM   21  C   UNK N   1      33.083   8.308  20.784  0.00  0.00     0.036 A 
HETATM   22  C   UNK N   1      32.903   7.302  21.736  0.00  0.00     0.029 A 
HETATM   23  C   UNK N   1      31.706   6.576  21.773  0.00  0.00     0.002 A 
HETATM   24  C   UNK N   1      30.696   6.836  20.841  0.00  0.00     0.000 A 
HETATM   25  C   UNK N   1      30.873   7.829  19.877  0.00  0.00     0.002 A 
HETATM   26  C   UNK N   1      32.061   8.555  19.846  0.00  0.00     0.029 A 
ENDBRANCH  19  21
ENDBRANCH  16  17
ENDBRANCH  14  16
TORSDOF 3
ENDMDL
MODEL 7
REMARK VINA RESULT:      -7.0      2.765      7.756
REMARK  3 active torsions:
REMARK  status: ('A' for Active; 'I' for Inactive)
REMARK    1  A    between atoms: O_1  and  C_17 
REMARK    2  A    between atoms: O_1  and  C_19 
REMARK       I    between atoms: N_5  and  C_19 
REMARK    3  A    between atoms: N_5  and  C_20 
ROOT
HETATM    1  N   UNK N   1      35.233  10.574  11.794  0.00  0.00     0.108 N 
HETATM    2  N   UNK N   1      35.498  13.000  12.428  0.00  0.00    -0.354 N 
HETATM    3  C   UNK N   1      35.457  12.293  10.202  0.00  0.00     0.036 C 
HETATM    4  C   UNK N   1      34.926  11.974  11.601  0.00  0.00     0.336 C 
HETATM    5  C   UNK N   1      34.642  11.247   9.488  0.00  0.00     0.048 C 
HETATM    6  C   UNK N   1      35.355  13.787  10.289  0.00  0.00    -0.017 A 
HETATM    7  C   UNK N   1      34.759  10.046  10.491  0.00  0.00     0.276 C 
HETATM    8  C   UNK N   1      35.493  14.143  11.618  0.00  0.00     0.039 A 
HETATM    9  C   UNK N   1      36.950  11.968  10.033  0.00  0.00     0.025 C 
HETATM   10  C   UNK N   1      34.396  10.020  12.849  0.00  0.00     0.312 C 
HETATM   11  C   UNK N   1      35.288  14.749   9.279  0.00  0.00     0.047 A 
HETATM   12  C   UNK N   1      35.314  13.061  13.857  0.00  0.00     0.152 C 
HETATM   13  C   UNK N   1      35.529  15.466  12.026  0.00  0.00     0.033 A 
HETATM   14  C   UNK N   1      35.289  16.103   9.660  0.00  0.00     0.081 A 
HETATM   15  C   UNK N   1      35.426  16.445  11.037  0.00  0.00     0.040 A 
ENDROOT
BRANCH  14  16
HETATM   16  O   UNK N   1      35.181  17.079   8.719  0.00  0.00    -0.261 OA
BRANCH  16  17
HETATM   17  C   UNK N   1      34.005  17.724   8.521  0.00  0.00     0.370 C 
HETATM   18  O   UNK N   1      33.995  18.787   7.905  0.00  0.00    -0.238 OA
HETATM   19  N   UNK N   1      32.843  17.134   8.888  0.00  0.00    -0.302 N 
HETATM   20  H   UNK N   1      32.872  16.420   9.566  0.00  0.00     0.171 HD
BRANCH  19  21
HETATM   21  C   UNK N   1      31.579  17.496   8.339  0.00  0.00     0.036 A 
HETATM   22  C   UNK N   1      30.722  18.328   9.063  0.00  0.00     0.029 A 
HETATM   23  C   UNK N   1      29.432  18.593   8.587  0.00  0.00     0.002 A 
HETATM   24  C   UNK N   1      28.986  18.006   7.398  0.00  0.00     0.000 A 
HETATM   25  C   UNK N   1      29.829  17.162   6.676  0.00  0.00     0.002 A 
HETATM   26  C   UNK N   1      31.114  16.904   7.147  0.00  0.00     0.029 A 
ENDBRANCH  19  21
ENDBRANCH  16  17
ENDBRANCH  14  16
TORSDOF 3
ENDMDL
MODEL 8
REMARK VINA RESULT:      -7.0     17.772     20.697
REMARK  3 active torsions:
REMARK  status: ('A' for Active; 'I' for Inactive)
REMARK    1  A    between atoms: O_1  and  C_17 
REMARK    2  A    between atoms: O_1  and  C_19 
REMARK       I    between atoms: N_5  and  C_19 
REMARK    3  A    between atoms: N_5  and  C_20 
ROOT
HETATM    1  N   UNK N   1      32.952  21.446  -5.052  0.00  0.00     0.108 N 
HETATM    2  N   UNK N   1      31.374  20.381  -6.705  0.00  0.00    -0.354 N 
HETATM    3  C   UNK N   1      30.708  22.115  -5.289  0.00  0.00     0.036 C 
HETATM    4  C   UNK N   1      31.906  21.541  -6.047  0.00  0.00     0.336 C 
HETATM    5  C   UNK N   1      31.407  23.365  -4.822  0.00  0.00     0.048 C 
HETATM    6  C   UNK N   1      29.669  21.855  -6.338  0.00  0.00    -0.017 A 
HETATM    7  C   UNK N   1      32.814  22.788  -4.435  0.00  0.00     0.276 C 
HETATM    8  C   UNK N   1      30.074  20.755  -7.070  0.00  0.00     0.039 A 
HETATM    9  C   UNK N   1      30.308  21.276  -4.064  0.00  0.00     0.025 C 
HETATM   10  C   UNK N   1      34.253  21.367  -5.701  0.00  0.00     0.312 C 
HETATM   11  C   UNK N   1      28.419  22.445  -6.539  0.00  0.00     0.047 A 
HETATM   12  C   UNK N   1      32.174  19.481  -7.497  0.00  0.00     0.152 C 
HETATM   13  C   UNK N   1      29.287  20.203  -8.068  0.00  0.00     0.033 A 
HETATM   14  C   UNK N   1      27.607  21.932  -7.567  0.00  0.00     0.081 A 
HETATM   15  C   UNK N   1      28.050  20.799  -8.312  0.00  0.00     0.040 A 
ENDROOT
BRANCH  14  16
HETATM   16  O   UNK N   1      26.400  22.497  -7.833  0.00  0.00    -0.261 OA
BRANCH  16  17
HETATM   17  C   UNK N   1      25.828  23.356  -6.953  0.00  0.00     0.370 C 
HETATM   18  O   UNK N   1      25.092  22.918  -6.073  0.00  0.00    -0.238 OA
HETATM   19  N   UNK N   1      26.170  24.667  -6.971  0.00  0.00    -0.302 N 
HETATM   20  H   UNK N   1      26.562  25.039  -7.795  0.00  0.00     0.171 HD
BRANCH  19  21
HETATM   21  C   UNK N   1      25.992  25.533  -5.854  0.00  0.00     0.036 A 
HETATM   22  C   UNK N   1      25.208  26.681  -5.987  0.00  0.00     0.029 A 
HETATM   23  C   UNK N   1      25.123  27.599  -4.932  0.00  0.00     0.002 A 
HETATM   24  C   UNK N   1      25.842  27.385  -3.752  0.00  0.00     0.000 A 
HETATM   25  C   UNK N   1      26.640  26.249  -3.617  0.00  0.00     0.002 A 
HETATM   26  C   UNK N   1      26.719  25.333  -4.663  0.00  0.00     0.029 A 
ENDBRANCH  19  21
ENDBRANCH  16  17
ENDBRANCH  14  16
TORSDOF 3
ENDMDL
MODEL 9
REMARK VINA RESULT:      -6.8     15.820     18.293
REMARK  3 active torsions:
REMARK  status: ('A' for Active; 'I' for Inactive)
REMARK    1  A    between atoms: O_1  and  C_17 
REMARK    2  A    between atoms: O_1  and  C_19 
REMARK       I    between atoms: N_5  and  C_19 
REMARK    3  A    between atoms: N_5  and  C_20 
ROOT
HETATM    1  N   UNK N   1      28.384  28.363  -4.986  0.00  0.00     0.108 N 
HETATM    2  N   UNK N   1      27.698  26.094  -4.127  0.00  0.00    -0.354 N 
HETATM    3  C   UNK N   1      29.934  26.660  -4.495  0.00  0.00     0.036 C 
HETATM    4  C   UNK N   1      28.571  27.234  -4.101  0.00  0.00     0.336 C 
HETATM    5  C   UNK N   1      30.708  27.930  -4.255  0.00  0.00     0.048 C 
HETATM    6  C   UNK N   1      29.828  25.368  -3.741  0.00  0.00    -0.017 A 
HETATM    7  C   UNK N   1      29.720  28.995  -4.848  0.00  0.00     0.276 C 
HETATM    8  C   UNK N   1      28.489  25.040  -3.653  0.00  0.00     0.039 A 
HETATM    9  C   UNK N   1      30.027  26.290  -5.983  0.00  0.00     0.025 C 
HETATM   10  C   UNK N   1      27.386  29.269  -4.436  0.00  0.00     0.312 C 
HETATM   11  C   UNK N   1      30.825  24.495  -3.299  0.00  0.00     0.047 A 
HETATM   12  C   UNK N   1      26.281  26.175  -3.876  0.00  0.00     0.152 C 
HETATM   13  C   UNK N   1      28.058  23.852  -3.085  0.00  0.00     0.033 A 
HETATM   14  C   UNK N   1      30.423  23.295  -2.687  0.00  0.00     0.081 A 
HETATM   15  C   UNK N   1      29.035  22.980  -2.602  0.00  0.00     0.040 A 
ENDROOT
BRANCH  14  16
HETATM   16  O   UNK N   1      31.352  22.430  -2.200  0.00  0.00    -0.261 OA
BRANCH  16  17
HETATM   17  C   UNK N   1      31.952  21.526  -3.013  0.00  0.00     0.370 C 
HETATM   18  O   UNK N   1      31.474  21.300  -4.122  0.00  0.00    -0.238 OA
HETATM   19  N   UNK N   1      33.138  20.978  -2.653  0.00  0.00    -0.302 N 
HETATM   20  H   UNK N   1      33.387  20.982  -1.701  0.00  0.00     0.171 HD
BRANCH  19  21
HETATM   21  C   UNK N   1      34.042  20.397  -3.588  0.00  0.00     0.036 A 
HETATM   22  C   UNK N   1      33.891  19.058  -3.957  0.00  0.00     0.029 A 
HETATM   23  C   UNK N   1      34.843  18.445  -4.781  0.00  0.00     0.002 A 
HETATM   24  C   UNK N   1      35.962  19.162  -5.218  0.00  0.00     0.000 A 
HETATM   25  C   UNK N   1      36.129  20.495  -4.842  0.00  0.00     0.002 A 
HETATM   26  C   UNK N   1      35.178  21.105  -4.028  0.00  0.00     0.029 A 
ENDBRANCH  19  21
ENDBRANCH  16  17
ENDBRANCH  14  16
TORSDOF 3
ENDMDL
