MODEL 1
REMARK VINA RESULT:      -6.4      0.000      0.000
REMARK  17 active torsions:
REMARK  status: ('A' for Active; 'I' for Inactive)
REMARK    1  A    between atoms: O_2  and  C_21 
REMARK    2  A    between atoms: O_2  and  C_22 
REMARK    3  A    between atoms: C_22  and  C_23 
REMARK    4  A    between atoms: C_23  and  C_24 
REMARK    5  A    between atoms: C_24  and  C_25 
REMARK    6  A    between atoms: C_25  and  C_26 
REMARK    7  A    between atoms: C_26  and  C_27 
REMARK    8  A    between atoms: C_27  and  C_28 
REMARK    9  A    between atoms: C_28  and  C_29 
REMARK   10  A    between atoms: C_29  and  C_35 
REMARK   11  A    between atoms: C_30  and  C_31 
REMARK   12  A    between atoms: C_30  and  C_32 
REMARK   13  A    between atoms: C_31  and  C_33 
REMARK   14  A    between atoms: C_32  and  C_34 
REMARK   15  A    between atoms: C_33  and  C_36 
REMARK   16  A    between atoms: C_34  and  C_37 
REMARK   17  A    between atoms: C_36  and  C_38 
ROOT
HETATM    1  O   UNK N   1      27.190  29.823  -2.313  0.00  0.00    -0.279 OA
ENDROOT
BRANCH   1   2
HETATM    2  C   UNK N   1      27.036  28.952  -3.338  0.00  0.00     0.079 A 
HETATM    3  C   UNK N   1      26.832  27.611  -3.029  0.00  0.00     0.045 A 
HETATM    4  C   UNK N   1      26.519  26.694  -4.028  0.00  0.00    -0.049 A 
HETATM    5  C   UNK N   1      26.430  27.120  -5.372  0.00  0.00    -0.047 A 
HETATM    6  C   UNK N   1      26.305  25.261  -3.618  0.00  0.00     0.039 C 
HETATM    7  C   UNK N   1      26.000  26.139  -6.439  0.00  0.00     0.024 C 
HETATM    8  C   UNK N   1      26.699  28.463  -5.687  0.00  0.00     0.011 A 
HETATM    9  C   UNK N   1      26.564  24.736  -6.105  0.00  0.00    -0.000 C 
HETATM   10  C   UNK N   1      26.351  26.597  -7.874  0.00  0.00     0.011 C 
HETATM   11  C   UNK N   1      26.118  23.765  -7.203  0.00  0.00     0.006 C 
HETATM   12  C   UNK N   1      25.981  24.295  -4.759  0.00  0.00     0.010 C 
HETATM   13  C   UNK N   1      26.602  24.210  -8.580  0.00  0.00     0.021 C 
HETATM   14  C   UNK N   1      26.570  22.307  -7.116  0.00  0.00     0.013 C 
HETATM   15  C   UNK N   1      25.944  25.547  -8.928  0.00  0.00     0.018 C 
HETATM   16  C   UNK N   1      26.208  23.004  -9.349  0.00  0.00     0.135 C 
HETATM   17  C   UNK N   1      28.128  24.336  -8.668  0.00  0.00     0.024 C 
HETATM   18  O   UNK N   1      25.652  23.051 -10.435  0.00  0.00    -0.297 OA
HETATM   19  C   UNK N   1      26.231  21.761  -8.514  0.00  0.00     0.079 C 
HETATM   20  C   UNK N   1      26.992  29.378  -4.672  0.00  0.00     0.038 A 
ENDBRANCH   1   2
BRANCH   1  21
HETATM   21  C   UNK N   1      28.325  29.868  -1.560  0.00  0.00     0.264 C 
HETATM   22  O   UNK N   1      28.315  29.567  -0.384  0.00  0.00    -0.265 OA
BRANCH  21  23
HETATM   23  C   UNK N   1      29.632  30.142  -2.232  0.00  0.00     0.111 C 
BRANCH  23  24
HETATM   24  C   UNK N   1      30.673  29.106  -1.866  0.00  0.00     0.010 C 
BRANCH  24  25
HETATM   25  C   UNK N   1      31.273  28.494  -3.121  0.00  0.00     0.000 C 
BRANCH  25  26
HETATM   26  C   UNK N   1      30.502  27.256  -3.547  0.00  0.00     0.000 C 
BRANCH  26  27
HETATM   27  C   UNK N   1      30.177  27.307  -5.029  0.00  0.00     0.000 C 
BRANCH  27  28
HETATM   28  C   UNK N   1      29.934  25.906  -5.555  0.00  0.00     0.004 C 
BRANCH  28  29
HETATM   29  C   UNK N   1      29.972  24.921  -4.403  0.00  0.00     0.027 C 
BRANCH  29  30
HETATM   30  C   UNK N   1      29.464  23.583  -4.847  0.00  0.00    -0.031 C 
HETATM   31  C   UNK N   1      29.649  22.475  -4.121  0.00  0.00    -0.031 C 
BRANCH  31  32
HETATM   32  C   UNK N   1      30.357  22.500  -2.804  0.00  0.00     0.027 C 
BRANCH  32  33
HETATM   33  C   UNK N   1      31.723  21.856  -2.905  0.00  0.00     0.004 C 
BRANCH  33  34
HETATM   34  C   UNK N   1      31.662  20.792  -3.981  0.00  0.00     0.000 C 
BRANCH  34  35
HETATM   35  C   UNK N   1      32.758  21.008  -5.003  0.00  0.00     0.000 C 
BRANCH  35  36
HETATM   36  C   UNK N   1      32.126  21.099  -6.376  0.00  0.00     0.000 C 
BRANCH  36  37
HETATM   37  C   UNK N   1      31.098  20.002  -6.549  0.00  0.00    -0.000 C 
BRANCH  37  38
HETATM   38  C   UNK N   1      29.981  20.506  -7.439  0.00  0.00    -0.005 C 
HETATM   39  C   UNK N   1      28.995  19.389  -7.702  0.00  0.00     0.005 C 
ENDBRANCH  37  38
ENDBRANCH  36  37
ENDBRANCH  35  36
ENDBRANCH  34  35
ENDBRANCH  33  34
ENDBRANCH  32  33
ENDBRANCH  31  32
ENDBRANCH  29  30
ENDBRANCH  28  29
ENDBRANCH  27  28
ENDBRANCH  26  27
ENDBRANCH  25  26
ENDBRANCH  24  25
ENDBRANCH  23  24
ENDBRANCH  21  23
ENDBRANCH   1  21
TORSDOF 17
ENDMDL
MODEL 2
REMARK VINA RESULT:      -6.3      2.529      6.097
REMARK  17 active torsions:
REMARK  status: ('A' for Active; 'I' for Inactive)
REMARK    1  A    between atoms: O_2  and  C_21 
REMARK    2  A    between atoms: O_2  and  C_22 
REMARK    3  A    between atoms: C_22  and  C_23 
REMARK    4  A    between atoms: C_23  and  C_24 
REMARK    5  A    between atoms: C_24  and  C_25 
REMARK    6  A    between atoms: C_25  and  C_26 
REMARK    7  A    between atoms: C_26  and  C_27 
REMARK    8  A    between atoms: C_27  and  C_28 
REMARK    9  A    between atoms: C_28  and  C_29 
REMARK   10  A    between atoms: C_29  and  C_35 
REMARK   11  A    between atoms: C_30  and  C_31 
REMARK   12  A    between atoms: C_30  and  C_32 
REMARK   13  A    between atoms: C_31  and  C_33 
REMARK   14  A    between atoms: C_32  and  C_34 
REMARK   15  A    between atoms: C_33  and  C_36 
REMARK   16  A    between atoms: C_34  and  C_37 
REMARK   17  A    between atoms: C_36  and  C_38 
ROOT
HETATM    1  O   UNK N   1      26.052  26.001  -3.750  0.00  0.00    -0.279 OA
ENDROOT
BRANCH   1   2
HETATM    2  C   UNK N   1      27.204  25.289  -3.783  0.00  0.00     0.079 A 
HETATM    3  C   UNK N   1      28.299  25.852  -4.432  0.00  0.00     0.045 A 
HETATM    4  C   UNK N   1      29.548  25.240  -4.371  0.00  0.00    -0.049 A 
HETATM    5  C   UNK N   1      29.704  24.026  -3.667  0.00  0.00    -0.047 A 
HETATM    6  C   UNK N   1      30.688  25.909  -5.092  0.00  0.00     0.039 C 
HETATM    7  C   UNK N   1      31.080  23.416  -3.527  0.00  0.00     0.024 C 
HETATM    8  C   UNK N   1      28.582  23.429  -3.067  0.00  0.00     0.011 A 
HETATM    9  C   UNK N   1      31.889  23.671  -4.823  0.00  0.00    -0.000 C 
HETATM   10  C   UNK N   1      31.053  21.921  -3.126  0.00  0.00     0.011 C 
HETATM   11  C   UNK N   1      33.275  23.038  -4.657  0.00  0.00     0.006 C 
HETATM   12  C   UNK N   1      32.032  25.184  -5.005  0.00  0.00     0.010 C 
HETATM   13  C   UNK N   1      33.182  21.540  -4.384  0.00  0.00     0.021 C 
HETATM   14  C   UNK N   1      34.265  23.133  -5.818  0.00  0.00     0.013 C 
HETATM   15  C   UNK N   1      32.473  21.323  -3.046  0.00  0.00     0.018 C 
HETATM   16  C   UNK N   1      34.624  21.210  -4.484  0.00  0.00     0.135 C 
HETATM   17  C   UNK N   1      32.455  20.772  -5.495  0.00  0.00     0.024 C 
HETATM   18  O   UNK N   1      35.206  20.486  -3.691  0.00  0.00    -0.297 OA
HETATM   19  C   UNK N   1      35.356  22.124  -5.419  0.00  0.00     0.079 C 
HETATM   20  C   UNK N   1      27.338  24.064  -3.117  0.00  0.00     0.038 A 
ENDBRANCH   1   2
BRANCH   1  21
HETATM   21  C   UNK N   1      26.016  27.308  -3.363  0.00  0.00     0.264 C 
HETATM   22  O   UNK N   1      26.137  27.624  -2.197  0.00  0.00    -0.265 OA
BRANCH  21  23
HETATM   23  C   UNK N   1      25.982  28.375  -4.409  0.00  0.00     0.111 C 
BRANCH  23  24
HETATM   24  C   UNK N   1      27.002  29.458  -4.131  0.00  0.00     0.010 C 
BRANCH  24  25
HETATM   25  C   UNK N   1      27.831  29.734  -5.374  0.00  0.00     0.000 C 
BRANCH  25  26
HETATM   26  C   UNK N   1      27.438  28.804  -6.510  0.00  0.00     0.000 C 
BRANCH  26  27
HETATM   27  C   UNK N   1      28.669  28.247  -7.202  0.00  0.00     0.000 C 
BRANCH  27  28
HETATM   28  C   UNK N   1      28.294  27.038  -8.035  0.00  0.00     0.004 C 
BRANCH  28  29
HETATM   29  C   UNK N   1      26.923  26.541  -7.616  0.00  0.00     0.027 C 
BRANCH  29  30
HETATM   30  C   UNK N   1      26.390  25.575  -8.628  0.00  0.00    -0.031 C 
HETATM   31  C   UNK N   1      25.900  24.379  -8.280  0.00  0.00    -0.031 C 
BRANCH  31  32
HETATM   32  C   UNK N   1      25.832  23.935  -6.854  0.00  0.00     0.027 C 
BRANCH  32  33
HETATM   33  C   UNK N   1      25.450  22.474  -6.754  0.00  0.00     0.004 C 
BRANCH  33  34
HETATM   34  C   UNK N   1      25.619  21.849  -8.122  0.00  0.00     0.000 C 
BRANCH  34  35
HETATM   35  C   UNK N   1      26.556  20.662  -8.051  0.00  0.00     0.000 C 
BRANCH  35  36
HETATM   36  C   UNK N   1      27.886  21.061  -8.654  0.00  0.00     0.000 C 
BRANCH  36  37
HETATM   37  C   UNK N   1      29.004  20.803  -7.667  0.00  0.00    -0.000 C 
BRANCH  37  38
HETATM   38  C   UNK N   1      29.060  21.944  -6.672  0.00  0.00    -0.005 C 
HETATM   39  C   UNK N   1      29.352  23.239  -7.399  0.00  0.00     0.005 C 
ENDBRANCH  37  38
ENDBRANCH  36  37
ENDBRANCH  35  36
ENDBRANCH  34  35
ENDBRANCH  33  34
ENDBRANCH  32  33
ENDBRANCH  31  32
ENDBRANCH  29  30
ENDBRANCH  28  29
ENDBRANCH  27  28
ENDBRANCH  26  27
ENDBRANCH  25  26
ENDBRANCH  24  25
ENDBRANCH  23  24
ENDBRANCH  21  23
ENDBRANCH   1  21
TORSDOF 17
ENDMDL
MODEL 3
REMARK VINA RESULT:      -6.0      3.048      7.303
REMARK  17 active torsions:
REMARK  status: ('A' for Active; 'I' for Inactive)
REMARK    1  A    between atoms: O_2  and  C_21 
REMARK    2  A    between atoms: O_2  and  C_22 
REMARK    3  A    between atoms: C_22  and  C_23 
REMARK    4  A    between atoms: C_23  and  C_24 
REMARK    5  A    between atoms: C_24  and  C_25 
REMARK    6  A    between atoms: C_25  and  C_26 
REMARK    7  A    between atoms: C_26  and  C_27 
REMARK    8  A    between atoms: C_27  and  C_28 
REMARK    9  A    between atoms: C_28  and  C_29 
REMARK   10  A    between atoms: C_29  and  C_35 
REMARK   11  A    between atoms: C_30  and  C_31 
REMARK   12  A    between atoms: C_30  and  C_32 
REMARK   13  A    between atoms: C_31  and  C_33 
REMARK   14  A    between atoms: C_32  and  C_34 
REMARK   15  A    between atoms: C_33  and  C_36 
REMARK   16  A    between atoms: C_34  and  C_37 
REMARK   17  A    between atoms: C_36  and  C_38 
ROOT
HETATM    1  O   UNK N   1      32.607  19.227  -4.086  0.00  0.00    -0.279 OA
ENDROOT
BRANCH   1   2
HETATM    2  C   UNK N   1      31.689  20.085  -4.590  0.00  0.00     0.079 A 
HETATM    3  C   UNK N   1      31.062  20.960  -3.708  0.00  0.00     0.045 A 
HETATM    4  C   UNK N   1      30.223  21.964  -4.184  0.00  0.00    -0.049 A 
HETATM    5  C   UNK N   1      29.984  22.083  -5.571  0.00  0.00    -0.047 A 
HETATM    6  C   UNK N   1      29.584  22.878  -3.173  0.00  0.00     0.039 C 
HETATM    7  C   UNK N   1      29.146  23.229  -6.089  0.00  0.00     0.024 C 
HETATM    8  C   UNK N   1      30.569  21.157  -6.452  0.00  0.00     0.011 A 
HETATM    9  C   UNK N   1      28.015  23.537  -5.077  0.00  0.00    -0.000 C 
HETATM   10  C   UNK N   1      28.617  23.007  -7.526  0.00  0.00     0.011 C 
HETATM   11  C   UNK N   1      27.179  24.698  -5.628  0.00  0.00     0.006 C 
HETATM   12  C   UNK N   1      28.660  23.950  -3.751  0.00  0.00     0.010 C 
HETATM   13  C   UNK N   1      26.585  24.366  -6.994  0.00  0.00     0.021 C 
HETATM   14  C   UNK N   1      25.976  25.180  -4.818  0.00  0.00     0.013 C 
HETATM   15  C   UNK N   1      27.724  24.173  -7.996  0.00  0.00     0.018 C 
HETATM   16  C   UNK N   1      25.704  25.550  -7.141  0.00  0.00     0.135 C 
HETATM   17  C   UNK N   1      25.688  23.123  -6.972  0.00  0.00     0.024 C 
HETATM   18  O   UNK N   1      25.613  26.198  -8.171  0.00  0.00    -0.297 OA
HETATM   19  C   UNK N   1      25.226  26.074  -5.821  0.00  0.00     0.079 C 
HETATM   20  C   UNK N   1      31.426  20.167  -5.964  0.00  0.00     0.038 A 
ENDBRANCH   1   2
BRANCH   1  21
HETATM   21  C   UNK N   1      33.933  19.537  -4.022  0.00  0.00     0.264 C 
HETATM   22  O   UNK N   1      34.786  18.722  -4.311  0.00  0.00    -0.265 OA
BRANCH  21  23
HETATM   23  C   UNK N   1      34.338  20.948  -3.741  0.00  0.00     0.111 C 
BRANCH  23  24
HETATM   24  C   UNK N   1      35.155  21.528  -4.876  0.00  0.00     0.010 C 
BRANCH  24  25
HETATM   25  C   UNK N   1      34.306  22.475  -5.706  0.00  0.00     0.000 C 
BRANCH  25  26
HETATM   26  C   UNK N   1      33.505  23.412  -4.818  0.00  0.00     0.000 C 
BRANCH  26  27
HETATM   27  C   UNK N   1      32.747  24.429  -5.653  0.00  0.00     0.000 C 
BRANCH  27  28
HETATM   28  C   UNK N   1      31.997  25.386  -4.748  0.00  0.00     0.004 C 
BRANCH  28  29
HETATM   29  C   UNK N   1      31.009  26.190  -5.570  0.00  0.00     0.027 C 
BRANCH  29  30
HETATM   30  C   UNK N   1      31.272  25.998  -7.032  0.00  0.00    -0.031 C 
HETATM   31  C   UNK N   1      30.489  26.539  -7.974  0.00  0.00    -0.031 C 
BRANCH  31  32
HETATM   32  C   UNK N   1      29.309  27.389  -7.629  0.00  0.00     0.027 C 
BRANCH  32  33
HETATM   33  C   UNK N   1      29.657  28.860  -7.695  0.00  0.00     0.004 C 
BRANCH  33  34
HETATM   34  C   UNK N   1      28.638  29.622  -6.874  0.00  0.00     0.000 C 
BRANCH  34  35
HETATM   35  C   UNK N   1      27.590  28.680  -6.321  0.00  0.00     0.000 C 
BRANCH  35  36
HETATM   36  C   UNK N   1      27.386  28.995  -4.855  0.00  0.00     0.000 C 
BRANCH  36  37
HETATM   37  C   UNK N   1      28.158  28.015  -3.998  0.00  0.00    -0.000 C 
BRANCH  37  38
HETATM   38  C   UNK N   1      28.976  28.783  -2.981  0.00  0.00    -0.005 C 
HETATM   39  C   UNK N   1      28.103  29.813  -2.298  0.00  0.00     0.005 C 
ENDBRANCH  37  38
ENDBRANCH  36  37
ENDBRANCH  35  36
ENDBRANCH  34  35
ENDBRANCH  33  34
ENDBRANCH  32  33
ENDBRANCH  31  32
ENDBRANCH  29  30
ENDBRANCH  28  29
ENDBRANCH  27  28
ENDBRANCH  26  27
ENDBRANCH  25  26
ENDBRANCH  24  25
ENDBRANCH  23  24
ENDBRANCH  21  23
ENDBRANCH   1  21
TORSDOF 17
ENDMDL
MODEL 4
REMARK VINA RESULT:      -6.0     14.121     16.654
REMARK  17 active torsions:
REMARK  status: ('A' for Active; 'I' for Inactive)
REMARK    1  A    between atoms: O_2  and  C_21 
REMARK    2  A    between atoms: O_2  and  C_22 
REMARK    3  A    between atoms: C_22  and  C_23 
REMARK    4  A    between atoms: C_23  and  C_24 
REMARK    5  A    between atoms: C_24  and  C_25 
REMARK    6  A    between atoms: C_25  and  C_26 
REMARK    7  A    between atoms: C_26  and  C_27 
REMARK    8  A    between atoms: C_27  and  C_28 
REMARK    9  A    between atoms: C_28  and  C_29 
REMARK   10  A    between atoms: C_29  and  C_35 
REMARK   11  A    between atoms: C_30  and  C_31 
REMARK   12  A    between atoms: C_30  and  C_32 
REMARK   13  A    between atoms: C_31  and  C_33 
REMARK   14  A    between atoms: C_32  and  C_34 
REMARK   15  A    between atoms: C_33  and  C_36 
REMARK   16  A    between atoms: C_34  and  C_37 
REMARK   17  A    between atoms: C_36  and  C_38 
ROOT
HETATM    1  O   UNK N   1      22.060  19.755   3.979  0.00  0.00    -0.279 OA
ENDROOT
BRANCH   1   2
HETATM    2  C   UNK N   1      22.300  18.567   4.582  0.00  0.00     0.079 A 
HETATM    3  C   UNK N   1      21.588  18.268   5.740  0.00  0.00     0.045 A 
HETATM    4  C   UNK N   1      21.679  17.006   6.320  0.00  0.00    -0.049 A 
HETATM    5  C   UNK N   1      22.518  16.026   5.746  0.00  0.00    -0.047 A 
HETATM    6  C   UNK N   1      20.874  16.752   7.567  0.00  0.00     0.039 C 
HETATM    7  C   UNK N   1      22.542  14.631   6.327  0.00  0.00     0.024 C 
HETATM    8  C   UNK N   1      23.284  16.353   4.614  0.00  0.00     0.011 A 
HETATM    9  C   UNK N   1      22.381  14.712   7.865  0.00  0.00    -0.000 C 
HETATM   10  C   UNK N   1      23.779  13.806   5.899  0.00  0.00     0.011 C 
HETATM   11  C   UNK N   1      22.414  13.286   8.428  0.00  0.00     0.006 C 
HETATM   12  C   UNK N   1      21.026  15.355   8.170  0.00  0.00     0.010 C 
HETATM   13  C   UNK N   1      23.714  12.570   8.073  0.00  0.00     0.021 C 
HETATM   14  C   UNK N   1      22.297  13.096   9.940  0.00  0.00     0.013 C 
HETATM   15  C   UNK N   1      23.793  12.409   6.554  0.00  0.00     0.018 C 
HETATM   16  C   UNK N   1      23.528  11.357   8.906  0.00  0.00     0.135 C 
HETATM   17  C   UNK N   1      24.960  13.298   8.591  0.00  0.00     0.024 C 
HETATM   18  O   UNK N   1      23.754  10.225   8.508  0.00  0.00    -0.297 OA
HETATM   19  C   UNK N   1      22.707  11.625  10.130  0.00  0.00     0.079 C 
HETATM   20  C   UNK N   1      23.168  17.617   4.028  0.00  0.00     0.038 A 
ENDBRANCH   1   2
BRANCH   1  21
HETATM   21  C   UNK N   1      20.857  20.053   3.411  0.00  0.00     0.264 C 
HETATM   22  O   UNK N   1      20.164  20.955   3.835  0.00  0.00    -0.265 OA
BRANCH  21  23
HETATM   23  C   UNK N   1      20.457  19.357   2.150  0.00  0.00     0.111 C 
BRANCH  23  24
HETATM   24  C   UNK N   1      19.521  18.200   2.426  0.00  0.00     0.010 C 
BRANCH  24  25
HETATM   25  C   UNK N   1      20.108  16.906   1.888  0.00  0.00     0.000 C 
BRANCH  25  26
HETATM   26  C   UNK N   1      20.089  15.815   2.945  0.00  0.00     0.000 C 
BRANCH  26  27
HETATM   27  C   UNK N   1      19.162  16.189   4.088  0.00  0.00     0.000 C 
BRANCH  27  28
HETATM   28  C   UNK N   1      18.997  15.011   5.027  0.00  0.00     0.004 C 
BRANCH  28  29
HETATM   29  C   UNK N   1      18.998  13.723   4.228  0.00  0.00     0.027 C 
BRANCH  29  30
HETATM   30  C   UNK N   1      19.857  12.696   4.899  0.00  0.00    -0.031 C 
HETATM   31  C   UNK N   1      20.853  12.072   4.259  0.00  0.00    -0.031 C 
BRANCH  31  32
HETATM   32  C   UNK N   1      21.190  12.374   2.834  0.00  0.00     0.027 C 
BRANCH  32  33
HETATM   33  C   UNK N   1      22.575  12.970   2.714  0.00  0.00     0.004 C 
BRANCH  33  34
HETATM   34  C   UNK N   1      23.516  11.883   2.239  0.00  0.00     0.000 C 
BRANCH  34  35
HETATM   35  C   UNK N   1      24.860  12.471   1.863  0.00  0.00     0.000 C 
BRANCH  35  36
HETATM   36  C   UNK N   1      24.832  13.957   2.150  0.00  0.00     0.000 C 
BRANCH  36  37
HETATM   37  C   UNK N   1      26.014  14.342   3.014  0.00  0.00    -0.000 C 
BRANCH  37  38
HETATM   38  C   UNK N   1      26.423  15.764   2.688  0.00  0.00    -0.005 C 
HETATM   39  C   UNK N   1      27.920  15.914   2.855  0.00  0.00     0.005 C 
ENDBRANCH  37  38
ENDBRANCH  36  37
ENDBRANCH  35  36
ENDBRANCH  34  35
ENDBRANCH  33  34
ENDBRANCH  32  33
ENDBRANCH  31  32
ENDBRANCH  29  30
ENDBRANCH  28  29
ENDBRANCH  27  28
ENDBRANCH  26  27
ENDBRANCH  25  26
ENDBRANCH  24  25
ENDBRANCH  23  24
ENDBRANCH  21  23
ENDBRANCH   1  21
TORSDOF 17
ENDMDL
MODEL 5
REMARK VINA RESULT:      -5.9      0.940      2.093
REMARK  17 active torsions:
REMARK  status: ('A' for Active; 'I' for Inactive)
REMARK    1  A    between atoms: O_2  and  C_21 
REMARK    2  A    between atoms: O_2  and  C_22 
REMARK    3  A    between atoms: C_22  and  C_23 
REMARK    4  A    between atoms: C_23  and  C_24 
REMARK    5  A    between atoms: C_24  and  C_25 
REMARK    6  A    between atoms: C_25  and  C_26 
REMARK    7  A    between atoms: C_26  and  C_27 
REMARK    8  A    between atoms: C_27  and  C_28 
REMARK    9  A    between atoms: C_28  and  C_29 
REMARK   10  A    between atoms: C_29  and  C_35 
REMARK   11  A    between atoms: C_30  and  C_31 
REMARK   12  A    between atoms: C_30  and  C_32 
REMARK   13  A    between atoms: C_31  and  C_33 
REMARK   14  A    between atoms: C_32  and  C_34 
REMARK   15  A    between atoms: C_33  and  C_36 
REMARK   16  A    between atoms: C_34  and  C_37 
REMARK   17  A    between atoms: C_36  and  C_38 
ROOT
HETATM    1  O   UNK N   1      27.023  29.361  -2.534  0.00  0.00    -0.279 OA
ENDROOT
BRANCH   1   2
HETATM    2  C   UNK N   1      26.874  28.517  -3.582  0.00  0.00     0.079 A 
HETATM    3  C   UNK N   1      26.756  27.157  -3.313  0.00  0.00     0.045 A 
HETATM    4  C   UNK N   1      26.451  26.257  -4.330  0.00  0.00    -0.049 A 
HETATM    5  C   UNK N   1      26.283  26.722  -5.654  0.00  0.00    -0.047 A 
HETATM    6  C   UNK N   1      26.332  24.802  -3.963  0.00  0.00     0.039 C 
HETATM    7  C   UNK N   1      25.862  25.755  -6.736  0.00  0.00     0.024 C 
HETATM    8  C   UNK N   1      26.466  28.088  -5.932  0.00  0.00     0.011 A 
HETATM    9  C   UNK N   1      26.514  24.375  -6.474  0.00  0.00    -0.000 C 
HETATM   10  C   UNK N   1      26.128  26.278  -8.168  0.00  0.00     0.011 C 
HETATM   11  C   UNK N   1      26.076  23.416  -7.588  0.00  0.00     0.006 C 
HETATM   12  C   UNK N   1      26.013  23.858  -5.123  0.00  0.00     0.010 C 
HETATM   13  C   UNK N   1      26.477  23.933  -8.966  0.00  0.00     0.021 C 
HETATM   14  C   UNK N   1      26.609  21.984  -7.569  0.00  0.00     0.013 C 
HETATM   15  C   UNK N   1      25.734  25.242  -9.241  0.00  0.00     0.018 C 
HETATM   16  C   UNK N   1      26.117  22.733  -9.761  0.00  0.00     0.135 C 
HETATM   17  C   UNK N   1      27.988  24.146  -9.111  0.00  0.00     0.024 C 
HETATM   18  O   UNK N   1      25.514  22.784 -10.821  0.00  0.00    -0.297 OA
HETATM   19  C   UNK N   1      26.242  21.467  -8.972  0.00  0.00     0.079 C 
HETATM   20  C   UNK N   1      26.751  28.984  -4.898  0.00  0.00     0.038 A 
ENDBRANCH   1   2
BRANCH   1  21
HETATM   21  C   UNK N   1      28.243  29.644  -1.996  0.00  0.00     0.264 C 
HETATM   22  O   UNK N   1      28.442  29.554  -0.801  0.00  0.00    -0.265 OA
BRANCH  21  23
HETATM   23  C   UNK N   1      29.395  29.918  -2.908  0.00  0.00     0.111 C 
BRANCH  23  24
HETATM   24  C   UNK N   1      30.656  29.227  -2.435  0.00  0.00     0.010 C 
BRANCH  24  25
HETATM   25  C   UNK N   1      30.722  27.813  -2.988  0.00  0.00     0.000 C 
BRANCH  25  26
HETATM   26  C   UNK N   1      30.374  27.788  -4.467  0.00  0.00     0.000 C 
BRANCH  26  27
HETATM   27  C   UNK N   1      30.111  26.368  -4.935  0.00  0.00     0.000 C 
BRANCH  27  28
HETATM   28  C   UNK N   1      30.053  25.432  -3.744  0.00  0.00     0.004 C 
BRANCH  28  29
HETATM   29  C   UNK N   1      30.811  24.159  -4.065  0.00  0.00     0.027 C 
BRANCH  29  30
HETATM   30  C   UNK N   1      29.884  22.983  -4.044  0.00  0.00    -0.031 C 
HETATM   31  C   UNK N   1      29.465  22.388  -5.167  0.00  0.00    -0.031 C 
BRANCH  31  32
HETATM   32  C   UNK N   1      29.911  22.844  -6.520  0.00  0.00     0.027 C 
BRANCH  32  33
HETATM   33  C   UNK N   1      30.327  21.672  -7.382  0.00  0.00     0.004 C 
BRANCH  33  34
HETATM   34  C   UNK N   1      31.487  20.976  -6.702  0.00  0.00     0.000 C 
BRANCH  34  35
HETATM   35  C   UNK N   1      32.764  21.768  -6.888  0.00  0.00     0.000 C 
BRANCH  35  36
HETATM   36  C   UNK N   1      33.773  21.303  -5.859  0.00  0.00     0.000 C 
BRANCH  36  37
HETATM   37  C   UNK N   1      33.143  21.286  -4.483  0.00  0.00    -0.000 C 
BRANCH  37  38
HETATM   38  C   UNK N   1      34.161  20.784  -3.480  0.00  0.00    -0.005 C 
HETATM   39  C   UNK N   1      35.558  21.088  -3.975  0.00  0.00     0.005 C 
ENDBRANCH  37  38
ENDBRANCH  36  37
ENDBRANCH  35  36
ENDBRANCH  34  35
ENDBRANCH  33  34
ENDBRANCH  32  33
ENDBRANCH  31  32
ENDBRANCH  29  30
ENDBRANCH  28  29
ENDBRANCH  27  28
ENDBRANCH  26  27
ENDBRANCH  25  26
ENDBRANCH  24  25
ENDBRANCH  23  24
ENDBRANCH  21  23
ENDBRANCH   1  21
TORSDOF 17
ENDMDL
MODEL 6
REMARK VINA RESULT:      -5.8     12.124     15.228
REMARK  17 active torsions:
REMARK  status: ('A' for Active; 'I' for Inactive)
REMARK    1  A    between atoms: O_2  and  C_21 
REMARK    2  A    between atoms: O_2  and  C_22 
REMARK    3  A    between atoms: C_22  and  C_23 
REMARK    4  A    between atoms: C_23  and  C_24 
REMARK    5  A    between atoms: C_24  and  C_25 
REMARK    6  A    between atoms: C_25  and  C_26 
REMARK    7  A    between atoms: C_26  and  C_27 
REMARK    8  A    between atoms: C_27  and  C_28 
REMARK    9  A    between atoms: C_28  and  C_29 
REMARK   10  A    between atoms: C_29  and  C_35 
REMARK   11  A    between atoms: C_30  and  C_31 
REMARK   12  A    between atoms: C_30  and  C_32 
REMARK   13  A    between atoms: C_31  and  C_33 
REMARK   14  A    between atoms: C_32  and  C_34 
REMARK   15  A    between atoms: C_33  and  C_36 
REMARK   16  A    between atoms: C_34  and  C_37 
REMARK   17  A    between atoms: C_36  and  C_38 
ROOT
HETATM    1  O   UNK N   1      22.354  20.689   3.034  0.00  0.00    -0.279 OA
ENDROOT
BRANCH   1   2
HETATM    2  C   UNK N   1      23.378  19.858   3.341  0.00  0.00     0.079 A 
HETATM    3  C   UNK N   1      24.647  20.412   3.482  0.00  0.00     0.045 A 
HETATM    4  C   UNK N   1      25.710  19.639   3.942  0.00  0.00    -0.049 A 
HETATM    5  C   UNK N   1      25.508  18.275   4.247  0.00  0.00    -0.047 A 
HETATM    6  C   UNK N   1      27.052  20.307   4.075  0.00  0.00     0.039 C 
HETATM    7  C   UNK N   1      26.641  17.466   4.834  0.00  0.00     0.024 C 
HETATM    8  C   UNK N   1      24.239  17.705   4.044  0.00  0.00     0.011 A 
HETATM    9  C   UNK N   1      27.981  17.932   4.211  0.00  0.00    -0.000 C 
HETATM   10  C   UNK N   1      26.431  15.937   4.719  0.00  0.00     0.011 C 
HETATM   11  C   UNK N   1      29.111  17.092   4.818  0.00  0.00     0.006 C 
HETATM   12  C   UNK N   1      28.185  19.406   4.569  0.00  0.00     0.010 C 
HETATM   13  C   UNK N   1      28.905  15.602   4.563  0.00  0.00     0.021 C 
HETATM   14  C   UNK N   1      30.543  17.345   4.346  0.00  0.00     0.013 C 
HETATM   15  C   UNK N   1      27.632  15.148   5.279  0.00  0.00     0.018 C 
HETATM   16  C   UNK N   1      30.213  15.113   5.064  0.00  0.00     0.135 C 
HETATM   17  C   UNK N   1      28.822  15.254   3.072  0.00  0.00     0.024 C 
HETATM   18  O   UNK N   1      30.335  14.137   5.787  0.00  0.00    -0.297 OA
HETATM   19  C   UNK N   1      31.303  16.127   4.898  0.00  0.00     0.079 C 
HETATM   20  C   UNK N   1      23.175  18.496   3.601  0.00  0.00     0.038 A 
ENDBRANCH   1   2
BRANCH   1  21
HETATM   21  C   UNK N   1      21.053  20.283   3.066  0.00  0.00     0.264 C 
HETATM   22  O   UNK N   1      20.324  20.573   3.992  0.00  0.00    -0.265 OA
BRANCH  21  23
HETATM   23  C   UNK N   1      20.475  19.603   1.867  0.00  0.00     0.111 C 
BRANCH  23  24
HETATM   24  C   UNK N   1      19.634  18.406   2.259  0.00  0.00     0.010 C 
BRANCH  24  25
HETATM   25  C   UNK N   1      20.243  17.130   1.703  0.00  0.00     0.000 C 
BRANCH  25  26
HETATM   26  C   UNK N   1      20.200  16.012   2.731  0.00  0.00     0.000 C 
BRANCH  26  27
HETATM   27  C   UNK N   1      19.827  16.552   4.100  0.00  0.00     0.000 C 
BRANCH  27  28
HETATM   28  C   UNK N   1      18.986  15.536   4.846  0.00  0.00     0.004 C 
BRANCH  28  29
HETATM   29  C   UNK N   1      19.201  14.161   4.244  0.00  0.00     0.027 C 
BRANCH  29  30
HETATM   30  C   UNK N   1      19.808  13.239   5.256  0.00  0.00    -0.031 C 
HETATM   31  C   UNK N   1      21.060  12.780   5.141  0.00  0.00    -0.031 C 
BRANCH  31  32
HETATM   32  C   UNK N   1      21.946  13.174   4.002  0.00  0.00     0.027 C 
BRANCH  32  33
HETATM   33  C   UNK N   1      23.014  14.147   4.452  0.00  0.00     0.004 C 
BRANCH  33  34
HETATM   34  C   UNK N   1      23.174  14.011   5.951  0.00  0.00     0.000 C 
BRANCH  34  35
HETATM   35  C   UNK N   1      23.361  15.370   6.591  0.00  0.00     0.000 C 
BRANCH  35  36
HETATM   36  C   UNK N   1      22.003  15.903   6.995  0.00  0.00     0.000 C 
BRANCH  36  37
HETATM   37  C   UNK N   1      21.546  15.246   8.280  0.00  0.00    -0.000 C 
BRANCH  37  38
HETATM   38  C   UNK N   1      20.035  15.308   8.358  0.00  0.00    -0.005 C 
HETATM   39  C   UNK N   1      19.601  16.717   8.699  0.00  0.00     0.005 C 
ENDBRANCH  37  38
ENDBRANCH  36  37
ENDBRANCH  35  36
ENDBRANCH  34  35
ENDBRANCH  33  34
ENDBRANCH  32  33
ENDBRANCH  31  32
ENDBRANCH  29  30
ENDBRANCH  28  29
ENDBRANCH  27  28
ENDBRANCH  26  27
ENDBRANCH  25  26
ENDBRANCH  24  25
ENDBRANCH  23  24
ENDBRANCH  21  23
ENDBRANCH   1  21
TORSDOF 17
ENDMDL
MODEL 7
REMARK VINA RESULT:      -5.7     15.487     20.117
REMARK  17 active torsions:
REMARK  status: ('A' for Active; 'I' for Inactive)
REMARK    1  A    between atoms: O_2  and  C_21 
REMARK    2  A    between atoms: O_2  and  C_22 
REMARK    3  A    between atoms: C_22  and  C_23 
REMARK    4  A    between atoms: C_23  and  C_24 
REMARK    5  A    between atoms: C_24  and  C_25 
REMARK    6  A    between atoms: C_25  and  C_26 
REMARK    7  A    between atoms: C_26  and  C_27 
REMARK    8  A    between atoms: C_27  and  C_28 
REMARK    9  A    between atoms: C_28  and  C_29 
REMARK   10  A    between atoms: C_29  and  C_35 
REMARK   11  A    between atoms: C_30  and  C_31 
REMARK   12  A    between atoms: C_30  and  C_32 
REMARK   13  A    between atoms: C_31  and  C_33 
REMARK   14  A    between atoms: C_32  and  C_34 
REMARK   15  A    between atoms: C_33  and  C_36 
REMARK   16  A    between atoms: C_34  and  C_37 
REMARK   17  A    between atoms: C_36  and  C_38 
ROOT
HETATM    1  O   UNK N   1      34.894  16.790   8.374  0.00  0.00    -0.279 OA
ENDROOT
BRANCH   1   2
HETATM    2  C   UNK N   1      35.062  16.043   9.491  0.00  0.00     0.079 A 
HETATM    3  C   UNK N   1      34.663  14.711   9.450  0.00  0.00     0.045 A 
HETATM    4  C   UNK N   1      34.945  13.855  10.511  0.00  0.00    -0.049 A 
HETATM    5  C   UNK N   1      35.621  14.344  11.650  0.00  0.00    -0.047 A 
HETATM    6  C   UNK N   1      34.488  12.425  10.394  0.00  0.00     0.039 C 
HETATM    7  C   UNK N   1      36.006  13.389  12.757  0.00  0.00     0.024 C 
HETATM    8  C   UNK N   1      35.966  15.705  11.714  0.00  0.00     0.011 A 
HETATM    9  C   UNK N   1      34.905  12.311  12.911  0.00  0.00    -0.000 C 
HETATM   10  C   UNK N   1      36.339  14.096  14.093  0.00  0.00     0.011 C 
HETATM   11  C   UNK N   1      35.317  11.361  14.042  0.00  0.00     0.006 C 
HETATM   12  C   UNK N   1      34.811  11.534  11.595  0.00  0.00     0.010 C 
HETATM   13  C   UNK N   1      35.511  12.105  15.360  0.00  0.00     0.021 C 
HETATM   14  C   UNK N   1      34.378  10.212  14.409  0.00  0.00     0.013 C 
HETATM   15  C   UNK N   1      36.674  13.087  15.209  0.00  0.00     0.018 C 
HETATM   16  C   UNK N   1      35.685  10.930  16.248  0.00  0.00     0.135 C 
HETATM   17  C   UNK N   1      34.251  12.849  15.820  0.00  0.00     0.024 C 
HETATM   18  O   UNK N   1      36.549  10.858  17.108  0.00  0.00    -0.297 OA
HETATM   19  C   UNK N   1      34.947   9.724  15.753  0.00  0.00     0.079 C 
HETATM   20  C   UNK N   1      35.696  16.550  10.634  0.00  0.00     0.038 A 
ENDBRANCH   1   2
BRANCH   1  21
HETATM   21  C   UNK N   1      34.264  17.999   8.395  0.00  0.00     0.264 C 
HETATM   22  O   UNK N   1      34.889  19.038   8.340  0.00  0.00    -0.265 OA
BRANCH  21  23
HETATM   23  C   UNK N   1      32.771  18.041   8.328  0.00  0.00     0.111 C 
BRANCH  23  24
HETATM   24  C   UNK N   1      32.237  17.124   7.248  0.00  0.00     0.010 C 
BRANCH  24  25
HETATM   25  C   UNK N   1      30.828  16.670   7.591  0.00  0.00     0.000 C 
BRANCH  25  26
HETATM   26  C   UNK N   1      29.791  17.577   6.950  0.00  0.00     0.000 C 
BRANCH  26  27
HETATM   27  C   UNK N   1      28.502  17.573   7.752  0.00  0.00     0.000 C 
BRANCH  27  28
HETATM   28  C   UNK N   1      28.023  18.994   7.970  0.00  0.00     0.004 C 
BRANCH  28  29
HETATM   29  C   UNK N   1      28.123  19.766   6.668  0.00  0.00     0.027 C 
BRANCH  29  30
HETATM   30  C   UNK N   1      26.785  19.832   5.999  0.00  0.00    -0.031 C 
HETATM   31  C   UNK N   1      26.560  19.281   4.800  0.00  0.00    -0.031 C 
BRANCH  31  32
HETATM   32  C   UNK N   1      27.627  18.542   4.056  0.00  0.00     0.027 C 
BRANCH  32  33
HETATM   33  C   UNK N   1      27.429  17.046   4.159  0.00  0.00     0.004 C 
BRANCH  33  34
HETATM   34  C   UNK N   1      28.332  16.381   3.142  0.00  0.00     0.000 C 
BRANCH  34  35
HETATM   35  C   UNK N   1      29.444  15.622   3.835  0.00  0.00     0.000 C 
BRANCH  35  36
HETATM   36  C   UNK N   1      30.745  15.914   3.119  0.00  0.00     0.000 C 
BRANCH  36  37
HETATM   37  C   UNK N   1      31.383  17.164   3.687  0.00  0.00    -0.000 C 
BRANCH  37  38
HETATM   38  C   UNK N   1      32.885  17.073   3.519  0.00  0.00    -0.005 C 
HETATM   39  C   UNK N   1      33.366  15.708   3.960  0.00  0.00     0.005 C 
ENDBRANCH  37  38
ENDBRANCH  36  37
ENDBRANCH  35  36
ENDBRANCH  34  35
ENDBRANCH  33  34
ENDBRANCH  32  33
ENDBRANCH  31  32
ENDBRANCH  29  30
ENDBRANCH  28  29
ENDBRANCH  27  28
ENDBRANCH  26  27
ENDBRANCH  25  26
ENDBRANCH  24  25
ENDBRANCH  23  24
ENDBRANCH  21  23
ENDBRANCH   1  21
TORSDOF 17
ENDMDL
MODEL 8
REMARK VINA RESULT:      -5.6      1.698      7.022
REMARK  17 active torsions:
REMARK  status: ('A' for Active; 'I' for Inactive)
REMARK    1  A    between atoms: O_2  and  C_21 
REMARK    2  A    between atoms: O_2  and  C_22 
REMARK    3  A    between atoms: C_22  and  C_23 
REMARK    4  A    between atoms: C_23  and  C_24 
REMARK    5  A    between atoms: C_24  and  C_25 
REMARK    6  A    between atoms: C_25  and  C_26 
REMARK    7  A    between atoms: C_26  and  C_27 
REMARK    8  A    between atoms: C_27  and  C_28 
REMARK    9  A    between atoms: C_28  and  C_29 
REMARK   10  A    between atoms: C_29  and  C_35 
REMARK   11  A    between atoms: C_30  and  C_31 
REMARK   12  A    between atoms: C_30  and  C_32 
REMARK   13  A    between atoms: C_31  and  C_33 
REMARK   14  A    between atoms: C_32  and  C_34 
REMARK   15  A    between atoms: C_33  and  C_36 
REMARK   16  A    between atoms: C_34  and  C_37 
REMARK   17  A    between atoms: C_36  and  C_38 
ROOT
HETATM    1  O   UNK N   1      26.383  21.459  -8.433  0.00  0.00    -0.279 OA
ENDROOT
BRANCH   1   2
HETATM    2  C   UNK N   1      26.411  22.647  -7.784  0.00  0.00     0.079 A 
HETATM    3  C   UNK N   1      27.054  23.713  -8.405  0.00  0.00     0.045 A 
HETATM    4  C   UNK N   1      26.988  24.993  -7.862  0.00  0.00    -0.049 A 
HETATM    5  C   UNK N   1      26.282  25.211  -6.657  0.00  0.00    -0.047 A 
HETATM    6  C   UNK N   1      27.702  26.099  -8.592  0.00  0.00     0.039 C 
HETATM    7  C   UNK N   1      26.136  26.617  -6.122  0.00  0.00     0.024 C 
HETATM    8  C   UNK N   1      25.687  24.119  -6.001  0.00  0.00     0.011 A 
HETATM    9  C   UNK N   1      27.428  27.417  -6.421  0.00  0.00    -0.000 C 
HETATM   10  C   UNK N   1      25.735  26.669  -4.629  0.00  0.00     0.011 C 
HETATM   11  C   UNK N   1      27.256  28.835  -5.863  0.00  0.00     0.006 C 
HETATM   12  C   UNK N   1      27.610  27.480  -7.940  0.00  0.00     0.010 C 
HETATM   13  C   UNK N   1      26.983  28.821  -4.363  0.00  0.00     0.021 C 
HETATM   14  C   UNK N   1      28.412  29.823  -6.012  0.00  0.00     0.013 C 
HETATM   15  C   UNK N   1      25.648  28.118  -4.107  0.00  0.00     0.018 C 
HETATM   16  C   UNK N   1      27.076  30.279  -4.111  0.00  0.00     0.135 C 
HETATM   17  C   UNK N   1      28.097  28.142  -3.557  0.00  0.00     0.024 C 
HETATM   18  O   UNK N   1      26.281  30.896  -3.419  0.00  0.00    -0.297 OA
HETATM   19  C   UNK N   1      28.007  30.965  -5.063  0.00  0.00     0.079 C 
HETATM   20  C   UNK N   1      25.744  22.843  -6.568  0.00  0.00     0.038 A 
ENDBRANCH   1   2
BRANCH   1  21
HETATM   21  C   UNK N   1      27.256  21.157  -9.436  0.00  0.00     0.264 C 
HETATM   22  O   UNK N   1      26.979  21.371 -10.598  0.00  0.00    -0.265 OA
BRANCH  21  23
HETATM   23  C   UNK N   1      28.635  20.699  -9.086  0.00  0.00     0.111 C 
BRANCH  23  24
HETATM   24  C   UNK N   1      28.644  19.889  -7.807  0.00  0.00     0.010 C 
BRANCH  24  25
HETATM   25  C   UNK N   1      30.059  19.450  -7.471  0.00  0.00     0.000 C 
BRANCH  25  26
HETATM   26  C   UNK N   1      30.816  20.552  -6.750  0.00  0.00     0.000 C 
BRANCH  26  27
HETATM   27  C   UNK N   1      30.173  20.860  -5.410  0.00  0.00     0.000 C 
BRANCH  27  28
HETATM   28  C   UNK N   1      31.087  20.422  -4.283  0.00  0.00     0.004 C 
BRANCH  28  29
HETATM   29  C   UNK N   1      31.746  21.639  -3.663  0.00  0.00     0.027 C 
BRANCH  29  30
HETATM   30  C   UNK N   1      33.232  21.464  -3.628  0.00  0.00    -0.031 C 
HETATM   31  C   UNK N   1      34.035  22.003  -4.554  0.00  0.00    -0.031 C 
BRANCH  31  32
HETATM   32  C   UNK N   1      33.502  22.836  -5.676  0.00  0.00     0.027 C 
BRANCH  32  33
HETATM   33  C   UNK N   1      33.566  24.310  -5.340  0.00  0.00     0.004 C 
BRANCH  33  34
HETATM   34  C   UNK N   1      32.999  25.084  -6.511  0.00  0.00     0.000 C 
BRANCH  34  35
HETATM   35  C   UNK N   1      31.673  24.496  -6.944  0.00  0.00     0.000 C 
BRANCH  35  36
HETATM   36  C   UNK N   1      30.563  25.220  -6.213  0.00  0.00     0.000 C 
BRANCH  36  37
HETATM   37  C   UNK N   1      29.580  24.222  -5.640  0.00  0.00    -0.000 C 
BRANCH  37  38
HETATM   38  C   UNK N   1      29.214  24.642  -4.231  0.00  0.00    -0.005 C 
HETATM   39  C   UNK N   1      30.455  25.101  -3.498  0.00  0.00     0.005 C 
ENDBRANCH  37  38
ENDBRANCH  36  37
ENDBRANCH  35  36
ENDBRANCH  34  35
ENDBRANCH  33  34
ENDBRANCH  32  33
ENDBRANCH  31  32
ENDBRANCH  29  30
ENDBRANCH  28  29
ENDBRANCH  27  28
ENDBRANCH  26  27
ENDBRANCH  25  26
ENDBRANCH  24  25
ENDBRANCH  23  24
ENDBRANCH  21  23
ENDBRANCH   1  21
TORSDOF 17
ENDMDL
MODEL 9
REMARK VINA RESULT:      -5.5     11.416     13.614
REMARK  17 active torsions:
REMARK  status: ('A' for Active; 'I' for Inactive)
REMARK    1  A    between atoms: O_2  and  C_21 
REMARK    2  A    between atoms: O_2  and  C_22 
REMARK    3  A    between atoms: C_22  and  C_23 
REMARK    4  A    between atoms: C_23  and  C_24 
REMARK    5  A    between atoms: C_24  and  C_25 
REMARK    6  A    between atoms: C_25  and  C_26 
REMARK    7  A    between atoms: C_26  and  C_27 
REMARK    8  A    between atoms: C_27  and  C_28 
REMARK    9  A    between atoms: C_28  and  C_29 
REMARK   10  A    between atoms: C_29  and  C_35 
REMARK   11  A    between atoms: C_30  and  C_31 
REMARK   12  A    between atoms: C_30  and  C_32 
REMARK   13  A    between atoms: C_31  and  C_33 
REMARK   14  A    between atoms: C_32  and  C_34 
REMARK   15  A    between atoms: C_33  and  C_36 
REMARK   16  A    between atoms: C_34  and  C_37 
REMARK   17  A    between atoms: C_36  and  C_38 
ROOT
HETATM    1  O   UNK N   1      28.980  16.579   7.149  0.00  0.00    -0.279 OA
ENDROOT
BRANCH   1   2
HETATM    2  C   UNK N   1      27.798  16.823   6.535  0.00  0.00     0.079 A 
HETATM    3  C   UNK N   1      27.688  17.980   5.770  0.00  0.00     0.045 A 
HETATM    4  C   UNK N   1      26.554  18.211   4.996  0.00  0.00    -0.049 A 
HETATM    5  C   UNK N   1      25.494  17.277   5.003  0.00  0.00    -0.047 A 
HETATM    6  C   UNK N   1      26.507  19.480   4.188  0.00  0.00     0.039 C 
HETATM    7  C   UNK N   1      24.307  17.487   4.091  0.00  0.00     0.024 C 
HETATM    8  C   UNK N   1      25.583  16.141   5.827  0.00  0.00     0.011 A 
HETATM    9  C   UNK N   1      24.006  19.003   3.981  0.00  0.00    -0.000 C 
HETATM   10  C   UNK N   1      23.064  16.660   4.497  0.00  0.00     0.011 C 
HETATM   11  C   UNK N   1      22.797  19.187   3.057  0.00  0.00     0.006 C 
HETATM   12  C   UNK N   1      25.231  19.689   3.371  0.00  0.00     0.010 C 
HETATM   13  C   UNK N   1      21.571  18.445   3.579  0.00  0.00     0.021 C 
HETATM   14  C   UNK N   1      22.283  20.604   2.802  0.00  0.00     0.013 C 
HETATM   15  C   UNK N   1      21.860  16.943   3.575  0.00  0.00     0.018 C 
HETATM   16  C   UNK N   1      20.571  18.977   2.621  0.00  0.00     0.135 C 
HETATM   17  C   UNK N   1      21.149  18.895   4.983  0.00  0.00     0.024 C 
HETATM   18  O   UNK N   1      19.738  18.282   2.061  0.00  0.00    -0.297 OA
HETATM   19  C   UNK N   1      20.914  20.355   2.143  0.00  0.00     0.079 C 
HETATM   20  C   UNK N   1      26.736  15.910   6.583  0.00  0.00     0.038 A 
ENDBRANCH   1   2
BRANCH   1  21
HETATM   21  C   UNK N   1      29.454  17.367   8.156  0.00  0.00     0.264 C 
HETATM   22  O   UNK N   1      28.723  18.123   8.762  0.00  0.00    -0.265 OA
BRANCH  21  23
HETATM   23  C   UNK N   1      30.861  17.181   8.623  0.00  0.00     0.111 C 
BRANCH  23  24
HETATM   24  C   UNK N   1      31.736  18.352   8.231  0.00  0.00     0.010 C 
BRANCH  24  25
HETATM   25  C   UNK N   1      33.196  18.035   8.506  0.00  0.00     0.000 C 
BRANCH  25  26
HETATM   26  C   UNK N   1      33.606  16.730   7.845  0.00  0.00     0.000 C 
BRANCH  26  27
HETATM   27  C   UNK N   1      34.198  16.984   6.470  0.00  0.00     0.000 C 
BRANCH  27  28
HETATM   28  C   UNK N   1      33.942  15.793   5.568  0.00  0.00     0.004 C 
BRANCH  28  29
HETATM   29  C   UNK N   1      33.280  16.262   4.287  0.00  0.00     0.027 C 
BRANCH  29  30
HETATM   30  C   UNK N   1      32.466  17.494   4.544  0.00  0.00    -0.031 C 
HETATM   31  C   UNK N   1      31.136  17.510   4.402  0.00  0.00    -0.031 C 
BRANCH  31  32
HETATM   32  C   UNK N   1      30.367  16.292   3.999  0.00  0.00     0.027 C 
BRANCH  32  33
HETATM   33  C   UNK N   1      29.727  16.476   2.640  0.00  0.00     0.004 C 
BRANCH  33  34
HETATM   34  C   UNK N   1      28.933  15.226   2.321  0.00  0.00     0.000 C 
BRANCH  34  35
HETATM   35  C   UNK N   1      27.492  15.388   2.754  0.00  0.00     0.000 C 
BRANCH  35  36
HETATM   36  C   UNK N   1      26.918  14.017   3.040  0.00  0.00     0.000 C 
BRANCH  36  37
HETATM   37  C   UNK N   1      25.419  14.025   2.831  0.00  0.00    -0.000 C 
BRANCH  37  38
HETATM   38  C   UNK N   1      25.094  14.860   1.609  0.00  0.00    -0.005 C 
HETATM   39  C   UNK N   1      24.035  14.163   0.783  0.00  0.00     0.005 C 
ENDBRANCH  37  38
ENDBRANCH  36  37
ENDBRANCH  35  36
ENDBRANCH  34  35
ENDBRANCH  33  34
ENDBRANCH  32  33
ENDBRANCH  31  32
ENDBRANCH  29  30
ENDBRANCH  28  29
ENDBRANCH  27  28
ENDBRANCH  26  27
ENDBRANCH  25  26
ENDBRANCH  24  25
ENDBRANCH  23  24
ENDBRANCH  21  23
ENDBRANCH   1  21
TORSDOF 17
ENDMDL
