MODEL 1
REMARK VINA RESULT:      -8.7      0.000      0.000
REMARK  4 active torsions:
REMARK  status: ('A' for Active; 'I' for Inactive)
REMARK    1  A    between atoms: N_3  and  C_10 
REMARK    2  A    between atoms: N_4  and  C_11 
REMARK    3  A    between atoms: C_10  and  C_12 
REMARK    4  A    between atoms: C_20  and  C_24 
ROOT
HETATM    1  N   UNK N   1      35.762  14.221  10.737  0.00  0.00     0.095 N 
HETATM    2  N   UNK N   1      33.874  15.737   9.281  0.00  0.00    -0.375 N 
HETATM    3  C   UNK N   1      36.095  15.576  10.272  0.00  0.00     0.292 C 
HETATM    4  C   UNK N   1      34.803  13.595   9.801  0.00  0.00     0.292 C 
HETATM    5  C   UNK N   1      34.842  16.444  10.093  0.00  0.00     0.153 C 
HETATM    6  C   UNK N   1      33.510  14.411   9.682  0.00  0.00     0.153 C 
ENDROOT
BRANCH   1   7
HETATM    7  C   UNK N   1      35.344  14.280  12.157  0.00  0.00     0.311 C 
BRANCH   7   8
HETATM    8  C   UNK N   1      36.031  13.284  13.050  0.00  0.00    -0.029 A 
HETATM    9  C   UNK N   1      35.750  13.307  14.407  0.00  0.00     0.021 A 
HETATM   10  C   UNK N   1      36.300  12.398  15.297  0.00  0.00    -0.025 A 
HETATM   11  C   UNK N   1      37.212  11.449  14.809  0.00  0.00     0.012 A 
HETATM   12  C   UNK N   1      37.542  11.432  13.442  0.00  0.00     0.001 A 
HETATM   13  C   UNK N   1      36.941  12.345  12.557  0.00  0.00     0.009 A 
BRANCH  10  14
HETATM   14  C   UNK N   1      35.837  12.430  16.704  0.00  0.00    -0.026 A 
HETATM   15  C   UNK N   1      35.798  11.235  17.450  0.00  0.00     0.012 A 
HETATM   16  C   UNK N   1      35.415  11.242  18.791  0.00  0.00     0.001 A 
HETATM   17  C   UNK N   1      35.064  12.445  19.403  0.00  0.00     0.000 A 
HETATM   18  C   UNK N   1      35.095  13.637  18.673  0.00  0.00     0.001 A 
HETATM   19  C   UNK N   1      35.484  13.633  17.328  0.00  0.00     0.012 A 
ENDBRANCH  10  14
ENDBRANCH   7   8
ENDBRANCH   1   7
BRANCH   2  20
HETATM   20  C   UNK N   1      33.407  16.252   8.039  0.00  0.00     0.067 A 
HETATM   21  C   UNK N   1      32.079  16.633   7.859  0.00  0.00     0.134 A 
HETATM   22  O   UNK N   1      31.091  16.604   8.715  0.00  0.00    -0.257 OA
HETATM   23  C   UNK N   1      31.630  17.177   6.692  0.00  0.00     0.073 A 
HETATM   24  C   UNK N   1      30.047  17.117   8.098  0.00  0.00     0.370 A 
HETATM   25  O   UNK N   1      28.957  17.256   8.619  0.00  0.00    -0.238 OA
HETATM   26  N   UNK N   1      30.330  17.494   6.814  0.00  0.00    -0.300 N 
HETATM   27  H   UNK N   1      29.730  17.898   6.146  0.00  0.00     0.171 HD
HETATM   28  C   UNK N   1      32.462  17.369   5.595  0.00  0.00     0.032 A 
HETATM   29  C   UNK N   1      33.814  16.994   5.731  0.00  0.00     0.005 A 
HETATM   30  C   UNK N   1      34.288  16.453   6.949  0.00  0.00     0.032 A 
ENDBRANCH   2  20
TORSDOF 4
ENDMDL
MODEL 2
REMARK VINA RESULT:      -8.5      1.939      2.568
REMARK  4 active torsions:
REMARK  status: ('A' for Active; 'I' for Inactive)
REMARK    1  A    between atoms: N_3  and  C_10 
REMARK    2  A    between atoms: N_4  and  C_11 
REMARK    3  A    between atoms: C_10  and  C_12 
REMARK    4  A    between atoms: C_20  and  C_24 
ROOT
HETATM    1  N   UNK N   1      36.539  12.242  10.957  0.00  0.00     0.095 N 
HETATM    2  N   UNK N   1      34.995  14.434  10.065  0.00  0.00    -0.375 N 
HETATM    3  C   UNK N   1      37.012  13.082   9.847  0.00  0.00     0.292 C 
HETATM    4  C   UNK N   1      35.061  12.221  10.972  0.00  0.00     0.292 C 
HETATM    5  C   UNK N   1      36.434  14.502   9.916  0.00  0.00     0.153 C 
HETATM    6  C   UNK N   1      34.474  13.629  11.129  0.00  0.00     0.153 C 
ENDROOT
BRANCH   1   7
HETATM    7  C   UNK N   1      37.198  12.673  12.212  0.00  0.00     0.311 C 
BRANCH   7   8
HETATM    8  C   UNK N   1      37.126  11.671  13.330  0.00  0.00    -0.029 A 
HETATM    9  C   UNK N   1      36.712  12.103  14.580  0.00  0.00     0.021 A 
HETATM   10  C   UNK N   1      36.570  11.241  15.656  0.00  0.00    -0.025 A 
HETATM   11  C   UNK N   1      36.905   9.889  15.483  0.00  0.00     0.012 A 
HETATM   12  C   UNK N   1      37.365   9.436  14.232  0.00  0.00     0.001 A 
HETATM   13  C   UNK N   1      37.465  10.327  13.150  0.00  0.00     0.009 A 
BRANCH  10  14
HETATM   14  C   UNK N   1      36.001  11.781  16.913  0.00  0.00    -0.026 A 
HETATM   15  C   UNK N   1      35.933  10.958  18.055  0.00  0.00     0.012 A 
HETATM   16  C   UNK N   1      35.449  11.453  19.265  0.00  0.00     0.001 A 
HETATM   17  C   UNK N   1      35.025  12.779  19.349  0.00  0.00     0.000 A 
HETATM   18  C   UNK N   1      35.084  13.605  18.223  0.00  0.00     0.001 A 
HETATM   19  C   UNK N   1      35.574  13.111  17.008  0.00  0.00     0.012 A 
ENDBRANCH  10  14
ENDBRANCH   7   8
ENDBRANCH   1   7
BRANCH   2  20
HETATM   20  C   UNK N   1      34.107  15.003   9.111  0.00  0.00     0.067 A 
HETATM   21  C   UNK N   1      34.201  16.341   8.732  0.00  0.00     0.134 A 
HETATM   22  O   UNK N   1      35.048  17.252   9.133  0.00  0.00    -0.257 OA
HETATM   23  C   UNK N   1      33.391  16.886   7.780  0.00  0.00     0.073 A 
HETATM   24  C   UNK N   1      34.774  18.343   8.449  0.00  0.00     0.370 A 
HETATM   25  O   UNK N   1      35.391  19.385   8.565  0.00  0.00    -0.238 OA
HETATM   26  N   UNK N   1      33.733  18.170   7.580  0.00  0.00    -0.300 N 
HETATM   27  H   UNK N   1      33.333  18.823   6.961  0.00  0.00     0.171 HD
HETATM   28  C   UNK N   1      32.402  16.149   7.137  0.00  0.00     0.032 A 
HETATM   29  C   UNK N   1      32.268  14.792   7.492  0.00  0.00     0.005 A 
HETATM   30  C   UNK N   1      33.124  14.217   8.461  0.00  0.00     0.032 A 
ENDBRANCH   2  20
TORSDOF 4
ENDMDL
MODEL 3
REMARK VINA RESULT:      -8.4      2.308      2.993
REMARK  4 active torsions:
REMARK  status: ('A' for Active; 'I' for Inactive)
REMARK    1  A    between atoms: N_3  and  C_10 
REMARK    2  A    between atoms: N_4  and  C_11 
REMARK    3  A    between atoms: C_10  and  C_12 
REMARK    4  A    between atoms: C_20  and  C_24 
ROOT
HETATM    1  N   UNK N   1      35.944  13.646  11.303  0.00  0.00     0.095 N 
HETATM    2  N   UNK N   1      34.736  15.736   9.835  0.00  0.00    -0.375 N 
HETATM    3  C   UNK N   1      36.767  14.712  10.712  0.00  0.00     0.292 C 
HETATM    4  C   UNK N   1      34.738  13.431  10.476  0.00  0.00     0.292 C 
HETATM    5  C   UNK N   1      35.975  16.014  10.532  0.00  0.00     0.153 C 
HETATM    6  C   UNK N   1      33.892  14.706  10.363  0.00  0.00     0.153 C 
ENDROOT
BRANCH   1   7
HETATM    7  C   UNK N   1      35.710  13.947  12.735  0.00  0.00     0.311 C 
BRANCH   7   8
HETATM    8  C   UNK N   1      35.220  12.779  13.544  0.00  0.00    -0.029 A 
HETATM    9  C   UNK N   1      35.442  12.781  14.912  0.00  0.00     0.021 A 
HETATM   10  C   UNK N   1      34.986  11.769  15.743  0.00  0.00    -0.025 A 
HETATM   11  C   UNK N   1      34.314  10.679  15.167  0.00  0.00     0.012 A 
HETATM   12  C   UNK N   1      34.112  10.637  13.775  0.00  0.00     0.001 A 
HETATM   13  C   UNK N   1      34.556  11.694  12.963  0.00  0.00     0.009 A 
BRANCH  10  14
HETATM   14  C   UNK N   1      35.166  11.931  17.204  0.00  0.00    -0.026 A 
HETATM   15  C   UNK N   1      35.005  13.203  17.788  0.00  0.00     0.012 A 
HETATM   16  C   UNK N   1      35.118  13.377  19.167  0.00  0.00     0.001 A 
HETATM   17  C   UNK N   1      35.397  12.279  19.981  0.00  0.00     0.000 A 
HETATM   18  C   UNK N   1      35.563  11.012  19.414  0.00  0.00     0.001 A 
HETATM   19  C   UNK N   1      35.444  10.835  18.031  0.00  0.00     0.012 A 
ENDBRANCH  10  14
ENDBRANCH   7   8
ENDBRANCH   1   7
BRANCH   2  20
HETATM   20  C   UNK N   1      34.421  16.335   8.583  0.00  0.00     0.067 A 
HETATM   21  C   UNK N   1      34.760  15.728   7.376  0.00  0.00     0.134 A 
HETATM   22  O   UNK N   1      35.371  14.591   7.170  0.00  0.00    -0.257 OA
HETATM   23  C   UNK N   1      34.418  16.265   6.170  0.00  0.00     0.073 A 
HETATM   24  C   UNK N   1      35.411  14.419   5.865  0.00  0.00     0.370 A 
HETATM   25  O   UNK N   1      35.899  13.445   5.328  0.00  0.00    -0.238 OA
HETATM   26  N   UNK N   1      34.825  15.449   5.183  0.00  0.00    -0.300 N 
HETATM   27  H   UNK N   1      34.725  15.565   4.210  0.00  0.00     0.171 HD
HETATM   28  C   UNK N   1      33.724  17.465   6.063  0.00  0.00     0.032 A 
HETATM   29  C   UNK N   1      33.364  18.117   7.259  0.00  0.00     0.005 A 
HETATM   30  C   UNK N   1      33.696  17.549   8.512  0.00  0.00     0.032 A 
ENDBRANCH   2  20
TORSDOF 4
ENDMDL
MODEL 4
REMARK VINA RESULT:      -8.4      1.204      1.637
REMARK  4 active torsions:
REMARK  status: ('A' for Active; 'I' for Inactive)
REMARK    1  A    between atoms: N_3  and  C_10 
REMARK    2  A    between atoms: N_4  and  C_11 
REMARK    3  A    between atoms: C_10  and  C_12 
REMARK    4  A    between atoms: C_20  and  C_24 
ROOT
HETATM    1  N   UNK N   1      34.824  14.653   9.676  0.00  0.00     0.095 N 
HETATM    2  N   UNK N   1      32.584  16.118   8.772  0.00  0.00    -0.375 N 
HETATM    3  C   UNK N   1      35.002  15.967   9.041  0.00  0.00     0.292 C 
HETATM    4  C   UNK N   1      33.621  13.992   9.124  0.00  0.00     0.292 C 
HETATM    5  C   UNK N   1      33.757  16.852   9.198  0.00  0.00     0.153 C 
HETATM    6  C   UNK N   1      32.357  14.830   9.354  0.00  0.00     0.153 C 
ENDROOT
BRANCH   1   7
HETATM    7  C   UNK N   1      34.865  14.811  11.148  0.00  0.00     0.311 C 
BRANCH   7   8
HETATM    8  C   UNK N   1      35.761  13.832  11.855  0.00  0.00    -0.029 A 
HETATM    9  C   UNK N   1      35.553  13.599  13.205  0.00  0.00     0.021 A 
HETATM   10  C   UNK N   1      36.300  12.680  13.925  0.00  0.00    -0.025 A 
HETATM   11  C   UNK N   1      37.337  11.996  13.271  0.00  0.00     0.012 A 
HETATM   12  C   UNK N   1      37.592  12.247  11.911  0.00  0.00     0.001 A 
HETATM   13  C   UNK N   1      36.795  13.158  11.197  0.00  0.00     0.009 A 
BRANCH  10  14
HETATM   14  C   UNK N   1      35.914  12.415  15.331  0.00  0.00    -0.026 A 
HETATM   15  C   UNK N   1      36.251  11.182  15.924  0.00  0.00     0.012 A 
HETATM   16  C   UNK N   1      35.945  10.923  17.259  0.00  0.00     0.001 A 
HETATM   17  C   UNK N   1      35.296  11.895  18.021  0.00  0.00     0.000 A 
HETATM   18  C   UNK N   1      34.952  13.122  17.443  0.00  0.00     0.001 A 
HETATM   19  C   UNK N   1      35.263  13.384  16.104  0.00  0.00     0.012 A 
ENDBRANCH  10  14
ENDBRANCH   7   8
ENDBRANCH   1   7
BRANCH   2  20
HETATM   20  C   UNK N   1      31.758  16.565   7.702  0.00  0.00     0.067 A 
HETATM   21  C   UNK N   1      30.443  16.973   7.916  0.00  0.00     0.134 A 
HETATM   22  O   UNK N   1      29.770  17.028   9.035  0.00  0.00    -0.257 OA
HETATM   23  C   UNK N   1      29.658  17.453   6.909  0.00  0.00     0.073 A 
HETATM   24  C   UNK N   1      28.590  17.531   8.736  0.00  0.00     0.370 A 
HETATM   25  O   UNK N   1      27.717  17.735   9.557  0.00  0.00    -0.238 OA
HETATM   26  N   UNK N   1      28.463  17.816   7.405  0.00  0.00    -0.300 N 
HETATM   27  H   UNK N   1      27.689  18.193   6.927  0.00  0.00     0.171 HD
HETATM   28  C   UNK N   1      30.110  17.549   5.597  0.00  0.00     0.032 A 
HETATM   29  C   UNK N   1      31.434  17.144   5.335  0.00  0.00     0.005 A 
HETATM   30  C   UNK N   1      32.259  16.670   6.382  0.00  0.00     0.032 A 
ENDBRANCH   2  20
TORSDOF 4
ENDMDL
MODEL 5
REMARK VINA RESULT:      -8.4      2.064      3.582
REMARK  4 active torsions:
REMARK  status: ('A' for Active; 'I' for Inactive)
REMARK    1  A    between atoms: N_3  and  C_10 
REMARK    2  A    between atoms: N_4  and  C_11 
REMARK    3  A    between atoms: C_10  and  C_12 
REMARK    4  A    between atoms: C_20  and  C_24 
ROOT
HETATM    1  N   UNK N   1      34.763  16.099   8.494  0.00  0.00     0.095 N 
HETATM    2  N   UNK N   1      32.124  16.981   8.003  0.00  0.00    -0.375 N 
HETATM    3  C   UNK N   1      34.519  17.433   7.924  0.00  0.00     0.292 C 
HETATM    4  C   UNK N   1      33.690  15.173   8.074  0.00  0.00     0.292 C 
HETATM    5  C   UNK N   1      33.134  17.974   8.307  0.00  0.00     0.153 C 
HETATM    6  C   UNK N   1      32.308  15.662   8.529  0.00  0.00     0.153 C 
ENDROOT
BRANCH   1   7
HETATM    7  C   UNK N   1      34.985  16.224   9.954  0.00  0.00     0.311 C 
BRANCH   7   8
HETATM    8  C   UNK N   1      35.830  15.134  10.551  0.00  0.00    -0.029 A 
HETATM    9  C   UNK N   1      35.544  14.703  11.836  0.00  0.00     0.021 A 
HETATM   10  C   UNK N   1      36.241  13.672  12.448  0.00  0.00    -0.025 A 
HETATM   11  C   UNK N   1      37.306  13.077  11.755  0.00  0.00     0.012 A 
HETATM   12  C   UNK N   1      37.639  13.526  10.464  0.00  0.00     0.001 A 
HETATM   13  C   UNK N   1      36.893  14.549   9.855  0.00  0.00     0.009 A 
BRANCH  10  14
HETATM   14  C   UNK N   1      35.773  13.205  13.774  0.00  0.00    -0.026 A 
HETATM   15  C   UNK N   1      36.315  13.774  14.943  0.00  0.00     0.012 A 
HETATM   16  C   UNK N   1      35.859  13.390  16.204  0.00  0.00     0.001 A 
HETATM   17  C   UNK N   1      34.853  12.429  16.312  0.00  0.00     0.000 A 
HETATM   18  C   UNK N   1      34.309  11.854  15.160  0.00  0.00     0.001 A 
HETATM   19  C   UNK N   1      34.763  12.242  13.893  0.00  0.00     0.012 A 
ENDBRANCH  10  14
ENDBRANCH   7   8
ENDBRANCH   1   7
BRANCH   2  20
HETATM   20  C   UNK N   1      31.064  17.235   7.088  0.00  0.00     0.067 A 
HETATM   21  C   UNK N   1      31.266  17.208   5.710  0.00  0.00     0.134 A 
HETATM   22  O   UNK N   1      32.363  16.961   5.043  0.00  0.00    -0.257 OA
HETATM   23  C   UNK N   1      30.248  17.398   4.822  0.00  0.00     0.073 A 
HETATM   24  C   UNK N   1      32.040  16.994   3.767  0.00  0.00     0.370 A 
HETATM   25  O   UNK N   1      32.829  16.787   2.866  0.00  0.00    -0.238 OA
HETATM   26  N   UNK N   1      30.716  17.270   3.568  0.00  0.00    -0.300 N 
HETATM   27  H   UNK N   1      30.225  17.353   2.719  0.00  0.00     0.171 HD
HETATM   28  C   UNK N   1      28.944  17.651   5.232  0.00  0.00     0.032 A 
HETATM   29  C   UNK N   1      28.695  17.692   6.618  0.00  0.00     0.005 A 
HETATM   30  C   UNK N   1      29.744  17.470   7.542  0.00  0.00     0.032 A 
ENDBRANCH   2  20
TORSDOF 4
ENDMDL
MODEL 6
REMARK VINA RESULT:      -8.3      3.112      9.298
REMARK  4 active torsions:
REMARK  status: ('A' for Active; 'I' for Inactive)
REMARK    1  A    between atoms: N_3  and  C_10 
REMARK    2  A    between atoms: N_4  and  C_11 
REMARK    3  A    between atoms: C_10  and  C_12 
REMARK    4  A    between atoms: C_20  and  C_24 
ROOT
HETATM    1  N   UNK N   1      35.060  14.325   8.825  0.00  0.00     0.095 N 
HETATM    2  N   UNK N   1      35.628  14.254  11.592  0.00  0.00    -0.375 N 
HETATM    3  C   UNK N   1      33.970  14.211   9.805  0.00  0.00     0.292 C 
HETATM    4  C   UNK N   1      36.282  13.686   9.362  0.00  0.00     0.292 C 
HETATM    5  C   UNK N   1      34.359  14.806  11.166  0.00  0.00     0.153 C 
HETATM    6  C   UNK N   1      36.729  14.333  10.679  0.00  0.00     0.153 C 
ENDROOT
BRANCH   1   7
HETATM    7  C   UNK N   1      35.194  15.738   8.404  0.00  0.00     0.311 C 
BRANCH   7   8
HETATM    8  C   UNK N   1      34.154  16.195   7.418  0.00  0.00    -0.029 A 
HETATM    9  C   UNK N   1      32.910  16.574   7.895  0.00  0.00     0.021 A 
HETATM   10  C   UNK N   1      31.908  17.051   7.065  0.00  0.00    -0.025 A 
HETATM   11  C   UNK N   1      32.149  17.108   5.684  0.00  0.00     0.012 A 
HETATM   12  C   UNK N   1      33.392  16.691   5.173  0.00  0.00     0.001 A 
HETATM   13  C   UNK N   1      34.402  16.244   6.043  0.00  0.00     0.009 A 
BRANCH  10  14
HETATM   14  C   UNK N   1      30.660  17.547   7.691  0.00  0.00    -0.026 A 
HETATM   15  C   UNK N   1      29.430  17.373   7.025  0.00  0.00     0.012 A 
HETATM   16  C   UNK N   1      28.234  17.785   7.611  0.00  0.00     0.001 A 
HETATM   17  C   UNK N   1      28.252  18.378   8.874  0.00  0.00     0.000 A 
HETATM   18  C   UNK N   1      29.465  18.560   9.545  0.00  0.00     0.001 A 
HETATM   19  C   UNK N   1      30.666  18.143   8.959  0.00  0.00     0.012 A 
ENDBRANCH  10  14
ENDBRANCH   7   8
ENDBRANCH   1   7
BRANCH   2  20
HETATM   20  C   UNK N   1      35.764  13.513  12.800  0.00  0.00     0.067 A 
HETATM   21  C   UNK N   1      36.307  14.084  13.949  0.00  0.00     0.134 A 
HETATM   22  O   UNK N   1      36.750  15.299  14.134  0.00  0.00    -0.257 OA
HETATM   23  C   UNK N   1      36.395  13.402  15.127  0.00  0.00     0.073 A 
HETATM   24  C   UNK N   1      37.108  15.377  15.399  0.00  0.00     0.370 A 
HETATM   25  O   UNK N   1      37.552  16.386  15.913  0.00  0.00    -0.238 OA
HETATM   26  N   UNK N   1      36.908  14.206  16.074  0.00  0.00    -0.300 N 
HETATM   27  H   UNK N   1      37.093  14.001  17.019  0.00  0.00     0.171 HD
HETATM   28  C   UNK N   1      35.968  12.085  15.256  0.00  0.00     0.032 A 
HETATM   29  C   UNK N   1      35.416  11.466  14.116  0.00  0.00     0.005 A 
HETATM   30  C   UNK N   1      35.300  12.179  12.900  0.00  0.00     0.032 A 
ENDBRANCH   2  20
TORSDOF 4
ENDMDL
MODEL 7
REMARK VINA RESULT:      -8.1      2.962      9.138
REMARK  4 active torsions:
REMARK  status: ('A' for Active; 'I' for Inactive)
REMARK    1  A    between atoms: N_3  and  C_10 
REMARK    2  A    between atoms: N_4  and  C_11 
REMARK    3  A    between atoms: C_10  and  C_12 
REMARK    4  A    between atoms: C_20  and  C_24 
ROOT
HETATM    1  N   UNK N   1      34.644  14.101   9.679  0.00  0.00     0.095 N 
HETATM    2  N   UNK N   1      35.900  14.506  12.177  0.00  0.00    -0.375 N 
HETATM    3  C   UNK N   1      34.018  14.960  10.695  0.00  0.00     0.292 C 
HETATM    4  C   UNK N   1      35.439  13.044  10.340  0.00  0.00     0.292 C 
HETATM    5  C   UNK N   1      35.055  15.560  11.655  0.00  0.00     0.153 C 
HETATM    6  C   UNK N   1      36.536  13.635  11.235  0.00  0.00     0.153 C 
ENDROOT
BRANCH   1   7
HETATM    7  C   UNK N   1      35.367  14.947   8.701  0.00  0.00     0.311 C 
BRANCH   7   8
HETATM    8  C   UNK N   1      34.504  15.510   7.606  0.00  0.00    -0.029 A 
HETATM    9  C   UNK N   1      33.272  16.045   7.944  0.00  0.00     0.021 A 
HETATM   10  C   UNK N   1      32.431  16.627   7.008  0.00  0.00    -0.025 A 
HETATM   11  C   UNK N   1      32.825  16.630   5.661  0.00  0.00     0.012 A 
HETATM   12  C   UNK N   1      34.055  16.056   5.290  0.00  0.00     0.001 A 
HETATM   13  C   UNK N   1      34.902  15.505   6.266  0.00  0.00     0.009 A 
BRANCH  10  14
HETATM   14  C   UNK N   1      31.194  17.283   7.492  0.00  0.00    -0.026 A 
HETATM   15  C   UNK N   1      31.220  18.012   8.698  0.00  0.00     0.012 A 
HETATM   16  C   UNK N   1      30.085  18.682   9.153  0.00  0.00     0.001 A 
HETATM   17  C   UNK N   1      28.906  18.629   8.409  0.00  0.00     0.000 A 
HETATM   18  C   UNK N   1      28.866  17.905   7.213  0.00  0.00     0.001 A 
HETATM   19  C   UNK N   1      30.006  17.237   6.752  0.00  0.00     0.012 A 
ENDBRANCH  10  14
ENDBRANCH   7   8
ENDBRANCH   1   7
BRANCH   2  20
HETATM   20  C   UNK N   1      35.986  14.224  13.569  0.00  0.00     0.067 A 
HETATM   21  C   UNK N   1      35.248  13.197  14.153  0.00  0.00     0.134 A 
HETATM   22  O   UNK N   1      34.415  12.360  13.593  0.00  0.00    -0.257 OA
HETATM   23  C   UNK N   1      35.360  12.882  15.476  0.00  0.00     0.073 A 
HETATM   24  C   UNK N   1      34.014  11.540  14.542  0.00  0.00     0.370 A 
HETATM   25  O   UNK N   1      33.241  10.621  14.356  0.00  0.00    -0.238 OA
HETATM   26  N   UNK N   1      34.578  11.825  15.754  0.00  0.00    -0.300 N 
HETATM   27  H   UNK N   1      34.444  11.371  16.617  0.00  0.00     0.171 HD
HETATM   28  C   UNK N   1      36.203  13.578  16.335  0.00  0.00     0.032 A 
HETATM   29  C   UNK N   1      36.965  14.629  15.788  0.00  0.00     0.005 A 
HETATM   30  C   UNK N   1      36.870  14.941  14.411  0.00  0.00     0.032 A 
ENDBRANCH   2  20
TORSDOF 4
ENDMDL
MODEL 8
REMARK VINA RESULT:      -8.0      7.969     11.825
REMARK  4 active torsions:
REMARK  status: ('A' for Active; 'I' for Inactive)
REMARK    1  A    between atoms: N_3  and  C_10 
REMARK    2  A    between atoms: N_4  and  C_11 
REMARK    3  A    between atoms: C_10  and  C_12 
REMARK    4  A    between atoms: C_20  and  C_24 
ROOT
HETATM    1  N   UNK N   1      25.084  14.437   5.571  0.00  0.00     0.095 N 
HETATM    2  N   UNK N   1      24.850  13.290   8.143  0.00  0.00    -0.375 N 
HETATM    3  C   UNK N   1      25.018  15.294   6.764  0.00  0.00     0.292 C 
HETATM    4  C   UNK N   1      24.326  13.190   5.811  0.00  0.00     0.292 C 
HETATM    5  C   UNK N   1      25.521  14.567   8.020  0.00  0.00     0.153 C 
HETATM    6  C   UNK N   1      24.878  12.412   7.013  0.00  0.00     0.153 C 
ENDROOT
BRANCH   1   7
HETATM    7  C   UNK N   1      26.499  14.273   5.164  0.00  0.00     0.311 C 
BRANCH   7   8
HETATM    8  C   UNK N   1      27.228  15.564   4.916  0.00  0.00    -0.029 A 
HETATM    9  C   UNK N   1      28.324  15.869   5.708  0.00  0.00     0.021 A 
HETATM   10  C   UNK N   1      29.083  17.013   5.520  0.00  0.00    -0.025 A 
HETATM   11  C   UNK N   1      28.698  17.919   4.520  0.00  0.00     0.012 A 
HETATM   12  C   UNK N   1      27.565  17.649   3.730  0.00  0.00     0.001 A 
HETATM   13  C   UNK N   1      26.835  16.463   3.920  0.00  0.00     0.009 A 
BRANCH  10  14
HETATM   14  C   UNK N   1      30.307  17.181   6.339  0.00  0.00    -0.026 A 
HETATM   15  C   UNK N   1      31.570  17.152   5.715  0.00  0.00     0.012 A 
HETATM   16  C   UNK N   1      32.736  17.357   6.451  0.00  0.00     0.001 A 
HETATM   17  C   UNK N   1      32.655  17.593   7.823  0.00  0.00     0.000 A 
HETATM   18  C   UNK N   1      31.408  17.621   8.456  0.00  0.00     0.001 A 
HETATM   19  C   UNK N   1      30.236  17.420   7.717  0.00  0.00     0.012 A 
ENDBRANCH  10  14
ENDBRANCH   7   8
ENDBRANCH   1   7
BRANCH   2  20
HETATM   20  C   UNK N   1      24.051  12.961   9.274  0.00  0.00     0.067 A 
HETATM   21  C   UNK N   1      22.707  13.318   9.347  0.00  0.00     0.134 A 
HETATM   22  O   UNK N   1      21.976  13.958   8.472  0.00  0.00    -0.257 OA
HETATM   23  C   UNK N   1      21.916  12.963  10.400  0.00  0.00     0.073 A 
HETATM   24  C   UNK N   1      20.757  14.004   8.966  0.00  0.00     0.370 A 
HETATM   25  O   UNK N   1      19.816  14.519   8.393  0.00  0.00    -0.238 OA
HETATM   26  N   UNK N   1      20.661  13.393  10.185  0.00  0.00    -0.300 N 
HETATM   27  H   UNK N   1      19.870  13.291  10.762  0.00  0.00     0.171 HD
HETATM   28  C   UNK N   1      22.404  12.239  11.483  0.00  0.00     0.032 A 
HETATM   29  C   UNK N   1      23.761  11.860  11.453  0.00  0.00     0.005 A 
HETATM   30  C   UNK N   1      24.577  12.205  10.349  0.00  0.00     0.032 A 
ENDBRANCH   2  20
TORSDOF 4
ENDMDL
MODEL 9
REMARK VINA RESULT:      -7.9      4.074     10.404
REMARK  4 active torsions:
REMARK  status: ('A' for Active; 'I' for Inactive)
REMARK    1  A    between atoms: N_3  and  C_10 
REMARK    2  A    between atoms: N_4  and  C_11 
REMARK    3  A    between atoms: C_10  and  C_12 
REMARK    4  A    between atoms: C_20  and  C_24 
ROOT
HETATM    1  N   UNK N   1      32.331  15.881   8.891  0.00  0.00     0.095 N 
HETATM    2  N   UNK N   1      34.788  14.829   7.975  0.00  0.00    -0.375 N 
HETATM    3  C   UNK N   1      33.550  16.703   8.923  0.00  0.00     0.292 C 
HETATM    4  C   UNK N   1      32.687  14.455   9.056  0.00  0.00     0.292 C 
HETATM    5  C   UNK N   1      34.570  16.256   7.866  0.00  0.00     0.153 C 
HETATM    6  C   UNK N   1      33.638  13.976   7.952  0.00  0.00     0.153 C 
ENDROOT
BRANCH   1   7
HETATM    7  C   UNK N   1      31.543  16.222   7.685  0.00  0.00     0.311 C 
BRANCH   7   8
HETATM    8  C   UNK N   1      30.377  17.136   7.941  0.00  0.00    -0.029 A 
HETATM    9  C   UNK N   1      29.614  17.555   6.862  0.00  0.00     0.021 A 
HETATM   10  C   UNK N   1      28.495  18.359   7.010  0.00  0.00    -0.025 A 
HETATM   11  C   UNK N   1      28.151  18.804   8.296  0.00  0.00     0.012 A 
HETATM   12  C   UNK N   1      28.935  18.424   9.401  0.00  0.00     0.001 A 
HETATM   13  C   UNK N   1      30.044  17.578   9.225  0.00  0.00     0.009 A 
BRANCH  10  14
HETATM   14  C   UNK N   1      27.677  18.645   5.807  0.00  0.00    -0.026 A 
HETATM   15  C   UNK N   1      27.753  19.915   5.201  0.00  0.00     0.012 A 
HETATM   16  C   UNK N   1      27.035  20.197   4.040  0.00  0.00     0.001 A 
HETATM   17  C   UNK N   1      26.228  19.211   3.470  0.00  0.00     0.000 A 
HETATM   18  C   UNK N   1      26.141  17.949   4.064  0.00  0.00     0.001 A 
HETATM   19  C   UNK N   1      26.866  17.663   5.227  0.00  0.00     0.012 A 
ENDBRANCH  10  14
ENDBRANCH   7   8
ENDBRANCH   1   7
BRANCH   2  20
HETATM   20  C   UNK N   1      36.070  14.279   8.256  0.00  0.00     0.067 A 
HETATM   21  C   UNK N   1      36.520  14.103   9.562  0.00  0.00     0.134 A 
HETATM   22  O   UNK N   1      35.910  14.375  10.686  0.00  0.00    -0.257 OA
HETATM   23  C   UNK N   1      37.724  13.529   9.846  0.00  0.00     0.073 A 
HETATM   24  C   UNK N   1      36.713  13.980  11.652  0.00  0.00     0.370 A 
HETATM   25  O   UNK N   1      36.442  14.071  12.833  0.00  0.00    -0.238 OA
HETATM   26  N   UNK N   1      37.876  13.440  11.179  0.00  0.00    -0.300 N 
HETATM   27  H   UNK N   1      38.637  13.075  11.686  0.00  0.00     0.171 HD
HETATM   28  C   UNK N   1      38.593  13.098   8.850  0.00  0.00     0.032 A 
HETATM   29  C   UNK N   1      38.182  13.261   7.513  0.00  0.00     0.005 A 
HETATM   30  C   UNK N   1      36.922  13.833   7.216  0.00  0.00     0.032 A 
ENDBRANCH   2  20
TORSDOF 4
ENDMDL
