MODEL 1
REMARK VINA RESULT:      -7.8      0.000      0.000
REMARK  16 active torsions:
REMARK  status: ('A' for Active; 'I' for Inactive)
REMARK    1  A    between atoms: S_1  and  N_14 
REMARK    2  A    between atoms: S_1  and  C_31 
REMARK    3  A    between atoms: C_19  and  O_5 
REMARK    4  A    between atoms: O_5  and  C_24 
REMARK    5  A    between atoms: C_25  and  O_6 
REMARK    6  A    between atoms: O_12  and  C_41 
REMARK    7  A    between atoms: O_12  and  C_45 
REMARK    8  A    between atoms: C_23  and  N_13 
REMARK       I    between atoms: N_13  and  C_24 
REMARK    9  A    between atoms: N_14  and  C_26 
REMARK   10  A    between atoms: N_14  and  C_28 
REMARK   11  A    between atoms: C_23  and  C_25 
REMARK   12  A    between atoms: C_23  and  C_27 
REMARK   13  A    between atoms: C_25  and  C_26 
REMARK   14  A    between atoms: C_27  and  C_30 
REMARK   15  A    between atoms: C_28  and  C_29 
REMARK   16  A    between atoms: C_45  and  C_46 
ROOT
HETATM    1  C   UNK N   1      36.157  14.199  10.264  0.00  0.00     0.120 C 
ENDROOT
BRANCH   1   2
HETATM    2  N   UNK N   1      36.437  15.612  10.350  0.00  0.00    -0.329 N 
HETATM    3  C   UNK N   1      35.416  16.494  10.268  0.00  0.00     0.361 C 
HETATM    4  O   UNK N   1      35.637  17.688  10.404  0.00  0.00    -0.238 OA
HETATM    5  H   UNK N   1      37.361  15.929  10.466  0.00  0.00     0.165 HD
BRANCH   3   6
HETATM    6  O   UNK N   1      34.148  16.026  10.091  0.00  0.00    -0.296 OA
BRANCH   6   7
HETATM    7  C   UNK N   1      33.387  16.120   8.943  0.00  0.00     0.166 C 
HETATM    8  C   UNK N   1      32.988  17.491   8.496  0.00  0.00     0.075 C 
HETATM    9  C   UNK N   1      31.892  17.109   7.549  0.00  0.00     0.266 C 
HETATM   10  C   UNK N   1      33.991  18.133   7.593  0.00  0.00     0.038 C 
HETATM   11  O   UNK N   1      31.193  16.011   8.105  0.00  0.00    -0.358 OA
HETATM   12  O   UNK N   1      32.500  16.730   6.336  0.00  0.00    -0.361 OA
HETATM   13  C   UNK N   1      32.053  15.426   9.059  0.00  0.00     0.204 C 
HETATM   14  C   UNK N   1      33.709  17.461   6.255  0.00  0.00     0.171 C 
ENDBRANCH   6   7
ENDBRANCH   3   6
ENDBRANCH   1   2
BRANCH   1  15
HETATM   15  C   UNK N   1      36.270  13.446  11.600  0.00  0.00     0.155 C 
BRANCH  15  16
HETATM   16  O   UNK N   1      37.576  13.553  12.076  0.00  0.00    -0.392 OA
HETATM   17  H   UNK N   1      38.322  13.429  12.683  0.00  0.00     0.210 HD
ENDBRANCH  15  16
BRANCH  15  18
HETATM   18  C   UNK N   1      35.301  13.798  12.733  0.00  0.00     0.141 C 
BRANCH  18  19
HETATM   19  N   UNK N   1      34.988  12.677  13.607  0.00  0.00    -0.204 NA
BRANCH  19  20
HETATM   20  S   UNK N   1      36.042  12.801  15.046  0.00  0.00     0.243 S 
HETATM   21  O   UNK N   1      36.595  14.234  15.016  0.00  0.00    -0.206 OA
HETATM   22  O   UNK N   1      37.313  12.011  14.690  0.00  0.00    -0.206 OA
BRANCH  20  23
HETATM   23  C   UNK N   1      35.658  12.303  16.710  0.00  0.00     0.077 A 
HETATM   24  C   UNK N   1      35.789  10.972  17.144  0.00  0.00     0.064 A 
HETATM   25  C   UNK N   1      35.551  10.717  18.494  0.00  0.00     0.106 A 
HETATM   26  O   UNK N   1      35.613   9.557  19.141  0.00  0.00    -0.323 OA
HETATM   27  C   UNK N   1      35.219  11.685  19.360  0.00  0.00     0.105 A 
HETATM   28  C   UNK N   1      35.308   9.785  20.488  0.00  0.00     0.352 A 
HETATM   29  O   UNK N   1      35.065  11.159  20.571  0.00  0.00    -0.323 OA
HETATM   30  C   UNK N   1      35.081  13.013  18.978  0.00  0.00     0.041 A 
HETATM   31  C   UNK N   1      35.310  13.320  17.630  0.00  0.00     0.028 A 
ENDBRANCH  20  23
ENDBRANCH  19  20
BRANCH  19  32
HETATM   32  C   UNK N   1      35.328  11.457  12.884  0.00  0.00     0.111 C 
BRANCH  32  33
HETATM   33  C   UNK N   1      34.320  10.346  13.162  0.00  0.00    -0.009 C 
HETATM   34  C   UNK N   1      35.056   9.129  13.686  0.00  0.00     0.011 C 
HETATM   35  C   UNK N   1      33.567   9.954  11.905  0.00  0.00     0.011 C 
ENDBRANCH  32  33
ENDBRANCH  19  32
ENDBRANCH  18  19
ENDBRANCH  15  18
ENDBRANCH   1  15
BRANCH   1  36
HETATM   36  C   UNK N   1      36.678  13.545   8.996  0.00  0.00     0.066 C 
BRANCH  36  37
HETATM   37  C   UNK N   1      35.526  13.276   8.116  0.00  0.00    -0.056 A 
HETATM   38  C   UNK N   1      35.394  13.935   6.890  0.00  0.00     0.010 A 
HETATM   39  C   UNK N   1      34.236  13.750   6.129  0.00  0.00     0.037 A 
HETATM   40  C   UNK N   1      33.215  12.916   6.601  0.00  0.00     0.069 A 
HETATM   41  C   UNK N   1      33.379  12.233   7.814  0.00  0.00     0.037 A 
HETATM   42  C   UNK N   1      34.528  12.413   8.566  0.00  0.00     0.010 A 
BRANCH  40  43
HETATM   43  O   UNK N   1      32.075  12.793   5.891  0.00  0.00    -0.345 OA
BRANCH  43  44
HETATM   44  C   UNK N   1      32.002  13.160   4.567  0.00  0.00     0.233 C 
BRANCH  44  45
HETATM   45  C   UNK N   1      30.998  14.232   4.419  0.00  0.00     0.041 A 
HETATM   46  N   UNK N   1      30.213  14.625   5.480  0.00  0.00    -0.355 N 
HETATM   47  C   UNK N   1      29.353  15.605   5.131  0.00  0.00     0.047 A 
ATOM     48  HN  UNK N   1      30.275  14.225   6.415  1.00  0.00     0.166 HD
HETATM   49  S   UNK N   1      29.567  15.982   3.542  0.00  0.00    -0.087 SA
HETATM   50  C   UNK N   1      28.364  16.213   6.056  0.00  0.00     0.076 C 
HETATM   51  C   UNK N   1      30.777  14.899   3.202  0.00  0.00     0.078 A 
ENDBRANCH  44  45
ENDBRANCH  43  44
ENDBRANCH  40  43
ENDBRANCH  36  37
ENDBRANCH   1  36
TORSDOF 16
ENDMDL
MODEL 2
REMARK VINA RESULT:      -7.6      4.296     12.581
REMARK  16 active torsions:
REMARK  status: ('A' for Active; 'I' for Inactive)
REMARK    1  A    between atoms: S_1  and  N_14 
REMARK    2  A    between atoms: S_1  and  C_31 
REMARK    3  A    between atoms: C_19  and  O_5 
REMARK    4  A    between atoms: O_5  and  C_24 
REMARK    5  A    between atoms: C_25  and  O_6 
REMARK    6  A    between atoms: O_12  and  C_41 
REMARK    7  A    between atoms: O_12  and  C_45 
REMARK    8  A    between atoms: C_23  and  N_13 
REMARK       I    between atoms: N_13  and  C_24 
REMARK    9  A    between atoms: N_14  and  C_26 
REMARK   10  A    between atoms: N_14  and  C_28 
REMARK   11  A    between atoms: C_23  and  C_25 
REMARK   12  A    between atoms: C_23  and  C_27 
REMARK   13  A    between atoms: C_25  and  C_26 
REMARK   14  A    between atoms: C_27  and  C_30 
REMARK   15  A    between atoms: C_28  and  C_29 
REMARK   16  A    between atoms: C_45  and  C_46 
ROOT
HETATM    1  C   UNK N   1      31.031  16.929   6.256  0.00  0.00     0.120 C 
ENDROOT
BRANCH   1   2
HETATM    2  N   UNK N   1      31.715  17.439   5.092  0.00  0.00    -0.329 N 
HETATM    3  C   UNK N   1      32.505  16.610   4.374  0.00  0.00     0.361 C 
HETATM    4  O   UNK N   1      33.036  17.018   3.352  0.00  0.00    -0.238 OA
HETATM    5  H   UNK N   1      31.607  18.380   4.826  0.00  0.00     0.165 HD
BRANCH   3   6
HETATM    6  O   UNK N   1      32.647  15.316   4.776  0.00  0.00    -0.296 OA
BRANCH   6   7
HETATM    7  C   UNK N   1      33.829  14.678   5.101  0.00  0.00     0.166 C 
HETATM    8  C   UNK N   1      33.743  13.521   6.046  0.00  0.00     0.075 C 
HETATM    9  C   UNK N   1      35.190  13.437   6.429  0.00  0.00     0.266 C 
HETATM   10  C   UNK N   1      33.511  12.215   5.360  0.00  0.00     0.038 C 
HETATM   11  O   UNK N   1      35.697  14.754   6.526  0.00  0.00    -0.358 OA
HETATM   12  O   UNK N   1      35.854  12.738   5.400  0.00  0.00    -0.361 OA
HETATM   13  C   UNK N   1      34.815  15.581   5.797  0.00  0.00     0.204 C 
HETATM   14  C   UNK N   1      34.896  11.865   4.834  0.00  0.00     0.171 C 
ENDBRANCH   6   7
ENDBRANCH   3   6
ENDBRANCH   1   2
BRANCH   1  15
HETATM   15  C   UNK N   1      29.588  16.466   5.994  0.00  0.00     0.155 C 
BRANCH  15  16
HETATM   16  O   UNK N   1      28.862  16.539   7.182  0.00  0.00    -0.392 OA
HETATM   17  H   UNK N   1      28.148  16.347   7.810  0.00  0.00     0.210 HD
ENDBRANCH  15  16
BRANCH  15  18
HETATM   18  C   UNK N   1      28.783  17.143   4.881  0.00  0.00     0.141 C 
BRANCH  18  19
HETATM   19  N   UNK N   1      27.730  18.022   5.370  0.00  0.00    -0.204 NA
BRANCH  19  20
HETATM   20  S   UNK N   1      26.200  17.517   4.596  0.00  0.00     0.243 S 
HETATM   21  O   UNK N   1      25.588  16.483   5.553  0.00  0.00    -0.206 OA
HETATM   22  O   UNK N   1      26.614  16.601   3.433  0.00  0.00    -0.206 OA
BRANCH  20  23
HETATM   23  C   UNK N   1      24.941  18.570   3.910  0.00  0.00     0.077 A 
HETATM   24  C   UNK N   1      23.575  18.388   4.193  0.00  0.00     0.064 A 
HETATM   25  C   UNK N   1      22.687  19.331   3.677  0.00  0.00     0.106 A 
HETATM   26  O   UNK N   1      21.365  19.381   3.806  0.00  0.00    -0.323 OA
HETATM   27  C   UNK N   1      23.097  20.379   2.948  0.00  0.00     0.105 A 
HETATM   28  C   UNK N   1      20.897  20.514   3.130  0.00  0.00     0.352 A 
HETATM   29  O   UNK N   1      22.044  21.113   2.601  0.00  0.00    -0.323 OA
HETATM   30  C   UNK N   1      24.434  20.601   2.646  0.00  0.00     0.041 A 
HETATM   31  C   UNK N   1      25.366  19.680   3.143  0.00  0.00     0.028 A 
ENDBRANCH  20  23
ENDBRANCH  19  20
BRANCH  19  32
HETATM   32  C   UNK N   1      28.054  19.373   4.925  0.00  0.00     0.111 C 
BRANCH  32  33
HETATM   33  C   UNK N   1      27.951  20.376   6.070  0.00  0.00    -0.009 C 
HETATM   34  C   UNK N   1      27.740  19.625   7.369  0.00  0.00     0.011 C 
HETATM   35  C   UNK N   1      26.790  21.331   5.867  0.00  0.00     0.011 C 
ENDBRANCH  32  33
ENDBRANCH  19  32
ENDBRANCH  18  19
ENDBRANCH  15  18
ENDBRANCH   1  15
BRANCH   1  36
HETATM   36  C   UNK N   1      31.349  17.682   7.536  0.00  0.00     0.066 C 
BRANCH  36  37
HETATM   37  C   UNK N   1      32.457  16.983   8.213  0.00  0.00    -0.056 A 
HETATM   38  C   UNK N   1      32.318  15.655   8.627  0.00  0.00     0.010 A 
HETATM   39  C   UNK N   1      33.338  15.053   9.369  0.00  0.00     0.037 A 
HETATM   40  C   UNK N   1      34.486  15.784   9.700  0.00  0.00     0.069 A 
HETATM   41  C   UNK N   1      34.626  17.103   9.246  0.00  0.00     0.037 A 
HETATM   42  C   UNK N   1      33.617  17.698   8.507  0.00  0.00     0.010 A 
BRANCH  40  43
HETATM   43  O   UNK N   1      35.437  15.216  10.470  0.00  0.00    -0.345 OA
BRANCH  43  44
HETATM   44  C   UNK N   1      35.400  13.882  10.801  0.00  0.00     0.233 C 
BRANCH  44  45
HETATM   45  C   UNK N   1      35.589  13.741  12.257  0.00  0.00     0.041 A 
HETATM   46  N   UNK N   1      36.338  14.651  12.971  0.00  0.00    -0.355 N 
HETATM   47  C   UNK N   1      36.398  14.333  14.281  0.00  0.00     0.047 A 
ATOM     48  HN  UNK N   1      36.791  15.466  12.558  1.00  0.00     0.166 HD
HETATM   49  S   UNK N   1      35.535  12.956  14.551  0.00  0.00    -0.087 SA
HETATM   50  C   UNK N   1      37.154  15.113  15.292  0.00  0.00     0.076 C 
HETATM   51  C   UNK N   1      35.035  12.680  12.994  0.00  0.00     0.078 A 
ENDBRANCH  44  45
ENDBRANCH  43  44
ENDBRANCH  40  43
ENDBRANCH  36  37
ENDBRANCH   1  36
TORSDOF 16
ENDMDL
MODEL 3
REMARK VINA RESULT:      -7.6      4.231     11.814
REMARK  16 active torsions:
REMARK  status: ('A' for Active; 'I' for Inactive)
REMARK    1  A    between atoms: S_1  and  N_14 
REMARK    2  A    between atoms: S_1  and  C_31 
REMARK    3  A    between atoms: C_19  and  O_5 
REMARK    4  A    between atoms: O_5  and  C_24 
REMARK    5  A    between atoms: C_25  and  O_6 
REMARK    6  A    between atoms: O_12  and  C_41 
REMARK    7  A    between atoms: O_12  and  C_45 
REMARK    8  A    between atoms: C_23  and  N_13 
REMARK       I    between atoms: N_13  and  C_24 
REMARK    9  A    between atoms: N_14  and  C_26 
REMARK   10  A    between atoms: N_14  and  C_28 
REMARK   11  A    between atoms: C_23  and  C_25 
REMARK   12  A    between atoms: C_23  and  C_27 
REMARK   13  A    between atoms: C_25  and  C_26 
REMARK   14  A    between atoms: C_27  and  C_30 
REMARK   15  A    between atoms: C_28  and  C_29 
REMARK   16  A    between atoms: C_45  and  C_46 
ROOT
HETATM    1  C   UNK N   1      32.092  16.560   4.539  0.00  0.00     0.120 C 
ENDROOT
BRANCH   1   2
HETATM    2  N   UNK N   1      32.854  16.266   3.349  0.00  0.00    -0.329 N 
HETATM    3  C   UNK N   1      33.327  15.013   3.160  0.00  0.00     0.361 C 
HETATM    4  O   UNK N   1      33.918  14.741   2.126  0.00  0.00    -0.238 OA
HETATM    5  H   UNK N   1      33.027  16.970   2.684  0.00  0.00     0.165 HD
BRANCH   3   6
HETATM    6  O   UNK N   1      33.085  14.063   4.106  0.00  0.00    -0.296 OA
BRANCH   6   7
HETATM    7  C   UNK N   1      34.028  13.319   4.790  0.00  0.00     0.166 C 
HETATM    8  C   UNK N   1      35.442  13.807   4.751  0.00  0.00     0.075 C 
HETATM    9  C   UNK N   1      36.124  12.553   5.209  0.00  0.00     0.266 C 
HETATM   10  C   UNK N   1      35.765  14.772   5.846  0.00  0.00     0.038 C 
HETATM   11  O   UNK N   1      35.445  11.450   4.639  0.00  0.00    -0.358 OA
HETATM   12  O   UNK N   1      36.021  12.510   6.614  0.00  0.00    -0.361 OA
HETATM   13  C   UNK N   1      34.165  11.913   4.265  0.00  0.00     0.204 C 
HETATM   14  C   UNK N   1      35.963  13.856   7.047  0.00  0.00     0.171 C 
ENDBRANCH   6   7
ENDBRANCH   3   6
ENDBRANCH   1   2
BRANCH   1  15
HETATM   15  C   UNK N   1      30.571  16.406   4.374  0.00  0.00     0.155 C 
BRANCH  15  16
HETATM   16  O   UNK N   1      30.181  15.165   4.877  0.00  0.00    -0.392 OA
HETATM   17  H   UNK N   1      29.680  14.337   4.930  0.00  0.00     0.210 HD
ENDBRANCH  15  16
BRANCH  15  18
HETATM   18  C   UNK N   1      29.650  17.484   4.952  0.00  0.00     0.141 C 
BRANCH  18  19
HETATM   19  N   UNK N   1      28.775  17.002   6.011  0.00  0.00    -0.204 NA
BRANCH  19  20
HETATM   20  S   UNK N   1      27.136  16.824   5.321  0.00  0.00     0.243 S 
HETATM   21  O   UNK N   1      26.299  16.175   6.435  0.00  0.00    -0.206 OA
HETATM   22  O   UNK N   1      27.234  15.649   4.334  0.00  0.00    -0.206 OA
BRANCH  20  23
HETATM   23  C   UNK N   1      26.191  18.058   4.455  0.00  0.00     0.077 A 
HETATM   24  C   UNK N   1      24.787  18.006   4.371  0.00  0.00     0.064 A 
HETATM   25  C   UNK N   1      24.148  19.077   3.749  0.00  0.00     0.106 A 
HETATM   26  O   UNK N   1      22.846  19.262   3.552  0.00  0.00    -0.323 OA
HETATM   27  C   UNK N   1      24.820  20.126   3.254  0.00  0.00     0.105 A 
HETATM   28  C   UNK N   1      22.667  20.487   2.898  0.00  0.00     0.352 A 
HETATM   29  O   UNK N   1      23.960  20.995   2.733  0.00  0.00    -0.323 OA
HETATM   30  C   UNK N   1      26.204  20.221   3.316  0.00  0.00     0.041 A 
HETATM   31  C   UNK N   1      26.893  19.168   3.932  0.00  0.00     0.028 A 
ENDBRANCH  20  23
ENDBRANCH  19  20
BRANCH  19  32
HETATM   32  C   UNK N   1      28.736  18.034   7.042  0.00  0.00     0.111 C 
BRANCH  32  33
HETATM   33  C   UNK N   1      29.396  17.556   8.332  0.00  0.00    -0.009 C 
HETATM   34  C   UNK N   1      28.335  17.399   9.402  0.00  0.00     0.011 C 
HETATM   35  C   UNK N   1      30.437  18.546   8.820  0.00  0.00     0.011 C 
ENDBRANCH  32  33
ENDBRANCH  19  32
ENDBRANCH  18  19
ENDBRANCH  15  18
ENDBRANCH   1  15
BRANCH   1  36
HETATM   36  C   UNK N   1      32.638  17.724   5.347  0.00  0.00     0.066 C 
BRANCH  36  37
HETATM   37  C   UNK N   1      33.118  17.197   6.638  0.00  0.00    -0.056 A 
HETATM   38  C   UNK N   1      32.628  15.989   7.144  0.00  0.00     0.010 A 
HETATM   39  C   UNK N   1      33.010  15.571   8.421  0.00  0.00     0.037 A 
HETATM   40  C   UNK N   1      33.871  16.365   9.189  0.00  0.00     0.069 A 
HETATM   41  C   UNK N   1      34.383  17.556   8.653  0.00  0.00     0.037 A 
HETATM   42  C   UNK N   1      34.007  17.968   7.385  0.00  0.00     0.010 A 
BRANCH  40  43
HETATM   43  O   UNK N   1      34.185  15.986  10.445  0.00  0.00    -0.345 OA
BRANCH  43  44
HETATM   44  C   UNK N   1      35.403  16.286  11.010  0.00  0.00     0.233 C 
BRANCH  44  45
HETATM   45  C   UNK N   1      36.053  15.036  11.446  0.00  0.00     0.041 A 
HETATM   46  N   UNK N   1      37.015  14.425  10.672  0.00  0.00    -0.355 N 
HETATM   47  C   UNK N   1      37.471  13.290  11.243  0.00  0.00     0.047 A 
ATOM     48  HN  UNK N   1      37.343  14.787   9.778  1.00  0.00     0.166 HD
HETATM   49  S   UNK N   1      36.704  13.053  12.681  0.00  0.00    -0.087 SA
HETATM   50  C   UNK N   1      38.492  12.403  10.631  0.00  0.00     0.076 C 
HETATM   51  C   UNK N   1      35.730  14.395  12.654  0.00  0.00     0.078 A 
ENDBRANCH  44  45
ENDBRANCH  43  44
ENDBRANCH  40  43
ENDBRANCH  36  37
ENDBRANCH   1  36
TORSDOF 16
ENDMDL
MODEL 4
REMARK VINA RESULT:      -7.6      1.670      2.295
REMARK  16 active torsions:
REMARK  status: ('A' for Active; 'I' for Inactive)
REMARK    1  A    between atoms: S_1  and  N_14 
REMARK    2  A    between atoms: S_1  and  C_31 
REMARK    3  A    between atoms: C_19  and  O_5 
REMARK    4  A    between atoms: O_5  and  C_24 
REMARK    5  A    between atoms: C_25  and  O_6 
REMARK    6  A    between atoms: O_12  and  C_41 
REMARK    7  A    between atoms: O_12  and  C_45 
REMARK    8  A    between atoms: C_23  and  N_13 
REMARK       I    between atoms: N_13  and  C_24 
REMARK    9  A    between atoms: N_14  and  C_26 
REMARK   10  A    between atoms: N_14  and  C_28 
REMARK   11  A    between atoms: C_23  and  C_25 
REMARK   12  A    between atoms: C_23  and  C_27 
REMARK   13  A    between atoms: C_25  and  C_26 
REMARK   14  A    between atoms: C_27  and  C_30 
REMARK   15  A    between atoms: C_28  and  C_29 
REMARK   16  A    between atoms: C_45  and  C_46 
ROOT
HETATM    1  C   UNK N   1      36.171  14.445  11.423  0.00  0.00     0.120 C 
ENDROOT
BRANCH   1   2
HETATM    2  N   UNK N   1      36.435  15.829  11.112  0.00  0.00    -0.329 N 
HETATM    3  C   UNK N   1      35.479  16.562  10.499  0.00  0.00     0.361 C 
HETATM    4  O   UNK N   1      35.671  17.750  10.289  0.00  0.00    -0.238 OA
HETATM    5  H   UNK N   1      37.302  16.234  11.342  0.00  0.00     0.165 HD
BRANCH   3   6
HETATM    6  O   UNK N   1      34.294  15.971  10.177  0.00  0.00    -0.296 OA
BRANCH   6   7
HETATM    7  C   UNK N   1      33.761  15.824   8.911  0.00  0.00     0.166 C 
HETATM    8  C   UNK N   1      32.695  16.790   8.502  0.00  0.00     0.075 C 
HETATM    9  C   UNK N   1      32.146  16.035   7.329  0.00  0.00     0.266 C 
HETATM   10  C   UNK N   1      33.233  18.031   7.867  0.00  0.00     0.038 C 
HETATM   11  O   UNK N   1      32.159  14.657   7.649  0.00  0.00    -0.358 OA
HETATM   12  O   UNK N   1      32.999  16.285   6.235  0.00  0.00    -0.361 OA
HETATM   13  C   UNK N   1      33.079  14.496   8.707  0.00  0.00     0.204 C 
HETATM   14  C   UNK N   1      33.555  17.568   6.452  0.00  0.00     0.171 C 
ENDBRANCH   6   7
ENDBRANCH   3   6
ENDBRANCH   1   2
BRANCH   1  15
HETATM   15  C   UNK N   1      35.610  14.207  12.835  0.00  0.00     0.155 C 
BRANCH  15  16
HETATM   16  O   UNK N   1      34.402  13.517  12.736  0.00  0.00    -0.392 OA
HETATM   17  H   UNK N   1      33.523  13.205  13.001  0.00  0.00     0.210 HD
ENDBRANCH  15  16
BRANCH  15  18
HETATM   18  C   UNK N   1      36.491  13.510  13.875  0.00  0.00     0.141 C 
BRANCH  18  19
HETATM   19  N   UNK N   1      35.968  12.227  14.323  0.00  0.00    -0.204 NA
BRANCH  19  20
HETATM   20  S   UNK N   1      35.303  12.457  15.966  0.00  0.00     0.243 S 
HETATM   21  O   UNK N   1      33.944  13.142  15.757  0.00  0.00    -0.206 OA
HETATM   22  O   UNK N   1      36.105  13.621  16.572  0.00  0.00    -0.206 OA
BRANCH  20  23
HETATM   23  C   UNK N   1      35.211  11.250  17.270  0.00  0.00     0.077 A 
HETATM   24  C   UNK N   1      35.398  11.591  18.622  0.00  0.00     0.064 A 
HETATM   25  C   UNK N   1      35.208  10.580  19.564  0.00  0.00     0.106 A 
HETATM   26  O   UNK N   1      35.321  10.651  20.888  0.00  0.00    -0.323 OA
HETATM   27  C   UNK N   1      34.853   9.335  19.220  0.00  0.00     0.105 A 
HETATM   28  C   UNK N   1      35.024   9.393  21.424  0.00  0.00     0.352 A 
HETATM   29  O   UNK N   1      34.733   8.592  20.316  0.00  0.00    -0.323 OA
HETATM   30  C   UNK N   1      34.654   8.954  17.900  0.00  0.00     0.041 A 
HETATM   31  C   UNK N   1      34.833   9.935  16.915  0.00  0.00     0.028 A 
ENDBRANCH  20  23
ENDBRANCH  19  20
BRANCH  19  32
HETATM   32  C   UNK N   1      37.096  11.305  14.402  0.00  0.00     0.111 C 
BRANCH  32  33
HETATM   33  C   UNK N   1      36.849  10.051  13.568  0.00  0.00    -0.009 C 
HETATM   34  C   UNK N   1      37.777  10.061  12.371  0.00  0.00     0.011 C 
HETATM   35  C   UNK N   1      35.416   9.989  13.072  0.00  0.00     0.011 C 
ENDBRANCH  32  33
ENDBRANCH  19  32
ENDBRANCH  18  19
ENDBRANCH  15  18
ENDBRANCH   1  15
BRANCH   1  36
HETATM   36  C   UNK N   1      37.201  13.481  10.860  0.00  0.00     0.066 C 
BRANCH  36  37
HETATM   37  C   UNK N   1      36.660  12.916   9.610  0.00  0.00    -0.056 A 
HETATM   38  C   UNK N   1      36.902  13.537   8.381  0.00  0.00     0.010 A 
HETATM   39  C   UNK N   1      36.283  13.049   7.227  0.00  0.00     0.037 A 
HETATM   40  C   UNK N   1      35.419  11.950   7.309  0.00  0.00     0.069 A 
HETATM   41  C   UNK N   1      35.216  11.315   8.543  0.00  0.00     0.037 A 
HETATM   42  C   UNK N   1      35.833  11.796   9.685  0.00  0.00     0.010 A 
BRANCH  40  43
HETATM   43  O   UNK N   1      34.776  11.524   6.203  0.00  0.00    -0.345 OA
BRANCH  43  44
HETATM   44  C   UNK N   1      33.438  11.773   6.001  0.00  0.00     0.233 C 
BRANCH  44  45
HETATM   45  C   UNK N   1      33.288  12.723   4.882  0.00  0.00     0.041 A 
HETATM   46  N   UNK N   1      32.176  13.529   4.776  0.00  0.00    -0.355 N 
HETATM   47  C   UNK N   1      32.226  14.311   3.677  0.00  0.00     0.047 A 
ATOM     48  HN  UNK N   1      31.408  13.535   5.448  1.00  0.00     0.166 HD
HETATM   49  S   UNK N   1      33.624  14.014   2.858  0.00  0.00    -0.087 SA
HETATM   50  C   UNK N   1      31.159  15.265   3.285  0.00  0.00     0.076 C 
HETATM   51  C   UNK N   1      34.248  12.854   3.864  0.00  0.00     0.078 A 
ENDBRANCH  44  45
ENDBRANCH  43  44
ENDBRANCH  40  43
ENDBRANCH  36  37
ENDBRANCH   1  36
TORSDOF 16
ENDMDL
MODEL 5
REMARK VINA RESULT:      -7.6      4.532     12.803
REMARK  16 active torsions:
REMARK  status: ('A' for Active; 'I' for Inactive)
REMARK    1  A    between atoms: S_1  and  N_14 
REMARK    2  A    between atoms: S_1  and  C_31 
REMARK    3  A    between atoms: C_19  and  O_5 
REMARK    4  A    between atoms: O_5  and  C_24 
REMARK    5  A    between atoms: C_25  and  O_6 
REMARK    6  A    between atoms: O_12  and  C_41 
REMARK    7  A    between atoms: O_12  and  C_45 
REMARK    8  A    between atoms: C_23  and  N_13 
REMARK       I    between atoms: N_13  and  C_24 
REMARK    9  A    between atoms: N_14  and  C_26 
REMARK   10  A    between atoms: N_14  and  C_28 
REMARK   11  A    between atoms: C_23  and  C_25 
REMARK   12  A    between atoms: C_23  and  C_27 
REMARK   13  A    between atoms: C_25  and  C_26 
REMARK   14  A    between atoms: C_27  and  C_30 
REMARK   15  A    between atoms: C_28  and  C_29 
REMARK   16  A    between atoms: C_45  and  C_46 
ROOT
HETATM    1  C   UNK N   1      29.931  16.992   6.566  0.00  0.00     0.120 C 
ENDROOT
BRANCH   1   2
HETATM    2  N   UNK N   1      30.452  17.516   5.326  0.00  0.00    -0.329 N 
HETATM    3  C   UNK N   1      31.169  16.706   4.516  0.00  0.00     0.361 C 
HETATM    4  O   UNK N   1      31.559  17.124   3.436  0.00  0.00    -0.238 OA
HETATM    5  H   UNK N   1      30.287  18.453   5.074  0.00  0.00     0.165 HD
BRANCH   3   6
HETATM    6  O   UNK N   1      31.395  15.418   4.898  0.00  0.00    -0.296 OA
BRANCH   6   7
HETATM    7  C   UNK N   1      32.524  14.665   4.635  0.00  0.00     0.166 C 
HETATM    8  C   UNK N   1      33.803  15.406   4.410  0.00  0.00     0.075 C 
HETATM    9  C   UNK N   1      34.592  14.304   3.771  0.00  0.00     0.266 C 
HETATM   10  C   UNK N   1      34.566  15.666   5.668  0.00  0.00     0.038 C 
HETATM   11  O   UNK N   1      33.720  13.566   2.937  0.00  0.00    -0.358 OA
HETATM   12  O   UNK N   1      35.079  13.483   4.809  0.00  0.00    -0.361 OA
HETATM   13  C   UNK N   1      32.408  13.845   3.376  0.00  0.00     0.204 C 
HETATM   14  C   UNK N   1      35.228  14.321   5.939  0.00  0.00     0.171 C 
ENDBRANCH   6   7
ENDBRANCH   3   6
ENDBRANCH   1   2
BRANCH   1  15
HETATM   15  C   UNK N   1      28.465  16.535   6.496  0.00  0.00     0.155 C 
BRANCH  15  16
HETATM   16  O   UNK N   1      27.705  17.299   7.381  0.00  0.00    -0.392 OA
HETATM   17  H   UNK N   1      27.175  18.049   7.692  0.00  0.00     0.210 HD
ENDBRANCH  15  16
BRANCH  15  18
HETATM   18  C   UNK N   1      27.760  16.510   5.137  0.00  0.00     0.141 C 
BRANCH  18  19
HETATM   19  N   UNK N   1      26.682  17.481   5.016  0.00  0.00    -0.204 NA
BRANCH  19  20
HETATM   20  S   UNK N   1      25.145  16.575   4.904  0.00  0.00     0.243 S 
HETATM   21  O   UNK N   1      24.986  15.885   6.268  0.00  0.00    -0.206 OA
HETATM   22  O   UNK N   1      25.453  15.358   4.017  0.00  0.00    -0.206 OA
BRANCH  20  23
HETATM   23  C   UNK N   1      23.580  17.177   4.311  0.00  0.00     0.077 A 
HETATM   24  C   UNK N   1      23.214  18.532   4.403  0.00  0.00     0.064 A 
HETATM   25  C   UNK N   1      22.003  18.905   3.819  0.00  0.00     0.106 A 
HETATM   26  O   UNK N   1      21.445  20.111   3.769  0.00  0.00    -0.323 OA
HETATM   27  C   UNK N   1      21.212  18.029   3.185  0.00  0.00     0.105 A 
HETATM   28  C   UNK N   1      20.237  20.010   3.070  0.00  0.00     0.352 A 
HETATM   29  O   UNK N   1      20.138  18.660   2.721  0.00  0.00    -0.323 OA
HETATM   30  C   UNK N   1      21.534  16.683   3.067  0.00  0.00     0.041 A 
HETATM   31  C   UNK N   1      22.741  16.259   3.638  0.00  0.00     0.028 A 
ENDBRANCH  20  23
ENDBRANCH  19  20
BRANCH  19  32
HETATM   32  C   UNK N   1      26.889  18.203   3.766  0.00  0.00     0.111 C 
BRANCH  32  33
HETATM   33  C   UNK N   1      27.085  19.696   4.011  0.00  0.00    -0.009 C 
HETATM   34  C   UNK N   1      26.753  20.009   5.456  0.00  0.00     0.011 C 
HETATM   35  C   UNK N   1      26.187  20.528   3.115  0.00  0.00     0.011 C 
ENDBRANCH  32  33
ENDBRANCH  19  32
ENDBRANCH  18  19
ENDBRANCH  15  18
ENDBRANCH   1  15
BRANCH   1  36
HETATM   36  C   UNK N   1      30.422  17.729   7.799  0.00  0.00     0.066 C 
BRANCH  36  37
HETATM   37  C   UNK N   1      31.707  17.130   8.206  0.00  0.00    -0.056 A 
HETATM   38  C   UNK N   1      31.787  15.779   8.558  0.00  0.00     0.010 A 
HETATM   39  C   UNK N   1      32.989  15.265   9.051  0.00  0.00     0.037 A 
HETATM   40  C   UNK N   1      34.101  16.104   9.198  0.00  0.00     0.069 A 
HETATM   41  C   UNK N   1      34.015  17.447   8.806  0.00  0.00     0.037 A 
HETATM   42  C   UNK N   1      32.825  17.956   8.313  0.00  0.00     0.010 A 
BRANCH  40  43
HETATM   43  O   UNK N   1      35.238  15.615   9.734  0.00  0.00    -0.345 OA
BRANCH  43  44
HETATM   44  C   UNK N   1      35.754  16.107  10.910  0.00  0.00     0.233 C 
BRANCH  44  45
HETATM   45  C   UNK N   1      35.751  15.035  11.924  0.00  0.00     0.041 A 
HETATM   46  N   UNK N   1      36.394  15.194  13.132  0.00  0.00    -0.355 N 
HETATM   47  C   UNK N   1      36.283  14.095  13.907  0.00  0.00     0.047 A 
ATOM     48  HN  UNK N   1      36.892  16.040  13.407  1.00  0.00     0.166 HD
HETATM   49  S   UNK N   1      35.400  12.953  13.115  0.00  0.00    -0.087 SA
HETATM   50  C   UNK N   1      36.894  13.962  15.253  0.00  0.00     0.076 C 
HETATM   51  C   UNK N   1      35.111  13.800  11.720  0.00  0.00     0.078 A 
ENDBRANCH  44  45
ENDBRANCH  43  44
ENDBRANCH  40  43
ENDBRANCH  36  37
ENDBRANCH   1  36
TORSDOF 16
ENDMDL
MODEL 6
REMARK VINA RESULT:      -7.5      2.729     10.421
REMARK  16 active torsions:
REMARK  status: ('A' for Active; 'I' for Inactive)
REMARK    1  A    between atoms: S_1  and  N_14 
REMARK    2  A    between atoms: S_1  and  C_31 
REMARK    3  A    between atoms: C_19  and  O_5 
REMARK    4  A    between atoms: O_5  and  C_24 
REMARK    5  A    between atoms: C_25  and  O_6 
REMARK    6  A    between atoms: O_12  and  C_41 
REMARK    7  A    between atoms: O_12  and  C_45 
REMARK    8  A    between atoms: C_23  and  N_13 
REMARK       I    between atoms: N_13  and  C_24 
REMARK    9  A    between atoms: N_14  and  C_26 
REMARK   10  A    between atoms: N_14  and  C_28 
REMARK   11  A    between atoms: C_23  and  C_25 
REMARK   12  A    between atoms: C_23  and  C_27 
REMARK   13  A    between atoms: C_25  and  C_26 
REMARK   14  A    between atoms: C_27  and  C_30 
REMARK   15  A    between atoms: C_28  and  C_29 
REMARK   16  A    between atoms: C_45  and  C_46 
ROOT
HETATM    1  C   UNK N   1      35.821  14.930  11.543  0.00  0.00     0.120 C 
ENDROOT
BRANCH   1   2
HETATM    2  N   UNK N   1      37.029  14.838  10.759  0.00  0.00    -0.329 N 
HETATM    3  C   UNK N   1      37.339  13.667  10.159  0.00  0.00     0.361 C 
HETATM    4  O   UNK N   1      38.326  13.599   9.442  0.00  0.00    -0.238 OA
HETATM    5  H   UNK N   1      37.620  15.619  10.664  0.00  0.00     0.165 HD
BRANCH   3   6
HETATM    6  O   UNK N   1      36.510  12.598  10.321  0.00  0.00    -0.296 OA
BRANCH   6   7
HETATM    7  C   UNK N   1      36.882  11.304  10.629  0.00  0.00     0.166 C 
HETATM    8  C   UNK N   1      35.786  10.328  10.919  0.00  0.00     0.075 C 
HETATM    9  C   UNK N   1      36.605   9.262  11.583  0.00  0.00     0.266 C 
HETATM   10  C   UNK N   1      35.275   9.633   9.699  0.00  0.00     0.038 C 
HETATM   11  O   UNK N   1      37.595   9.896  12.371  0.00  0.00    -0.358 OA
HETATM   12  O   UNK N   1      37.211   8.503  10.563  0.00  0.00    -0.361 OA
HETATM   13  C   UNK N   1      37.725  11.211  11.875  0.00  0.00     0.204 C 
HETATM   14  C   UNK N   1      36.343   8.576   9.448  0.00  0.00     0.171 C 
ENDBRANCH   6   7
ENDBRANCH   3   6
ENDBRANCH   1   2
BRANCH   1  15
HETATM   15  C   UNK N   1      34.679  15.704  10.863  0.00  0.00     0.155 C 
BRANCH  15  16
HETATM   16  O   UNK N   1      34.971  17.067  10.891  0.00  0.00    -0.392 OA
HETATM   17  H   UNK N   1      34.905  17.993  11.171  0.00  0.00     0.210 HD
ENDBRANCH  15  16
BRANCH  15  18
HETATM   18  C   UNK N   1      34.266  15.317   9.441  0.00  0.00     0.141 C 
BRANCH  18  19
HETATM   19  N   UNK N   1      35.049  15.973   8.403  0.00  0.00    -0.204 NA
BRANCH  19  20
HETATM   20  S   UNK N   1      34.042  17.275   7.706  0.00  0.00     0.243 S 
HETATM   21  O   UNK N   1      34.605  17.506   6.295  0.00  0.00    -0.206 OA
HETATM   22  O   UNK N   1      34.505  18.566   8.400  0.00  0.00    -0.206 OA
BRANCH  20  23
HETATM   23  C   UNK N   1      32.266  17.380   7.705  0.00  0.00     0.077 A 
HETATM   24  C   UNK N   1      31.542  17.859   8.812  0.00  0.00     0.064 A 
HETATM   25  C   UNK N   1      30.161  17.986   8.662  0.00  0.00     0.106 A 
HETATM   26  O   UNK N   1      29.269  18.415   9.549  0.00  0.00    -0.323 OA
HETATM   27  C   UNK N   1      29.532  17.680   7.519  0.00  0.00     0.105 A 
HETATM   28  C   UNK N   1      28.003  18.385   8.953  0.00  0.00     0.352 A 
HETATM   29  O   UNK N   1      28.230  17.907   7.658  0.00  0.00    -0.323 OA
HETATM   30  C   UNK N   1      30.205  17.206   6.400  0.00  0.00     0.041 A 
HETATM   31  C   UNK N   1      31.595  17.061   6.501  0.00  0.00     0.028 A 
ENDBRANCH  20  23
ENDBRANCH  19  20
BRANCH  19  32
HETATM   32  C   UNK N   1      35.310  14.981   7.366  0.00  0.00     0.111 C 
BRANCH  32  33
HETATM   33  C   UNK N   1      34.328  13.816   7.450  0.00  0.00    -0.009 C 
HETATM   34  C   UNK N   1      35.091  12.514   7.324  0.00  0.00     0.011 C 
HETATM   35  C   UNK N   1      33.294  13.884   6.342  0.00  0.00     0.011 C 
ENDBRANCH  32  33
ENDBRANCH  19  32
ENDBRANCH  18  19
ENDBRANCH  15  18
ENDBRANCH   1  15
BRANCH   1  36
HETATM   36  C   UNK N   1      36.066  15.120  13.030  0.00  0.00     0.066 C 
BRANCH  36  37
HETATM   37  C   UNK N   1      35.941  13.805  13.684  0.00  0.00    -0.056 A 
HETATM   38  C   UNK N   1      34.867  12.959  13.391  0.00  0.00     0.010 A 
HETATM   39  C   UNK N   1      34.708  11.771  14.109  0.00  0.00     0.037 A 
HETATM   40  C   UNK N   1      35.619  11.438  15.121  0.00  0.00     0.069 A 
HETATM   41  C   UNK N   1      36.712  12.279  15.377  0.00  0.00     0.037 A 
HETATM   42  C   UNK N   1      36.871  13.454  14.663  0.00  0.00     0.010 A 
BRANCH  40  43
HETATM   43  O   UNK N   1      35.424  10.322  15.852  0.00  0.00    -0.345 OA
BRANCH  43  44
HETATM   44  C   UNK N   1      36.265   9.974  16.883  0.00  0.00     0.233 C 
BRANCH  44  45
HETATM   45  C   UNK N   1      35.485   9.881  18.132  0.00  0.00     0.041 A 
HETATM   46  N   UNK N   1      34.355   9.097  18.209  0.00  0.00    -0.355 N 
HETATM   47  C   UNK N   1      33.782   9.162  19.430  0.00  0.00     0.047 A 
ATOM     48  HN  UNK N   1      33.995   8.536  17.438  1.00  0.00     0.166 HD
HETATM   49  S   UNK N   1      34.664  10.164  20.396  0.00  0.00    -0.087 SA
HETATM   50  C   UNK N   1      32.538   8.445  19.805  0.00  0.00     0.076 C 
HETATM   51  C   UNK N   1      35.834  10.583  19.298  0.00  0.00     0.078 A 
ENDBRANCH  44  45
ENDBRANCH  43  44
ENDBRANCH  40  43
ENDBRANCH  36  37
ENDBRANCH   1  36
TORSDOF 16
ENDMDL
MODEL 7
REMARK VINA RESULT:      -7.3     11.416     15.136
REMARK  16 active torsions:
REMARK  status: ('A' for Active; 'I' for Inactive)
REMARK    1  A    between atoms: S_1  and  N_14 
REMARK    2  A    between atoms: S_1  and  C_31 
REMARK    3  A    between atoms: C_19  and  O_5 
REMARK    4  A    between atoms: O_5  and  C_24 
REMARK    5  A    between atoms: C_25  and  O_6 
REMARK    6  A    between atoms: O_12  and  C_41 
REMARK    7  A    between atoms: O_12  and  C_45 
REMARK    8  A    between atoms: C_23  and  N_13 
REMARK       I    between atoms: N_13  and  C_24 
REMARK    9  A    between atoms: N_14  and  C_26 
REMARK   10  A    between atoms: N_14  and  C_28 
REMARK   11  A    between atoms: C_23  and  C_25 
REMARK   12  A    between atoms: C_23  and  C_27 
REMARK   13  A    between atoms: C_25  and  C_26 
REMARK   14  A    between atoms: C_27  and  C_30 
REMARK   15  A    between atoms: C_28  and  C_29 
REMARK   16  A    between atoms: C_45  and  C_46 
ROOT
HETATM    1  C   UNK N   1      20.514  16.757   3.114  0.00  0.00     0.120 C 
ENDROOT
BRANCH   1   2
HETATM    2  N   UNK N   1      19.271  16.781   3.849  0.00  0.00    -0.329 N 
HETATM    3  C   UNK N   1      19.078  15.892   4.848  0.00  0.00     0.361 C 
HETATM    4  O   UNK N   1      18.056  15.946   5.515  0.00  0.00    -0.238 OA
HETATM    5  H   UNK N   1      18.574  17.437   3.623  0.00  0.00     0.165 HD
BRANCH   3   6
HETATM    6  O   UNK N   1      20.056  14.984   5.128  0.00  0.00    -0.296 OA
BRANCH   6   7
HETATM    7  C   UNK N   1      20.162  14.209   6.266  0.00  0.00     0.166 C 
HETATM    8  C   UNK N   1      21.322  14.479   7.172  0.00  0.00     0.075 C 
HETATM    9  C   UNK N   1      21.283  13.211   7.970  0.00  0.00     0.266 C 
HETATM   10  C   UNK N   1      21.037  15.522   8.202  0.00  0.00     0.038 C 
HETATM   11  O   UNK N   1      20.939  12.152   7.097  0.00  0.00    -0.358 OA
HETATM   12  O   UNK N   1      20.288  13.368   8.955  0.00  0.00    -0.361 OA
HETATM   13  C   UNK N   1      20.329  12.741   5.968  0.00  0.00     0.204 C 
HETATM   14  C   UNK N   1      20.226  14.754   9.237  0.00  0.00     0.171 C 
ENDBRANCH   6   7
ENDBRANCH   3   6
ENDBRANCH   1   2
BRANCH   1  15
HETATM   15  C   UNK N   1      21.601  17.690   3.673  0.00  0.00     0.155 C 
BRANCH  15  16
HETATM   16  O   UNK N   1      21.006  18.638   4.505  0.00  0.00    -0.392 OA
HETATM   17  H   UNK N   1      20.849  19.506   4.906  0.00  0.00     0.210 HD
ENDBRANCH  15  16
BRANCH  15  18
HETATM   18  C   UNK N   1      22.799  17.077   4.403  0.00  0.00     0.141 C 
BRANCH  18  19
HETATM   19  N   UNK N   1      24.079  17.350   3.763  0.00  0.00    -0.204 NA
BRANCH  19  20
HETATM   20  S   UNK N   1      25.184  16.004   4.165  0.00  0.00     0.243 S 
HETATM   21  O   UNK N   1      26.467  16.678   4.676  0.00  0.00    -0.206 OA
HETATM   22  O   UNK N   1      25.679  15.464   2.813  0.00  0.00    -0.206 OA
BRANCH  20  23
HETATM   23  C   UNK N   1      24.809  14.549   5.118  0.00  0.00     0.077 A 
HETATM   24  C   UNK N   1      24.227  13.405   4.542  0.00  0.00     0.064 A 
HETATM   25  C   UNK N   1      24.066  12.291   5.365  0.00  0.00     0.106 A 
HETATM   26  O   UNK N   1      23.551  11.103   5.059  0.00  0.00    -0.323 OA
HETATM   27  C   UNK N   1      24.451  12.285   6.649  0.00  0.00     0.105 A 
HETATM   28  C   UNK N   1      23.606  10.291   6.198  0.00  0.00     0.352 A 
HETATM   29  O   UNK N   1      24.189  11.096   7.182  0.00  0.00    -0.323 OA
HETATM   30  C   UNK N   1      25.032  13.389   7.259  0.00  0.00     0.041 A 
HETATM   31  C   UNK N   1      25.215  14.534   6.472  0.00  0.00     0.028 A 
ENDBRANCH  20  23
ENDBRANCH  19  20
BRANCH  19  32
HETATM   32  C   UNK N   1      24.604  18.576   4.354  0.00  0.00     0.111 C 
BRANCH  32  33
HETATM   33  C   UNK N   1      25.063  19.558   3.281  0.00  0.00    -0.009 C 
HETATM   34  C   UNK N   1      26.315  20.265   3.759  0.00  0.00     0.011 C 
HETATM   35  C   UNK N   1      23.998  20.599   2.990  0.00  0.00     0.011 C 
ENDBRANCH  32  33
ENDBRANCH  19  32
ENDBRANCH  18  19
ENDBRANCH  15  18
ENDBRANCH   1  15
BRANCH   1  36
HETATM   36  C   UNK N   1      20.337  16.639   1.610  0.00  0.00     0.066 C 
BRANCH  36  37
HETATM   37  C   UNK N   1      20.758  15.285   1.207  0.00  0.00    -0.056 A 
HETATM   38  C   UNK N   1      19.811  14.313   0.869  0.00  0.00     0.010 A 
HETATM   39  C   UNK N   1      20.229  13.006   0.604  0.00  0.00     0.037 A 
HETATM   40  C   UNK N   1      21.588  12.676   0.686  0.00  0.00     0.069 A 
HETATM   41  C   UNK N   1      22.528  13.670   0.990  0.00  0.00     0.037 A 
HETATM   42  C   UNK N   1      22.115  14.966   1.249  0.00  0.00     0.010 A 
BRANCH  40  43
HETATM   43  O   UNK N   1      21.976  11.399   0.491  0.00  0.00    -0.345 OA
BRANCH  43  44
HETATM   44  C   UNK N   1      22.548  10.654   1.496  0.00  0.00     0.233 C 
BRANCH  44  45
HETATM   45  C   UNK N   1      21.501   9.859   2.165  0.00  0.00     0.041 A 
HETATM   46  N   UNK N   1      21.269   9.979   3.518  0.00  0.00    -0.355 N 
HETATM   47  C   UNK N   1      20.283   9.157   3.932  0.00  0.00     0.047 A 
ATOM     48  HN  UNK N   1      21.782  10.612   4.131  1.00  0.00     0.166 HD
HETATM   49  S   UNK N   1      19.703   8.306   2.647  0.00  0.00    -0.087 SA
HETATM   50  C   UNK N   1      19.829   9.046   5.341  0.00  0.00     0.076 C 
HETATM   51  C   UNK N   1      20.693   8.937   1.477  0.00  0.00     0.078 A 
ENDBRANCH  44  45
ENDBRANCH  43  44
ENDBRANCH  40  43
ENDBRANCH  36  37
ENDBRANCH   1  36
TORSDOF 16
ENDMDL
MODEL 8
REMARK VINA RESULT:      -7.3     17.298     21.928
REMARK  16 active torsions:
REMARK  status: ('A' for Active; 'I' for Inactive)
REMARK    1  A    between atoms: S_1  and  N_14 
REMARK    2  A    between atoms: S_1  and  C_31 
REMARK    3  A    between atoms: C_19  and  O_5 
REMARK    4  A    between atoms: O_5  and  C_24 
REMARK    5  A    between atoms: C_25  and  O_6 
REMARK    6  A    between atoms: O_12  and  C_41 
REMARK    7  A    between atoms: O_12  and  C_45 
REMARK    8  A    between atoms: C_23  and  N_13 
REMARK       I    between atoms: N_13  and  C_24 
REMARK    9  A    between atoms: N_14  and  C_26 
REMARK   10  A    between atoms: N_14  and  C_28 
REMARK   11  A    between atoms: C_23  and  C_25 
REMARK   12  A    between atoms: C_23  and  C_27 
REMARK   13  A    between atoms: C_25  and  C_26 
REMARK   14  A    between atoms: C_27  and  C_30 
REMARK   15  A    between atoms: C_28  and  C_29 
REMARK   16  A    between atoms: C_45  and  C_46 
ROOT
HETATM    1  C   UNK N   1      25.830  25.254  -5.201  0.00  0.00     0.120 C 
ENDROOT
BRANCH   1   2
HETATM    2  N   UNK N   1      25.147  24.004  -5.438  0.00  0.00    -0.329 N 
HETATM    3  C   UNK N   1      25.570  23.200  -6.438  0.00  0.00     0.361 C 
HETATM    4  O   UNK N   1      25.037  22.113  -6.604  0.00  0.00    -0.238 OA
HETATM    5  H   UNK N   1      24.383  23.742  -4.876  0.00  0.00     0.165 HD
BRANCH   3   6
HETATM    6  O   UNK N   1      26.621  23.596  -7.209  0.00  0.00    -0.296 OA
BRANCH   6   7
HETATM    7  C   UNK N   1      26.613  23.799  -8.576  0.00  0.00     0.166 C 
HETATM    8  C   UNK N   1      25.644  24.806  -9.111  0.00  0.00     0.075 C 
HETATM    9  C   UNK N   1      25.672  24.399 -10.554  0.00  0.00     0.266 C 
HETATM   10  C   UNK N   1      26.196  26.193  -9.154  0.00  0.00     0.038 C 
HETATM   11  O   UNK N   1      25.760  22.988 -10.611  0.00  0.00    -0.358 OA
HETATM   12  O   UNK N   1      26.820  24.978 -11.129  0.00  0.00    -0.361 OA
HETATM   13  C   UNK N   1      26.245  22.562  -9.355  0.00  0.00     0.204 C 
HETATM   14  C   UNK N   1      27.073  26.164 -10.399  0.00  0.00     0.171 C 
ENDBRANCH   6   7
ENDBRANCH   3   6
ENDBRANCH   1   2
BRANCH   1  15
HETATM   15  C   UNK N   1      26.547  25.339  -3.844  0.00  0.00     0.155 C 
BRANCH  15  16
HETATM   16  O   UNK N   1      26.265  24.191  -3.105  0.00  0.00    -0.392 OA
HETATM   17  H   UNK N   1      25.953  23.661  -2.355  0.00  0.00     0.210 HD
ENDBRANCH  15  16
BRANCH  15  18
HETATM   18  C   UNK N   1      28.059  25.582  -3.818  0.00  0.00     0.141 C 
BRANCH  18  19
HETATM   19  N   UNK N   1      28.814  24.674  -4.670  0.00  0.00    -0.204 NA
BRANCH  19  20
HETATM   20  S   UNK N   1      29.781  23.611  -3.605  0.00  0.00     0.243 S 
HETATM   21  O   UNK N   1      28.798  23.119  -2.531  0.00  0.00    -0.206 OA
HETATM   22  O   UNK N   1      30.651  24.559  -2.764  0.00  0.00    -0.206 OA
BRANCH  20  23
HETATM   23  C   UNK N   1      30.886  22.308  -4.100  0.00  0.00     0.077 A 
HETATM   24  C   UNK N   1      32.153  22.136  -3.513  0.00  0.00     0.064 A 
HETATM   25  C   UNK N   1      32.893  21.024  -3.913  0.00  0.00     0.106 A 
HETATM   26  O   UNK N   1      34.101  20.644  -3.506  0.00  0.00    -0.323 OA
HETATM   27  C   UNK N   1      32.433  20.139  -4.809  0.00  0.00     0.105 A 
HETATM   28  C   UNK N   1      34.438  19.459  -4.170  0.00  0.00     0.352 A 
HETATM   29  O   UNK N   1      33.338  19.183  -4.988  0.00  0.00    -0.323 OA
HETATM   30  C   UNK N   1      31.189  20.267  -5.411  0.00  0.00     0.041 A 
HETATM   31  C   UNK N   1      30.406  21.369  -5.042  0.00  0.00     0.028 A 
ENDBRANCH  20  23
ENDBRANCH  19  20
BRANCH  19  32
HETATM   32  C   UNK N   1      29.726  25.486  -5.467  0.00  0.00     0.111 C 
BRANCH  32  33
HETATM   33  C   UNK N   1      29.452  25.326  -6.960  0.00  0.00    -0.009 C 
HETATM   34  C   UNK N   1      30.199  24.112  -7.473  0.00  0.00     0.011 C 
HETATM   35  C   UNK N   1      29.910  26.544  -7.740  0.00  0.00     0.011 C 
ENDBRANCH  32  33
ENDBRANCH  19  32
ENDBRANCH  18  19
ENDBRANCH  15  18
ENDBRANCH   1  15
BRANCH   1  36
HETATM   36  C   UNK N   1      25.088  26.469  -5.728  0.00  0.00     0.066 C 
BRANCH  36  37
HETATM   37  C   UNK N   1      25.880  27.667  -5.392  0.00  0.00    -0.056 A 
HETATM   38  C   UNK N   1      26.962  28.056  -6.188  0.00  0.00     0.010 A 
HETATM   39  C   UNK N   1      27.767  29.125  -5.785  0.00  0.00     0.037 A 
HETATM   40  C   UNK N   1      27.492  29.793  -4.584  0.00  0.00     0.069 A 
HETATM   41  C   UNK N   1      26.382  29.414  -3.816  0.00  0.00     0.037 A 
HETATM   42  C   UNK N   1      25.582  28.358  -4.218  0.00  0.00     0.010 A 
BRANCH  40  43
HETATM   43  O   UNK N   1      28.310  30.781  -4.170  0.00  0.00    -0.345 OA
BRANCH  43  44
HETATM   44  C   UNK N   1      28.927  30.744  -2.941  0.00  0.00     0.233 C 
BRANCH  44  45
HETATM   45  C   UNK N   1      30.389  30.697  -3.136  0.00  0.00     0.041 A 
HETATM   46  N   UNK N   1      31.236  30.376  -2.098  0.00  0.00    -0.355 N 
HETATM   47  C   UNK N   1      32.530  30.404  -2.481  0.00  0.00     0.047 A 
ATOM     48  HN  UNK N   1      30.923  30.146  -1.156  1.00  0.00     0.166 HD
HETATM   49  S   UNK N   1      32.621  30.809  -4.075  0.00  0.00    -0.087 SA
HETATM   50  C   UNK N   1      33.672  30.127  -1.574  0.00  0.00     0.076 C 
HETATM   51  C   UNK N   1      30.999  30.982  -4.369  0.00  0.00     0.078 A 
ENDBRANCH  44  45
ENDBRANCH  43  44
ENDBRANCH  40  43
ENDBRANCH  36  37
ENDBRANCH   1  36
TORSDOF 16
ENDMDL
MODEL 9
REMARK VINA RESULT:      -7.3      8.946     14.923
REMARK  16 active torsions:
REMARK  status: ('A' for Active; 'I' for Inactive)
REMARK    1  A    between atoms: S_1  and  N_14 
REMARK    2  A    between atoms: S_1  and  C_31 
REMARK    3  A    between atoms: C_19  and  O_5 
REMARK    4  A    between atoms: O_5  and  C_24 
REMARK    5  A    between atoms: C_25  and  O_6 
REMARK    6  A    between atoms: O_12  and  C_41 
REMARK    7  A    between atoms: O_12  and  C_45 
REMARK    8  A    between atoms: C_23  and  N_13 
REMARK       I    between atoms: N_13  and  C_24 
REMARK    9  A    between atoms: N_14  and  C_26 
REMARK   10  A    between atoms: N_14  and  C_28 
REMARK   11  A    between atoms: C_23  and  C_25 
REMARK   12  A    between atoms: C_23  and  C_27 
REMARK   13  A    between atoms: C_25  and  C_26 
REMARK   14  A    between atoms: C_27  and  C_30 
REMARK   15  A    between atoms: C_28  and  C_29 
REMARK   16  A    between atoms: C_45  and  C_46 
ROOT
HETATM    1  C   UNK N   1      20.756  15.301   6.447  0.00  0.00     0.120 C 
ENDROOT
BRANCH   1   2
HETATM    2  N   UNK N   1      20.466  16.512   7.178  0.00  0.00    -0.329 N 
HETATM    3  C   UNK N   1      21.059  17.667   6.803  0.00  0.00     0.361 C 
HETATM    4  O   UNK N   1      20.770  18.707   7.377  0.00  0.00    -0.238 OA
HETATM    5  H   UNK N   1      19.845  16.494   7.941  0.00  0.00     0.165 HD
BRANCH   3   6
HETATM    6  O   UNK N   1      21.927  17.658   5.753  0.00  0.00    -0.296 OA
BRANCH   6   7
HETATM    7  C   UNK N   1      22.176  18.698   4.878  0.00  0.00     0.166 C 
HETATM    8  C   UNK N   1      21.668  18.550   3.479  0.00  0.00     0.075 C 
HETATM    9  C   UNK N   1      22.490  19.622   2.828  0.00  0.00     0.266 C 
HETATM   10  C   UNK N   1      20.273  19.056   3.300  0.00  0.00     0.038 C 
HETATM   11  O   UNK N   1      23.776  19.608   3.417  0.00  0.00    -0.358 OA
HETATM   12  O   UNK N   1      21.853  20.852   3.087  0.00  0.00    -0.361 OA
HETATM   13  C   UNK N   1      23.646  18.944   4.656  0.00  0.00     0.204 C 
HETATM   14  C   UNK N   1      20.474  20.563   3.219  0.00  0.00     0.171 C 
ENDBRANCH   6   7
ENDBRANCH   3   6
ENDBRANCH   1   2
BRANCH   1  15
HETATM   15  C   UNK N   1      19.644  14.860   5.482  0.00  0.00     0.155 C 
BRANCH  15  16
HETATM   16  O   UNK N   1      18.489  15.594   5.749  0.00  0.00    -0.392 OA
HETATM   17  H   UNK N   1      17.935  16.380   5.873  0.00  0.00     0.210 HD
ENDBRANCH  15  16
BRANCH  15  18
HETATM   18  C   UNK N   1      19.913  14.895   3.975  0.00  0.00     0.141 C 
BRANCH  18  19
HETATM   19  N   UNK N   1      19.032  14.032   3.201  0.00  0.00    -0.204 NA
BRANCH  19  20
HETATM   20  S   UNK N   1      19.515  12.340   3.518  0.00  0.00     0.243 S 
HETATM   21  O   UNK N   1      19.215  11.586   2.213  0.00  0.00    -0.206 OA
HETATM   22  O   UNK N   1      18.415  11.764   4.425  0.00  0.00    -0.206 OA
BRANCH  20  23
HETATM   23  C   UNK N   1      21.037  11.772   4.243  0.00  0.00     0.077 A 
HETATM   24  C   UNK N   1      22.288  12.012   3.646  0.00  0.00     0.064 A 
HETATM   25  C   UNK N   1      23.418  11.603   4.353  0.00  0.00     0.106 A 
HETATM   26  O   UNK N   1      24.697  11.719   4.007  0.00  0.00    -0.323 OA
HETATM   27  C   UNK N   1      23.340  11.015   5.555  0.00  0.00     0.105 A 
HETATM   28  C   UNK N   1      25.483  11.181   5.033  0.00  0.00     0.352 A 
HETATM   29  O   UNK N   1      24.565  10.746   5.995  0.00  0.00    -0.323 OA
HETATM   30  C   UNK N   1      22.128  10.761   6.184  0.00  0.00     0.041 A 
HETATM   31  C   UNK N   1      20.962  11.154   5.513  0.00  0.00     0.028 A 
ENDBRANCH  20  23
ENDBRANCH  19  20
BRANCH  19  32
HETATM   32  C   UNK N   1      19.266  14.327   1.792  0.00  0.00     0.111 C 
BRANCH  32  33
HETATM   33  C   UNK N   1      20.505  15.198   1.604  0.00  0.00    -0.009 C 
HETATM   34  C   UNK N   1      20.146  16.388   0.737  0.00  0.00     0.011 C 
HETATM   35  C   UNK N   1      21.627  14.429   0.934  0.00  0.00     0.011 C 
ENDBRANCH  32  33
ENDBRANCH  19  32
ENDBRANCH  18  19
ENDBRANCH  15  18
ENDBRANCH   1  15
BRANCH   1  36
HETATM   36  C   UNK N   1      21.494  14.253   7.261  0.00  0.00     0.066 C 
BRANCH  36  37
HETATM   37  C   UNK N   1      22.925  14.330   6.915  0.00  0.00    -0.056 A 
HETATM   38  C   UNK N   1      23.904  13.914   7.823  0.00  0.00     0.010 A 
HETATM   39  C   UNK N   1      25.254  14.106   7.517  0.00  0.00     0.037 A 
HETATM   40  C   UNK N   1      25.618  14.719   6.311  0.00  0.00     0.069 A 
HETATM   41  C   UNK N   1      24.625  15.097   5.396  0.00  0.00     0.037 A 
HETATM   42  C   UNK N   1      23.288  14.903   5.697  0.00  0.00     0.010 A 
BRANCH  40  43
HETATM   43  O   UNK N   1      26.919  14.958   6.052  0.00  0.00    -0.345 OA
BRANCH  43  44
HETATM   44  C   UNK N   1      27.367  16.205   5.680  0.00  0.00     0.233 C 
BRANCH  44  45
HETATM   45  C   UNK N   1      28.477  16.604   6.566  0.00  0.00     0.041 A 
HETATM   46  N   UNK N   1      28.250  17.360   7.695  0.00  0.00    -0.355 N 
HETATM   47  C   UNK N   1      29.395  17.628   8.357  0.00  0.00     0.047 A 
ATOM     48  HN  UNK N   1      27.329  17.678   7.995  1.00  0.00     0.166 HD
HETATM   49  S   UNK N   1      30.662  16.935   7.564  0.00  0.00    -0.087 SA
HETATM   50  C   UNK N   1      29.470  18.444   9.595  0.00  0.00     0.076 C 
HETATM   51  C   UNK N   1      29.814  16.253   6.313  0.00  0.00     0.078 A 
ENDBRANCH  44  45
ENDBRANCH  43  44
ENDBRANCH  40  43
ENDBRANCH  36  37
ENDBRANCH   1  36
TORSDOF 16
ENDMDL
