MODEL 1
REMARK VINA RESULT:      -8.1      0.000      0.000
REMARK  8 active torsions:
REMARK  status: ('A' for Active; 'I' for Inactive)
REMARK    1  A    between atoms: C_16  and  C_13 
REMARK    2  A    between atoms: C_26  and  C_13 
REMARK    3  A    between atoms: N_38  and  C_16 
REMARK    4  A    between atoms: C_27  and  C_19 
REMARK    5  A    between atoms: C_26  and  C_21 
REMARK    6  A    between atoms: C_28  and  C_22 
REMARK    7  A    between atoms: C_25  and  N_39 
REMARK    8  A    between atoms: C_26  and  N_32 
ROOT
HETATM    1  C   UNK N   1      25.916  17.847   4.983  0.00  0.00     0.116 C 
HETATM    2  N   UNK N   1      24.956  17.979   4.128  0.00  0.00    -0.365 N 
ATOM      3  HN  UNK N   1      25.158  18.563   3.317  1.00  0.00     0.162 HD
HETATM    4  O   UNK N   1      25.805  17.026   6.049  0.00  0.00    -0.349 OA
HETATM    5  H   UNK N   1      25.748  16.370   6.716  0.00  0.00     0.219 HD
ENDROOT
BRANCH   1   6
HETATM    6  C   UNK N   1      27.161  18.657   4.779  0.00  0.00     0.060 C 
HETATM    7  C   UNK N   1      27.995  18.815   6.052  0.00  0.00     0.019 C 
HETATM    8  C   UNK N   1      27.356  19.802   7.028  0.00  0.00     0.080 C 
HETATM    9  C   UNK N   1      27.113  21.157   6.361  0.00  0.00     0.243 C 
HETATM   10  C   UNK N   1      26.218  20.981   5.136  0.00  0.00     0.080 C 
HETATM   11  F   UNK N   1      28.318  21.725   5.985  0.00  0.00    -0.206 F 
HETATM   12  F   UNK N   1      26.486  21.994   7.263  0.00  0.00    -0.206 F 
HETATM   13  C   UNK N   1      26.859  20.017   4.136  0.00  0.00     0.019 C 
ENDBRANCH   1   6
BRANCH   2  14
HETATM   14  C   UNK N   1      23.622  17.394   4.180  0.00  0.00     0.118 C 
BRANCH  14  15
HETATM   15  C   UNK N   1      23.533  16.005   3.505  0.00  0.00     0.060 C 
BRANCH  15  16
HETATM   16  C   UNK N   1      24.023  14.872   4.406  0.00  0.00     0.276 C 
BRANCH  16  17
HETATM   17  N   UNK N   1      22.862  14.078   4.816  0.00  0.00     0.098 N 
HETATM   18  C   UNK N   1      23.143  13.020   5.780  0.00  0.00     0.225 C 
HETATM   19  C   UNK N   1      21.756  12.484   6.115  0.00  0.00     0.038 C 
HETATM   20  C   UNK N   1      23.828  13.610   7.026  0.00  0.00     0.061 C 
HETATM   21  C   UNK N   1      20.826  13.668   5.822  0.00  0.00     0.038 C 
HETATM   22  C   UNK N   1      21.772  14.803   5.452  0.00  0.00     0.225 C 
HETATM   23  C   UNK N   1      22.265  15.563   6.720  0.00  0.00     0.061 C 
HETATM   24  C   UNK N   1      22.982  14.665   7.760  0.00  0.00     0.097 C 
BRANCH  24  25
HETATM   25  N   UNK N   1      22.090  14.042   8.775  0.00  0.00    -0.319 N 
HETATM   26  C   UNK N   1      20.860  14.424   9.216  0.00  0.00     0.095 A 
HETATM   27  C   UNK N   1      20.088  15.625   8.787  0.00  0.00     0.091 C 
HETATM   28  N   UNK N   1      20.416  13.603  10.183  0.00  0.00    -0.288 N 
HETATM   29  N   UNK N   1      21.351  12.693  10.392  0.00  0.00    -0.287 N 
ATOM     30  HN  UNK N   1      19.521  13.672  10.668  1.00  0.00     0.188 HD
HETATM   31  C   UNK N   1      22.368  12.955   9.551  0.00  0.00     0.103 A 
ATOM     32  HN  UNK N   1      21.310  11.930  11.068  1.00  0.00     0.188 HD
BRANCH  31  33
HETATM   33  C   UNK N   1      23.629  12.135   9.571  0.00  0.00     0.047 C 
HETATM   34  C   UNK N   1      23.420  10.739   9.018  0.00  0.00     0.017 C 
HETATM   35  C   UNK N   1      24.323  12.106  10.918  0.00  0.00     0.017 C 
ENDBRANCH  31  33
ENDBRANCH  24  25
ENDBRANCH  16  17
ENDBRANCH  15  16
ENDBRANCH  14  15
BRANCH  14  36
HETATM   36  C   UNK N   1      22.550  18.340   3.701  0.00  0.00    -0.035 A 
HETATM   37  C   UNK N   1      21.210  17.933   3.597  0.00  0.00     0.009 A 
HETATM   38  C   UNK N   1      20.239  18.815   3.112  0.00  0.00     0.001 A 
HETATM   39  C   UNK N   1      20.600  20.107   2.721  0.00  0.00     0.000 A 
HETATM   40  C   UNK N   1      21.930  20.521   2.820  0.00  0.00     0.001 A 
HETATM   41  C   UNK N   1      22.901  19.641   3.306  0.00  0.00     0.009 A 
ENDBRANCH  14  36
ENDBRANCH   2  14
TORSDOF 8
ENDMDL
MODEL 2
REMARK VINA RESULT:      -7.9      4.704      9.342
REMARK  8 active torsions:
REMARK  status: ('A' for Active; 'I' for Inactive)
REMARK    1  A    between atoms: C_16  and  C_13 
REMARK    2  A    between atoms: C_26  and  C_13 
REMARK    3  A    between atoms: N_38  and  C_16 
REMARK    4  A    between atoms: C_27  and  C_19 
REMARK    5  A    between atoms: C_26  and  C_21 
REMARK    6  A    between atoms: C_28  and  C_22 
REMARK    7  A    between atoms: C_25  and  N_39 
REMARK    8  A    between atoms: C_26  and  N_32 
ROOT
HETATM    1  C   UNK N   1      21.912  11.331   6.380  0.00  0.00     0.116 C 
HETATM    2  N   UNK N   1      22.461  12.103   7.258  0.00  0.00    -0.365 N 
ATOM      3  HN  UNK N   1      23.475  12.196   7.200  1.00  0.00     0.162 HD
HETATM    4  O   UNK N   1      20.571  11.199   6.293  0.00  0.00    -0.349 OA
HETATM    5  H   UNK N   1      19.640  11.209   6.180  0.00  0.00     0.219 HD
ENDROOT
BRANCH   1   6
HETATM    6  C   UNK N   1      22.809  10.552   5.464  0.00  0.00     0.060 C 
HETATM    7  C   UNK N   1      22.118   9.347   4.822  0.00  0.00     0.019 C 
HETATM    8  C   UNK N   1      21.929   8.206   5.821  0.00  0.00     0.080 C 
HETATM    9  C   UNK N   1      23.260   7.801   6.454  0.00  0.00     0.243 C 
HETATM   10  C   UNK N   1      23.894   9.003   7.150  0.00  0.00     0.080 C 
HETATM   11  F   UNK N   1      24.120   7.314   5.483  0.00  0.00    -0.206 F 
HETATM   12  F   UNK N   1      23.031   6.808   7.385  0.00  0.00    -0.206 F 
HETATM   13  C   UNK N   1      24.116  10.144   6.155  0.00  0.00     0.019 C 
ENDBRANCH   1   6
BRANCH   2  14
HETATM   14  C   UNK N   1      21.808  12.859   8.320  0.00  0.00     0.118 C 
BRANCH  14  15
HETATM   15  C   UNK N   1      21.751  14.380   8.046  0.00  0.00     0.060 C 
BRANCH  15  16
HETATM   16  C   UNK N   1      22.058  14.736   6.592  0.00  0.00     0.276 C 
BRANCH  16  17
HETATM   17  N   UNK N   1      20.792  15.010   5.910  0.00  0.00     0.098 N 
HETATM   18  C   UNK N   1      20.513  16.419   5.661  0.00  0.00     0.225 C 
HETATM   19  C   UNK N   1      19.236  16.375   4.830  0.00  0.00     0.038 C 
HETATM   20  C   UNK N   1      21.671  17.054   4.868  0.00  0.00     0.061 C 
HETATM   21  C   UNK N   1      19.279  14.992   4.168  0.00  0.00     0.038 C 
HETATM   22  C   UNK N   1      20.623  14.417   4.591  0.00  0.00     0.225 C 
HETATM   23  C   UNK N   1      21.759  14.865   3.623  0.00  0.00     0.061 C 
HETATM   24  C   UNK N   1      21.917  16.401   3.497  0.00  0.00     0.097 C 
BRANCH  24  25
HETATM   25  N   UNK N   1      21.090  17.034   2.434  0.00  0.00    -0.319 N 
HETATM   26  C   UNK N   1      20.513  16.487   1.328  0.00  0.00     0.095 A 
HETATM   27  C   UNK N   1      20.594  15.066   0.886  0.00  0.00     0.091 C 
HETATM   28  N   UNK N   1      19.885  17.424   0.597  0.00  0.00    -0.288 N 
HETATM   29  N   UNK N   1      20.058  18.585   1.205  0.00  0.00    -0.287 N 
ATOM     30  HN  UNK N   1      19.370  17.267  -0.270  1.00  0.00     0.188 HD
HETATM   31  C   UNK N   1      20.791  18.359   2.310  0.00  0.00     0.103 A 
ATOM     32  HN  UNK N   1      19.701  19.488   0.892  1.00  0.00     0.188 HD
BRANCH  31  33
HETATM   33  C   UNK N   1      21.221  19.488   3.206  0.00  0.00     0.047 C 
HETATM   34  C   UNK N   1      20.157  20.561   3.334  0.00  0.00     0.017 C 
HETATM   35  C   UNK N   1      22.571  20.077   2.849  0.00  0.00     0.017 C 
ENDBRANCH  31  33
ENDBRANCH  24  25
ENDBRANCH  16  17
ENDBRANCH  15  16
ENDBRANCH  14  15
BRANCH  14  36
HETATM   36  C   UNK N   1      22.357  12.538   9.688  0.00  0.00    -0.035 A 
HETATM   37  C   UNK N   1      23.737  12.401   9.907  0.00  0.00     0.009 A 
HETATM   38  C   UNK N   1      24.221  12.063  11.175  0.00  0.00     0.001 A 
HETATM   39  C   UNK N   1      23.330  11.853  12.231  0.00  0.00     0.000 A 
HETATM   40  C   UNK N   1      21.956  11.986  12.023  0.00  0.00     0.001 A 
HETATM   41  C   UNK N   1      21.471  12.326  10.757  0.00  0.00     0.009 A 
ENDBRANCH  14  36
ENDBRANCH   2  14
TORSDOF 8
ENDMDL
MODEL 3
REMARK VINA RESULT:      -7.9     13.862     16.330
REMARK  8 active torsions:
REMARK  status: ('A' for Active; 'I' for Inactive)
REMARK    1  A    between atoms: C_16  and  C_13 
REMARK    2  A    between atoms: C_26  and  C_13 
REMARK    3  A    between atoms: N_38  and  C_16 
REMARK    4  A    between atoms: C_27  and  C_19 
REMARK    5  A    between atoms: C_26  and  C_21 
REMARK    6  A    between atoms: C_28  and  C_22 
REMARK    7  A    between atoms: C_25  and  N_39 
REMARK    8  A    between atoms: C_26  and  N_32 
ROOT
HETATM    1  C   UNK N   1      31.388  21.605  -6.768  0.00  0.00     0.116 C 
HETATM    2  N   UNK N   1      30.430  20.813  -7.118  0.00  0.00    -0.365 N 
ATOM      3  HN  UNK N   1      30.297  19.988  -6.533  1.00  0.00     0.162 HD
HETATM    4  O   UNK N   1      31.606  22.777  -7.404  0.00  0.00    -0.349 OA
HETATM    5  H   UNK N   1      31.668  23.630  -7.786  0.00  0.00     0.219 HD
ENDROOT
BRANCH   1   6
HETATM    6  C   UNK N   1      32.285  21.178  -5.645  0.00  0.00     0.060 C 
HETATM    7  C   UNK N   1      31.596  20.251  -4.640  0.00  0.00     0.019 C 
HETATM    8  C   UNK N   1      30.620  21.013  -3.744  0.00  0.00     0.080 C 
HETATM    9  C   UNK N   1      31.317  22.173  -3.032  0.00  0.00     0.243 C 
HETATM   10  C   UNK N   1      31.933  23.121  -4.058  0.00  0.00     0.080 C 
HETATM   11  F   UNK N   1      32.303  21.688  -2.189  0.00  0.00    -0.206 F 
HETATM   12  F   UNK N   1      30.386  22.862  -2.281  0.00  0.00    -0.206 F 
HETATM   13  C   UNK N   1      32.934  22.377  -4.944  0.00  0.00     0.019 C 
ENDBRANCH   1   6
BRANCH   2  14
HETATM   14  C   UNK N   1      29.514  20.955  -8.243  0.00  0.00     0.118 C 
BRANCH  14  15
HETATM   15  C   UNK N   1      28.040  21.144  -7.816  0.00  0.00     0.060 C 
BRANCH  15  16
HETATM   16  C   UNK N   1      27.633  22.613  -7.710  0.00  0.00     0.276 C 
BRANCH  16  17
HETATM   17  N   UNK N   1      27.353  22.911  -6.304  0.00  0.00     0.098 N 
HETATM   18  C   UNK N   1      28.434  23.575  -5.584  0.00  0.00     0.225 C 
HETATM   19  C   UNK N   1      27.806  23.878  -4.228  0.00  0.00     0.038 C 
HETATM   20  C   UNK N   1      28.836  24.870  -6.313  0.00  0.00     0.061 C 
HETATM   21  C   UNK N   1      26.304  23.942  -4.527  0.00  0.00     0.038 C 
HETATM   22  C   UNK N   1      26.216  23.780  -6.038  0.00  0.00     0.225 C 
HETATM   23  C   UNK N   1      26.372  25.149  -6.763  0.00  0.00     0.061 C 
HETATM   24  C   UNK N   1      27.693  25.892  -6.440  0.00  0.00     0.097 C 
BRANCH  24  25
HETATM   25  N   UNK N   1      27.634  26.797  -5.260  0.00  0.00    -0.319 N 
HETATM   26  C   UNK N   1      26.578  27.459  -4.713  0.00  0.00     0.095 A 
HETATM   27  C   UNK N   1      25.170  27.458  -5.202  0.00  0.00     0.091 C 
HETATM   28  N   UNK N   1      26.967  28.214  -3.671  0.00  0.00    -0.288 N 
HETATM   29  N   UNK N   1      28.274  28.065  -3.538  0.00  0.00    -0.287 N 
ATOM     30  HN  UNK N   1      26.364  28.797  -3.090  1.00  0.00     0.188 HD
HETATM   31  C   UNK N   1      28.685  27.217  -4.497  0.00  0.00     0.103 A 
ATOM     32  HN  UNK N   1      28.863  28.512  -2.836  1.00  0.00     0.188 HD
BRANCH  31  33
HETATM   33  C   UNK N   1      30.140  26.874  -4.665  0.00  0.00     0.047 C 
HETATM   34  C   UNK N   1      30.818  26.568  -3.344  0.00  0.00     0.017 C 
HETATM   35  C   UNK N   1      30.922  27.889  -5.475  0.00  0.00     0.017 C 
ENDBRANCH  31  33
ENDBRANCH  24  25
ENDBRANCH  16  17
ENDBRANCH  15  16
ENDBRANCH  14  15
BRANCH  14  36
HETATM   36  C   UNK N   1      29.683  19.868  -9.275  0.00  0.00    -0.035 A 
HETATM   37  C   UNK N   1      30.268  18.634  -8.947  0.00  0.00     0.009 A 
HETATM   38  C   UNK N   1      30.452  17.656  -9.929  0.00  0.00     0.001 A 
HETATM   39  C   UNK N   1      30.059  17.905 -11.246  0.00  0.00     0.000 A 
HETATM   40  C   UNK N   1      29.477  19.129 -11.583  0.00  0.00     0.001 A 
HETATM   41  C   UNK N   1      29.292  20.107 -10.602  0.00  0.00     0.009 A 
ENDBRANCH  14  36
ENDBRANCH   2  14
TORSDOF 8
ENDMDL
MODEL 4
REMARK VINA RESULT:      -7.9      8.263     11.255
REMARK  8 active torsions:
REMARK  status: ('A' for Active; 'I' for Inactive)
REMARK    1  A    between atoms: C_16  and  C_13 
REMARK    2  A    between atoms: C_26  and  C_13 
REMARK    3  A    between atoms: N_38  and  C_16 
REMARK    4  A    between atoms: C_27  and  C_19 
REMARK    5  A    between atoms: C_26  and  C_21 
REMARK    6  A    between atoms: C_28  and  C_22 
REMARK    7  A    between atoms: C_25  and  N_39 
REMARK    8  A    between atoms: C_26  and  N_32 
ROOT
HETATM    1  C   UNK N   1      29.499  16.906   4.791  0.00  0.00     0.116 C 
HETATM    2  N   UNK N   1      30.047  16.071   5.610  0.00  0.00    -0.365 N 
ATOM      3  HN  UNK N   1      29.413  15.589   6.247  1.00  0.00     0.162 HD
HETATM    4  O   UNK N   1      30.217  17.537   3.837  0.00  0.00    -0.349 OA
HETATM    5  H   UNK N   1      30.711  17.876   3.116  0.00  0.00     0.219 HD
ENDROOT
BRANCH   1   6
HETATM    6  C   UNK N   1      28.034  17.187   4.943  0.00  0.00     0.060 C 
HETATM    7  C   UNK N   1      27.533  18.303   4.023  0.00  0.00     0.019 C 
HETATM    8  C   UNK N   1      27.980  19.680   4.510  0.00  0.00     0.080 C 
HETATM    9  C   UNK N   1      27.542  19.923   5.954  0.00  0.00     0.243 C 
HETATM   10  C   UNK N   1      28.114  18.838   6.863  0.00  0.00     0.080 C 
HETATM   11  F   UNK N   1      26.159  19.924   6.038  0.00  0.00    -0.206 F 
HETATM   12  F   UNK N   1      28.015  21.153   6.366  0.00  0.00    -0.206 F 
HETATM   13  C   UNK N   1      27.651  17.454   6.404  0.00  0.00     0.019 C 
ENDBRANCH   1   6
BRANCH   2  14
HETATM   14  C   UNK N   1      31.460  15.731   5.733  0.00  0.00     0.118 C 
BRANCH  14  15
HETATM   15  C   UNK N   1      31.704  14.273   6.186  0.00  0.00     0.060 C 
BRANCH  15  16
HETATM   16  C   UNK N   1      33.178  13.874   6.140  0.00  0.00     0.276 C 
BRANCH  16  17
HETATM   17  N   UNK N   1      33.449  12.992   7.278  0.00  0.00     0.098 N 
HETATM   18  C   UNK N   1      34.804  12.456   7.338  0.00  0.00     0.225 C 
HETATM   19  C   UNK N   1      34.822  11.718   8.672  0.00  0.00     0.038 C 
HETATM   20  C   UNK N   1      35.828  13.606   7.325  0.00  0.00     0.061 C 
HETATM   21  C   UNK N   1      33.740  12.427   9.496  0.00  0.00     0.038 C 
HETATM   22  C   UNK N   1      33.280  13.571   8.603  0.00  0.00     0.225 C 
HETATM   23  C   UNK N   1      34.180  14.829   8.787  0.00  0.00     0.061 C 
HETATM   24  C   UNK N   1      35.683  14.580   8.506  0.00  0.00     0.097 C 
BRANCH  24  25
HETATM   25  N   UNK N   1      36.479  14.136   9.683  0.00  0.00    -0.319 N 
HETATM   26  C   UNK N   1      36.293  14.377  11.010  0.00  0.00     0.095 A 
HETATM   27  C   UNK N   1      35.216  15.200  11.629  0.00  0.00     0.091 C 
HETATM   28  N   UNK N   1      37.275  13.825  11.744  0.00  0.00    -0.288 N 
HETATM   29  N   UNK N   1      38.113  13.236  10.908  0.00  0.00    -0.287 N 
ATOM     30  HN  UNK N   1      37.358  13.856  12.760  1.00  0.00     0.188 HD
HETATM   31  C   UNK N   1      37.643  13.426   9.662  0.00  0.00     0.103 A 
ATOM     32  HN  UNK N   1      38.961  12.731  11.162  1.00  0.00     0.188 HD
BRANCH  31  33
HETATM   33  C   UNK N   1      38.398  12.929   8.459  0.00  0.00     0.047 C 
HETATM   34  C   UNK N   1      38.938  11.526   8.655  0.00  0.00     0.017 C 
HETATM   35  C   UNK N   1      39.473  13.880   7.971  0.00  0.00     0.017 C 
ENDBRANCH  31  33
ENDBRANCH  24  25
ENDBRANCH  16  17
ENDBRANCH  15  16
ENDBRANCH  14  15
BRANCH  14  36
HETATM   36  C   UNK N   1      32.232  16.731   6.557  0.00  0.00    -0.035 A 
HETATM   37  C   UNK N   1      33.518  17.150   6.180  0.00  0.00     0.009 A 
HETATM   38  C   UNK N   1      34.231  18.048   6.981  0.00  0.00     0.001 A 
HETATM   39  C   UNK N   1      33.668  18.528   8.167  0.00  0.00     0.000 A 
HETATM   40  C   UNK N   1      32.391  18.116   8.551  0.00  0.00     0.001 A 
HETATM   41  C   UNK N   1      31.676  17.220   7.750  0.00  0.00     0.009 A 
ENDBRANCH  14  36
ENDBRANCH   2  14
TORSDOF 8
ENDMDL
MODEL 5
REMARK VINA RESULT:      -7.9      9.274     11.918
REMARK  8 active torsions:
REMARK  status: ('A' for Active; 'I' for Inactive)
REMARK    1  A    between atoms: C_16  and  C_13 
REMARK    2  A    between atoms: C_26  and  C_13 
REMARK    3  A    between atoms: N_38  and  C_16 
REMARK    4  A    between atoms: C_27  and  C_19 
REMARK    5  A    between atoms: C_26  and  C_21 
REMARK    6  A    between atoms: C_28  and  C_22 
REMARK    7  A    between atoms: C_25  and  N_39 
REMARK    8  A    between atoms: C_26  and  N_32 
ROOT
HETATM    1  C   UNK N   1      33.381  16.760   5.447  0.00  0.00     0.116 C 
HETATM    2  N   UNK N   1      32.821  16.522   6.586  0.00  0.00    -0.365 N 
ATOM      3  HN  UNK N   1      32.541  15.555   6.753  1.00  0.00     0.162 HD
HETATM    4  O   UNK N   1      33.880  17.979   5.145  0.00  0.00    -0.349 OA
HETATM    5  H   UNK N   1      34.315  18.796   5.001  0.00  0.00     0.219 HD
ENDROOT
BRANCH   1   6
HETATM    6  C   UNK N   1      33.440  15.649   4.442  0.00  0.00     0.060 C 
HETATM    7  C   UNK N   1      33.100  16.101   3.020  0.00  0.00     0.019 C 
HETATM    8  C   UNK N   1      31.602  16.350   2.849  0.00  0.00     0.080 C 
HETATM    9  C   UNK N   1      30.790  15.115   3.241  0.00  0.00     0.243 C 
HETATM   10  C   UNK N   1      31.093  14.729   4.687  0.00  0.00     0.080 C 
HETATM   11  F   UNK N   1      31.095  14.059   2.399  0.00  0.00    -0.206 F 
HETATM   12  F   UNK N   1      29.445  15.407   3.122  0.00  0.00    -0.206 F 
HETATM   13  C   UNK N   1      32.586  14.448   4.866  0.00  0.00     0.019 C 
ENDBRANCH   1   6
BRANCH   2  14
HETATM   14  C   UNK N   1      32.543  17.464   7.664  0.00  0.00     0.118 C 
BRANCH  14  15
HETATM   15  C   UNK N   1      33.338  17.171   8.957  0.00  0.00     0.060 C 
BRANCH  15  16
HETATM   16  C   UNK N   1      33.600  15.681   9.171  0.00  0.00     0.276 C 
BRANCH  16  17
HETATM   17  N   UNK N   1      35.035  15.497   9.399  0.00  0.00     0.098 N 
HETATM   18  C   UNK N   1      35.460  15.595  10.791  0.00  0.00     0.225 C 
HETATM   19  C   UNK N   1      36.936  15.221  10.727  0.00  0.00     0.038 C 
HETATM   20  C   UNK N   1      34.670  14.594  11.655  0.00  0.00     0.061 C 
HETATM   21  C   UNK N   1      37.039  14.354   9.466  0.00  0.00     0.038 C 
HETATM   22  C   UNK N   1      35.600  14.220   8.986  0.00  0.00     0.225 C 
HETATM   23  C   UNK N   1      34.878  13.032   9.689  0.00  0.00     0.061 C 
HETATM   24  C   UNK N   1      34.859  13.126  11.236  0.00  0.00     0.097 C 
BRANCH  24  25
HETATM   25  N   UNK N   1      36.026  12.507  11.920  0.00  0.00    -0.319 N 
HETATM   26  C   UNK N   1      36.886  11.543  11.490  0.00  0.00     0.095 A 
HETATM   27  C   UNK N   1      36.847  10.826  10.184  0.00  0.00     0.091 C 
HETATM   28  N   UNK N   1      37.782  11.234  12.443  0.00  0.00    -0.288 N 
HETATM   29  N   UNK N   1      37.509  11.977  13.501  0.00  0.00    -0.287 N 
ATOM     30  HN  UNK N   1      38.535  10.550  12.363  1.00  0.00     0.188 HD
HETATM   31  C   UNK N   1      36.447  12.743  13.196  0.00  0.00     0.103 A 
ATOM     32  HN  UNK N   1      38.012  11.971  14.389  1.00  0.00     0.188 HD
BRANCH  31  33
HETATM   33  C   UNK N   1      35.836  13.671  14.211  0.00  0.00     0.047 C 
HETATM   34  C   UNK N   1      36.859  14.600  14.834  0.00  0.00     0.017 C 
HETATM   35  C   UNK N   1      35.001  12.970  15.263  0.00  0.00     0.017 C 
ENDBRANCH  31  33
ENDBRANCH  24  25
ENDBRANCH  16  17
ENDBRANCH  15  16
ENDBRANCH  14  15
BRANCH  14  36
HETATM   36  C   UNK N   1      31.066  17.640   7.919  0.00  0.00    -0.035 A 
HETATM   37  C   UNK N   1      30.598  18.299   9.067  0.00  0.00     0.009 A 
HETATM   38  C   UNK N   1      29.224  18.416   9.304  0.00  0.00     0.001 A 
HETATM   39  C   UNK N   1      28.310  17.870   8.399  0.00  0.00     0.000 A 
HETATM   40  C   UNK N   1      28.766  17.212   7.255  0.00  0.00     0.001 A 
HETATM   41  C   UNK N   1      30.138  17.096   7.017  0.00  0.00     0.009 A 
ENDBRANCH  14  36
ENDBRANCH   2  14
TORSDOF 8
ENDMDL
MODEL 6
REMARK VINA RESULT:      -7.8     13.683     15.876
REMARK  8 active torsions:
REMARK  status: ('A' for Active; 'I' for Inactive)
REMARK    1  A    between atoms: C_16  and  C_13 
REMARK    2  A    between atoms: C_26  and  C_13 
REMARK    3  A    between atoms: N_38  and  C_16 
REMARK    4  A    between atoms: C_27  and  C_19 
REMARK    5  A    between atoms: C_26  and  C_21 
REMARK    6  A    between atoms: C_28  and  C_22 
REMARK    7  A    between atoms: C_25  and  N_39 
REMARK    8  A    between atoms: C_26  and  N_32 
ROOT
HETATM    1  C   UNK N   1      26.474  27.838  -3.798  0.00  0.00     0.116 C 
HETATM    2  N   UNK N   1      26.944  26.775  -4.361  0.00  0.00    -0.365 N 
ATOM      3  HN  UNK N   1      27.773  26.906  -4.941  1.00  0.00     0.162 HD
HETATM    4  O   UNK N   1      25.437  27.781  -2.933  0.00  0.00    -0.349 OA
HETATM    5  H   UNK N   1      24.794  27.704  -2.256  0.00  0.00     0.219 HD
ENDROOT
BRANCH   1   6
HETATM    6  C   UNK N   1      27.092  29.158  -4.150  0.00  0.00     0.060 C 
HETATM    7  C   UNK N   1      28.527  29.034  -4.668  0.00  0.00     0.019 C 
HETATM    8  C   UNK N   1      29.511  28.728  -3.540  0.00  0.00     0.080 C 
HETATM    9  C   UNK N   1      29.417  29.773  -2.428  0.00  0.00     0.243 C 
HETATM   10  C   UNK N   1      27.993  29.825  -1.879  0.00  0.00     0.080 C 
HETATM   11  F   UNK N   1      29.777  31.019  -2.915  0.00  0.00    -0.206 F 
HETATM   12  F   UNK N   1      30.282  29.424  -1.410  0.00  0.00    -0.206 F 
HETATM   13  C   UNK N   1      26.999  30.160  -2.993  0.00  0.00     0.019 C 
ENDBRANCH   1   6
BRANCH   2  14
HETATM   14  C   UNK N   1      26.437  25.411  -4.268  0.00  0.00     0.118 C 
BRANCH  14  15
HETATM   15  C   UNK N   1      27.321  24.484  -3.403  0.00  0.00     0.060 C 
BRANCH  15  16
HETATM   16  C   UNK N   1      28.816  24.737  -3.594  0.00  0.00     0.276 C 
BRANCH  16  17
HETATM   17  N   UNK N   1      29.532  23.494  -3.299  0.00  0.00     0.098 N 
HETATM   18  C   UNK N   1      29.304  22.407  -4.244  0.00  0.00     0.225 C 
HETATM   19  C   UNK N   1      30.271  21.329  -3.767  0.00  0.00     0.038 C 
HETATM   20  C   UNK N   1      29.646  22.869  -5.672  0.00  0.00     0.061 C 
HETATM   21  C   UNK N   1      31.366  22.118  -3.038  0.00  0.00     0.038 C 
HETATM   22  C   UNK N   1      30.985  23.576  -3.257  0.00  0.00     0.225 C 
HETATM   23  C   UNK N   1      31.557  24.113  -4.602  0.00  0.00     0.061 C 
HETATM   24  C   UNK N   1      31.108  23.311  -5.849  0.00  0.00     0.097 C 
BRANCH  24  25
HETATM   25  N   UNK N   1      31.986  22.166  -6.211  0.00  0.00    -0.319 N 
HETATM   26  C   UNK N   1      33.309  21.959  -5.961  0.00  0.00     0.095 A 
HETATM   27  C   UNK N   1      34.241  22.883  -5.255  0.00  0.00     0.091 C 
HETATM   28  N   UNK N   1      33.730  20.805  -6.506  0.00  0.00    -0.288 N 
HETATM   29  N   UNK N   1      32.699  20.259  -7.127  0.00  0.00    -0.287 N 
ATOM     30  HN  UNK N   1      34.674  20.423  -6.452  1.00  0.00     0.188 HD
HETATM   31  C   UNK N   1      31.645  21.077  -6.959  0.00  0.00     0.103 A 
ATOM     32  HN  UNK N   1      32.702  19.377  -7.639  1.00  0.00     0.188 HD
BRANCH  31  33
HETATM   33  C   UNK N   1      30.315  20.777  -7.595  0.00  0.00     0.047 C 
HETATM   34  C   UNK N   1      29.908  19.326  -7.426  0.00  0.00     0.017 C 
HETATM   35  C   UNK N   1      30.207  21.225  -9.039  0.00  0.00     0.017 C 
ENDBRANCH  31  33
ENDBRANCH  24  25
ENDBRANCH  16  17
ENDBRANCH  15  16
ENDBRANCH  14  15
BRANCH  14  36
HETATM   36  C   UNK N   1      26.117  24.814  -5.616  0.00  0.00    -0.035 A 
HETATM   37  C   UNK N   1      25.959  23.428  -5.781  0.00  0.00     0.009 A 
HETATM   38  C   UNK N   1      25.702  22.892  -7.047  0.00  0.00     0.001 A 
HETATM   39  C   UNK N   1      25.609  23.735  -8.158  0.00  0.00     0.000 A 
HETATM   40  C   UNK N   1      25.766  25.114  -8.004  0.00  0.00     0.001 A 
HETATM   41  C   UNK N   1      26.021  25.651  -6.739  0.00  0.00     0.009 A 
ENDBRANCH  14  36
ENDBRANCH   2  14
TORSDOF 8
ENDMDL
MODEL 7
REMARK VINA RESULT:      -7.7      5.014      9.150
REMARK  8 active torsions:
REMARK  status: ('A' for Active; 'I' for Inactive)
REMARK    1  A    between atoms: C_16  and  C_13 
REMARK    2  A    between atoms: C_26  and  C_13 
REMARK    3  A    between atoms: N_38  and  C_16 
REMARK    4  A    between atoms: C_27  and  C_19 
REMARK    5  A    between atoms: C_26  and  C_21 
REMARK    6  A    between atoms: C_28  and  C_22 
REMARK    7  A    between atoms: C_25  and  N_39 
REMARK    8  A    between atoms: C_26  and  N_32 
ROOT
HETATM    1  C   UNK N   1      21.966  11.443   6.375  0.00  0.00     0.116 C 
HETATM    2  N   UNK N   1      22.503  12.335   7.140  0.00  0.00    -0.365 N 
ATOM      3  HN  UNK N   1      23.499  12.503   6.999  1.00  0.00     0.162 HD
HETATM    4  O   UNK N   1      20.639  11.196   6.400  0.00  0.00    -0.349 OA
HETATM    5  H   UNK N   1      19.706  11.120   6.356  0.00  0.00     0.219 HD
ENDROOT
BRANCH   1   6
HETATM    6  C   UNK N   1      22.864  10.657   5.467  0.00  0.00     0.060 C 
HETATM    7  C   UNK N   1      22.173   9.449   4.830  0.00  0.00     0.019 C 
HETATM    8  C   UNK N   1      21.980   8.314   5.835  0.00  0.00     0.080 C 
HETATM    9  C   UNK N   1      23.310   7.912   6.474  0.00  0.00     0.243 C 
HETATM   10  C   UNK N   1      23.943   9.118   7.164  0.00  0.00     0.080 C 
HETATM   11  F   UNK N   1      24.171   7.418   5.509  0.00  0.00    -0.206 F 
HETATM   12  F   UNK N   1      23.077   6.925   7.412  0.00  0.00    -0.206 F 
HETATM   13  C   UNK N   1      24.169  10.252   6.163  0.00  0.00     0.019 C 
ENDBRANCH   1   6
BRANCH   2  14
HETATM   14  C   UNK N   1      21.860  13.131   8.178  0.00  0.00     0.118 C 
BRANCH  14  15
HETATM   15  C   UNK N   1      21.984  14.655   7.949  0.00  0.00     0.060 C 
BRANCH  15  16
HETATM   16  C   UNK N   1      22.110  15.028   6.472  0.00  0.00     0.276 C 
BRANCH  16  17
HETATM   17  N   UNK N   1      20.762  15.197   5.926  0.00  0.00     0.098 N 
HETATM   18  C   UNK N   1      20.505  16.486   5.294  0.00  0.00     0.225 C 
HETATM   19  C   UNK N   1      19.109  16.309   4.708  0.00  0.00     0.038 C 
HETATM   20  C   UNK N   1      21.544  16.747   4.187  0.00  0.00     0.061 C 
HETATM   21  C   UNK N   1      18.986  14.793   4.509  0.00  0.00     0.038 C 
HETATM   22  C   UNK N   1      20.356  14.253   4.895  0.00  0.00     0.225 C 
HETATM   23  C   UNK N   1      21.337  14.286   3.685  0.00  0.00     0.061 C 
HETATM   24  C   UNK N   1      21.536  15.693   3.066  0.00  0.00     0.097 C 
BRANCH  24  25
HETATM   25  N   UNK N   1      20.574  16.049   1.988  0.00  0.00    -0.319 N 
HETATM   26  C   UNK N   1      20.105  17.265   1.596  0.00  0.00     0.095 A 
HETATM   27  C   UNK N   1      20.435  18.589   2.198  0.00  0.00     0.091 C 
HETATM   28  N   UNK N   1      19.208  17.142   0.603  0.00  0.00    -0.288 N 
HETATM   29  N   UNK N   1      19.072  15.851   0.349  0.00  0.00    -0.287 N 
ATOM     30  HN  UNK N   1      18.719  17.904   0.133  1.00  0.00     0.188 HD
HETATM   31  C   UNK N   1      19.888  15.185   1.185  0.00  0.00     0.103 A 
ATOM     32  HN  UNK N   1      18.460  15.436  -0.354  1.00  0.00     0.188 HD
BRANCH  31  33
HETATM   33  C   UNK N   1      19.934  13.681   1.198  0.00  0.00     0.047 C 
HETATM   34  C   UNK N   1      21.134  13.133   0.452  0.00  0.00     0.017 C 
HETATM   35  C   UNK N   1      18.645  13.022   0.748  0.00  0.00     0.017 C 
ENDBRANCH  31  33
ENDBRANCH  24  25
ENDBRANCH  16  17
ENDBRANCH  15  16
ENDBRANCH  14  15
BRANCH  14  36
HETATM   36  C   UNK N   1      22.271  12.719   9.569  0.00  0.00    -0.035 A 
HETATM   37  C   UNK N   1      23.614  12.459   9.887  0.00  0.00     0.009 A 
HETATM   38  C   UNK N   1      23.967  12.039  11.173  0.00  0.00     0.001 A 
HETATM   39  C   UNK N   1      22.981  11.870  12.149  0.00  0.00     0.000 A 
HETATM   40  C   UNK N   1      21.643  12.125  11.843  0.00  0.00     0.001 A 
HETATM   41  C   UNK N   1      21.289  12.546  10.558  0.00  0.00     0.009 A 
ENDBRANCH  14  36
ENDBRANCH   2  14
TORSDOF 8
ENDMDL
MODEL 8
REMARK VINA RESULT:      -7.7     12.049     16.334
REMARK  8 active torsions:
REMARK  status: ('A' for Active; 'I' for Inactive)
REMARK    1  A    between atoms: C_16  and  C_13 
REMARK    2  A    between atoms: C_26  and  C_13 
REMARK    3  A    between atoms: N_38  and  C_16 
REMARK    4  A    between atoms: C_27  and  C_19 
REMARK    5  A    between atoms: C_26  and  C_21 
REMARK    6  A    between atoms: C_28  and  C_22 
REMARK    7  A    between atoms: C_25  and  N_39 
REMARK    8  A    between atoms: C_26  and  N_32 
ROOT
HETATM    1  C   UNK N   1      35.195  10.113  13.867  0.00  0.00     0.116 C 
HETATM    2  N   UNK N   1      35.989  10.863  14.556  0.00  0.00    -0.365 N 
ATOM      3  HN  UNK N   1      36.904  10.468  14.769  1.00  0.00     0.162 HD
HETATM    4  O   UNK N   1      33.992  10.558  13.441  0.00  0.00    -0.349 OA
HETATM    5  H   UNK N   1      33.216  10.923  13.065  0.00  0.00     0.219 HD
ENDROOT
BRANCH   1   6
HETATM    6  C   UNK N   1      35.630   8.709  13.569  0.00  0.00     0.060 C 
HETATM    7  C   UNK N   1      37.149   8.559  13.448  0.00  0.00     0.019 C 
HETATM    8  C   UNK N   1      37.670   9.137  12.133  0.00  0.00     0.080 C 
HETATM    9  C   UNK N   1      36.960   8.509  10.934  0.00  0.00     0.243 C 
HETATM   10  C   UNK N   1      35.453   8.736  11.043  0.00  0.00     0.080 C 
HETATM   11  F   UNK N   1      37.227   7.151  10.881  0.00  0.00    -0.206 F 
HETATM   12  F   UNK N   1      37.424   9.101   9.777  0.00  0.00    -0.206 F 
HETATM   13  C   UNK N   1      34.912   8.136  12.341  0.00  0.00     0.019 C 
ENDBRANCH   1   6
BRANCH   2  14
HETATM   14  C   UNK N   1      35.737  12.207  15.064  0.00  0.00     0.118 C 
BRANCH  14  15
HETATM   15  C   UNK N   1      36.767  13.252  14.575  0.00  0.00     0.060 C 
BRANCH  15  16
HETATM   16  C   UNK N   1      36.187  14.228  13.553  0.00  0.00     0.276 C 
BRANCH  16  17
HETATM   17  N   UNK N   1      35.535  13.451  12.496  0.00  0.00     0.098 N 
HETATM   18  C   UNK N   1      34.597  14.198  11.665  0.00  0.00     0.225 C 
HETATM   19  C   UNK N   1      34.207  13.185  10.595  0.00  0.00     0.038 C 
HETATM   20  C   UNK N   1      35.300  15.420  11.045  0.00  0.00     0.061 C 
HETATM   21  C   UNK N   1      35.401  12.225  10.546  0.00  0.00     0.038 C 
HETATM   22  C   UNK N   1      36.410  12.835  11.509  0.00  0.00     0.225 C 
HETATM   23  C   UNK N   1      37.296  13.902  10.799  0.00  0.00     0.061 C 
HETATM   24  C   UNK N   1      36.498  15.060  10.149  0.00  0.00     0.097 C 
BRANCH  24  25
HETATM   25  N   UNK N   1      36.077  14.823   8.742  0.00  0.00    -0.319 N 
HETATM   26  C   UNK N   1      36.610  14.006   7.792  0.00  0.00     0.095 A 
HETATM   27  C   UNK N   1      37.810  13.133   7.932  0.00  0.00     0.091 C 
HETATM   28  N   UNK N   1      35.950  14.124   6.627  0.00  0.00    -0.288 N 
HETATM   29  N   UNK N   1      34.998  15.024   6.799  0.00  0.00    -0.287 N 
ATOM     30  HN  UNK N   1      36.150  13.613   5.767  1.00  0.00     0.188 HD
HETATM   31  C   UNK N   1      35.073  15.456   8.070  0.00  0.00     0.103 A 
ATOM     32  HN  UNK N   1      34.328  15.335   6.095  1.00  0.00     0.188 HD
BRANCH  31  33
HETATM   33  C   UNK N   1      34.160  16.537   8.583  0.00  0.00     0.047 C 
HETATM   34  C   UNK N   1      32.699  16.137   8.521  0.00  0.00     0.017 C 
HETATM   35  C   UNK N   1      34.396  17.894   7.951  0.00  0.00     0.017 C 
ENDBRANCH  31  33
ENDBRANCH  24  25
ENDBRANCH  16  17
ENDBRANCH  15  16
ENDBRANCH  14  15
BRANCH  14  36
HETATM   36  C   UNK N   1      35.545  12.239  16.560  0.00  0.00    -0.035 A 
HETATM   37  C   UNK N   1      35.267  13.439  17.234  0.00  0.00     0.009 A 
HETATM   38  C   UNK N   1      35.132  13.453  18.626  0.00  0.00     0.001 A 
HETATM   39  C   UNK N   1      35.279  12.269  19.354  0.00  0.00     0.000 A 
HETATM   40  C   UNK N   1      35.556  11.071  18.693  0.00  0.00     0.001 A 
HETATM   41  C   UNK N   1      35.690  11.056  17.302  0.00  0.00     0.009 A 
ENDBRANCH  14  36
ENDBRANCH   2  14
TORSDOF 8
ENDMDL
MODEL 9
REMARK VINA RESULT:      -7.7     13.985     16.242
REMARK  8 active torsions:
REMARK  status: ('A' for Active; 'I' for Inactive)
REMARK    1  A    between atoms: C_16  and  C_13 
REMARK    2  A    between atoms: C_26  and  C_13 
REMARK    3  A    between atoms: N_38  and  C_16 
REMARK    4  A    between atoms: C_27  and  C_19 
REMARK    5  A    between atoms: C_26  and  C_21 
REMARK    6  A    between atoms: C_28  and  C_22 
REMARK    7  A    between atoms: C_25  and  N_39 
REMARK    8  A    between atoms: C_26  and  N_32 
ROOT
HETATM    1  C   UNK N   1      26.655  27.729  -3.236  0.00  0.00     0.116 C 
HETATM    2  N   UNK N   1      27.033  26.585  -3.701  0.00  0.00    -0.365 N 
ATOM      3  HN  UNK N   1      28.041  26.432  -3.749  1.00  0.00     0.162 HD
HETATM    4  O   UNK N   1      25.350  28.016  -3.037  0.00  0.00    -0.349 OA
HETATM    5  H   UNK N   1      24.453  28.151  -2.804  0.00  0.00     0.219 HD
ENDROOT
BRANCH   1   6
HETATM    6  C   UNK N   1      27.708  28.757  -2.946  0.00  0.00     0.060 C 
HETATM    7  C   UNK N   1      27.277  30.182  -3.305  0.00  0.00     0.019 C 
HETATM    8  C   UNK N   1      27.285  30.411  -4.815  0.00  0.00     0.080 C 
HETATM    9  C   UNK N   1      28.652  30.085  -5.416  0.00  0.00     0.243 C 
HETATM   10  C   UNK N   1      29.026  28.637  -5.106  0.00  0.00     0.080 C 
HETATM   11  F   UNK N   1      29.614  30.938  -4.900  0.00  0.00    -0.206 F 
HETATM   12  F   UNK N   1      28.593  30.254  -6.785  0.00  0.00    -0.206 F 
HETATM   13  C   UNK N   1      29.051  28.399  -3.595  0.00  0.00     0.019 C 
ENDBRANCH   1   6
BRANCH   2  14
HETATM   14  C   UNK N   1      26.197  25.484  -4.164  0.00  0.00     0.118 C 
BRANCH  14  15
HETATM   15  C   UNK N   1      26.595  24.115  -3.565  0.00  0.00     0.060 C 
BRANCH  15  16
HETATM   16  C   UNK N   1      28.100  23.982  -3.332  0.00  0.00     0.276 C 
BRANCH  16  17
HETATM   17  N   UNK N   1      28.741  23.720  -4.622  0.00  0.00     0.098 N 
HETATM   18  C   UNK N   1      29.697  24.733  -5.056  0.00  0.00     0.225 C 
HETATM   19  C   UNK N   1      30.291  24.124  -6.321  0.00  0.00     0.038 C 
HETATM   20  C   UNK N   1      30.777  24.935  -3.977  0.00  0.00     0.061 C 
HETATM   21  C   UNK N   1      30.098  22.615  -6.126  0.00  0.00     0.038 C 
HETATM   22  C   UNK N   1      29.515  22.491  -4.725  0.00  0.00     0.225 C 
HETATM   23  C   UNK N   1      30.639  22.441  -3.648  0.00  0.00     0.061 C 
HETATM   24  C   UNK N   1      31.587  23.666  -3.662  0.00  0.00     0.097 C 
BRANCH  24  25
HETATM   25  N   UNK N   1      32.770  23.536  -4.555  0.00  0.00    -0.319 N 
HETATM   26  C   UNK N   1      33.475  24.491  -5.223  0.00  0.00     0.095 A 
HETATM   27  C   UNK N   1      33.203  25.956  -5.242  0.00  0.00     0.091 C 
HETATM   28  N   UNK N   1      34.453  23.941  -5.963  0.00  0.00    -0.288 N 
HETATM   29  N   UNK N   1      34.388  22.631  -5.798  0.00  0.00    -0.287 N 
ATOM     30  HN  UNK N   1      35.123  24.444  -6.546  1.00  0.00     0.188 HD
HETATM   31  C   UNK N   1      33.371  22.379  -4.956  0.00  0.00     0.103 A 
ATOM     32  HN  UNK N   1      34.998  21.938  -6.232  1.00  0.00     0.188 HD
BRANCH  31  33
HETATM   33  C   UNK N   1      32.984  20.969  -4.599  0.00  0.00     0.047 C 
HETATM   34  C   UNK N   1      33.924  20.350  -3.584  0.00  0.00     0.017 C 
HETATM   35  C   UNK N   1      32.779  20.065  -5.799  0.00  0.00     0.017 C 
ENDBRANCH  31  33
ENDBRANCH  24  25
ENDBRANCH  16  17
ENDBRANCH  15  16
ENDBRANCH  14  15
BRANCH  14  36
HETATM   36  C   UNK N   1      26.064  25.442  -5.666  0.00  0.00    -0.035 A 
HETATM   37  C   UNK N   1      25.848  24.233  -6.346  0.00  0.00     0.009 A 
HETATM   38  C   UNK N   1      25.768  24.212  -7.742  0.00  0.00     0.001 A 
HETATM   39  C   UNK N   1      25.910  25.397  -8.469  0.00  0.00     0.000 A 
HETATM   40  C   UNK N   1      26.126  26.604  -7.802  0.00  0.00     0.001 A 
HETATM   41  C   UNK N   1      26.204  26.627  -6.406  0.00  0.00     0.009 A 
ENDBRANCH  14  36
ENDBRANCH   2  14
TORSDOF 8
ENDMDL
