MODEL 1
REMARK VINA RESULT:      -4.8      0.000      0.000
REMARK  1 active torsions:
REMARK  status: ('A' for Active; 'I' for Inactive)
REMARK    1  A    between atoms: N_1  and  C_4 
ROOT
HETATM    1  C   UNK N   1      25.857  26.732  -6.117  0.00  0.00    -0.045 C 
HETATM    2  C   UNK N   1      27.119  28.067  -4.299  0.00  0.00    -0.045 C 
HETATM    3  C   UNK N   1      27.167  25.508  -4.237  0.00  0.00     0.021 C 
HETATM    4  C   UNK N   1      26.890  27.822  -5.803  0.00  0.00     0.017 C 
HETATM    5  C   UNK N   1      26.183  25.403  -5.411  0.00  0.00     0.038 C 
HETATM    6  C   UNK N   1      26.915  26.797  -3.453  0.00  0.00     0.038 C 
HETATM    7  C   UNK N   1      24.464  27.185  -5.720  0.00  0.00     0.015 C 
HETATM    8  C   UNK N   1      25.862  26.482  -7.611  0.00  0.00     0.015 C 
HETATM    9  C   UNK N   1      26.179  29.140  -3.788  0.00  0.00     0.015 C 
HETATM   10  C   UNK N   1      28.539  28.568  -4.126  0.00  0.00     0.015 C 
HETATM   11  C   UNK N   1      26.955  24.317  -3.325  0.00  0.00     0.038 C 
ENDROOT
BRANCH   3  12
HETATM   12  N   UNK N   1      28.532  25.475  -4.733  0.00  0.00    -0.422 N 
HETATM   13  H   UNK N   1      29.304  25.031  -5.231  0.00  0.00     0.150 HD
HETATM   14  H   UNK N   1      28.926  26.361  -4.417  0.00  0.00     0.150 HD
ENDBRANCH   3  12
TORSDOF 1
ENDMDL
MODEL 2
REMARK VINA RESULT:      -4.7     15.900     17.769
REMARK  1 active torsions:
REMARK  status: ('A' for Active; 'I' for Inactive)
REMARK    1  A    between atoms: N_1  and  C_4 
ROOT
HETATM    1  C   UNK N   1      33.583  17.435   7.728  0.00  0.00    -0.045 C 
HETATM    2  C   UNK N   1      31.062  16.914   7.959  0.00  0.00    -0.045 C 
HETATM    3  C   UNK N   1      32.778  15.161   8.691  0.00  0.00     0.021 C 
HETATM    4  C   UNK N   1      32.220  17.881   8.273  0.00  0.00     0.017 C 
HETATM    5  C   UNK N   1      33.950  16.010   8.178  0.00  0.00     0.038 C 
HETATM    6  C   UNK N   1      31.521  15.447   7.868  0.00  0.00     0.038 C 
HETATM    7  C   UNK N   1      33.600  17.504   6.211  0.00  0.00     0.015 C 
HETATM    8  C   UNK N   1      34.643  18.380   8.252  0.00  0.00     0.015 C 
HETATM    9  C   UNK N   1      30.398  17.291   6.651  0.00  0.00     0.015 C 
HETATM   10  C   UNK N   1      30.033  17.055   9.064  0.00  0.00     0.015 C 
HETATM   11  C   UNK N   1      33.146  13.698   8.551  0.00  0.00     0.038 C 
ENDROOT
BRANCH   3  12
HETATM   12  N   UNK N   1      32.540  15.447  10.096  0.00  0.00    -0.422 N 
HETATM   13  H   UNK N   1      32.776  15.896  10.981  0.00  0.00     0.150 HD
HETATM   14  H   UNK N   1      31.691  14.924  10.309  0.00  0.00     0.150 HD
ENDBRANCH   3  12
TORSDOF 1
ENDMDL
MODEL 3
REMARK VINA RESULT:      -4.7     15.082     16.852
REMARK  1 active torsions:
REMARK  status: ('A' for Active; 'I' for Inactive)
REMARK    1  A    between atoms: N_1  and  C_4 
ROOT
HETATM    1  C   UNK N   1      30.965  16.396   6.351  0.00  0.00    -0.045 C 
HETATM    2  C   UNK N   1      33.072  16.844   7.778  0.00  0.00    -0.045 C 
HETATM    3  C   UNK N   1      30.784  17.599   8.646  0.00  0.00     0.021 C 
HETATM    4  C   UNK N   1      32.215  15.812   7.020  0.00  0.00     0.017 C 
HETATM    5  C   UNK N   1      30.087  17.180   7.343  0.00  0.00     0.038 C 
HETATM    6  C   UNK N   1      32.234  17.996   8.363  0.00  0.00     0.038 C 
HETATM    7  C   UNK N   1      31.350  17.302   5.195  0.00  0.00     0.015 C 
HETATM    8  C   UNK N   1      30.139  15.254   5.797  0.00  0.00     0.015 C 
HETATM    9  C   UNK N   1      34.125  17.434   6.862  0.00  0.00     0.015 C 
HETATM   10  C   UNK N   1      33.784  16.116   8.900  0.00  0.00     0.015 C 
HETATM   11  C   UNK N   1      30.044  18.786   9.227  0.00  0.00     0.038 C 
ENDROOT
BRANCH   3  12
HETATM   12  N   UNK N   1      30.736  16.507   9.604  0.00  0.00    -0.422 N 
HETATM   13  H   UNK N   1      30.284  15.701  10.036  0.00  0.00     0.150 HD
HETATM   14  H   UNK N   1      31.616  16.593  10.112  0.00  0.00     0.150 HD
ENDBRANCH   3  12
TORSDOF 1
ENDMDL
MODEL 4
REMARK VINA RESULT:      -4.6      1.450      2.212
REMARK  1 active torsions:
REMARK  status: ('A' for Active; 'I' for Inactive)
REMARK    1  A    between atoms: N_1  and  C_4 
ROOT
HETATM    1  C   UNK N   1      27.538  27.161  -7.052  0.00  0.00    -0.045 C 
HETATM    2  C   UNK N   1      25.908  27.378  -5.058  0.00  0.00    -0.045 C 
HETATM    3  C   UNK N   1      27.978  25.888  -4.830  0.00  0.00     0.021 C 
HETATM    4  C   UNK N   1      26.793  28.098  -6.094  0.00  0.00     0.017 C 
HETATM    5  C   UNK N   1      28.364  26.100  -6.301  0.00  0.00     0.038 C 
HETATM    6  C   UNK N   1      26.461  25.996  -4.663  0.00  0.00     0.038 C 
HETATM    7  C   UNK N   1      26.564  26.469  -7.989  0.00  0.00     0.015 C 
HETATM    8  C   UNK N   1      28.490  27.988  -7.890  0.00  0.00     0.015 C 
HETATM    9  C   UNK N   1      24.504  27.195  -5.597  0.00  0.00     0.015 C 
HETATM   10  C   UNK N   1      25.826  28.260  -3.829  0.00  0.00     0.015 C 
HETATM   11  C   UNK N   1      28.432  24.506  -4.408  0.00  0.00     0.038 C 
ENDROOT
BRANCH   3  12
HETATM   12  N   UNK N   1      28.651  26.872  -3.998  0.00  0.00    -0.422 N 
HETATM   13  H   UNK N   1      28.680  27.532  -3.221  0.00  0.00     0.150 HD
HETATM   14  H   UNK N   1      29.584  26.936  -4.405  0.00  0.00     0.150 HD
ENDBRANCH   3  12
TORSDOF 1
ENDMDL
MODEL 5
REMARK VINA RESULT:      -4.4     25.034     26.617
REMARK  1 active torsions:
REMARK  status: ('A' for Active; 'I' for Inactive)
REMARK    1  A    between atoms: N_1  and  C_4 
ROOT
HETATM    1  C   UNK N   1      34.707  10.957  13.839  0.00  0.00    -0.045 C 
HETATM    2  C   UNK N   1      35.775  12.662  15.461  0.00  0.00    -0.045 C 
HETATM    3  C   UNK N   1      36.924  10.406  15.077  0.00  0.00     0.021 C 
HETATM    4  C   UNK N   1      35.219  12.387  14.051  0.00  0.00     0.017 C 
HETATM    5  C   UNK N   1      35.768   9.901  14.202  0.00  0.00     0.038 C 
HETATM    6  C   UNK N   1      36.405  11.413  16.105  0.00  0.00     0.038 C 
HETATM    7  C   UNK N   1      33.453  10.711  14.659  0.00  0.00     0.015 C 
HETATM    8  C   UNK N   1      34.354  10.783  12.377  0.00  0.00     0.015 C 
HETATM    9  C   UNK N   1      34.679  13.171  16.374  0.00  0.00     0.015 C 
HETATM   10  C   UNK N   1      36.824  13.750  15.338  0.00  0.00     0.015 C 
HETATM   11  C   UNK N   1      37.533   9.222  15.799  0.00  0.00     0.038 C 
ENDROOT
BRANCH   3  12
HETATM   12  N   UNK N   1      37.945  11.015  14.242  0.00  0.00    -0.422 N 
HETATM   13  H   UNK N   1      38.260  11.474  13.387  0.00  0.00     0.150 HD
HETATM   14  H   UNK N   1      38.791  10.950  14.808  0.00  0.00     0.150 HD
ENDBRANCH   3  12
TORSDOF 1
ENDMDL
MODEL 6
REMARK VINA RESULT:      -4.4      1.496      3.415
REMARK  1 active torsions:
REMARK  status: ('A' for Active; 'I' for Inactive)
REMARK    1  A    between atoms: N_1  and  C_4 
ROOT
HETATM    1  C   UNK N   1      26.400  27.093  -4.875  0.00  0.00    -0.045 C 
HETATM    2  C   UNK N   1      26.402  24.833  -6.130  0.00  0.00    -0.045 C 
HETATM    3  C   UNK N   1      28.065  25.210  -4.220  0.00  0.00     0.021 C 
HETATM    4  C   UNK N   1      25.585  25.884  -5.352  0.00  0.00     0.017 C 
HETATM    5  C   UNK N   1      27.635  26.675  -4.057  0.00  0.00     0.038 C 
HETATM    6  C   UNK N   1      27.869  24.762  -5.670  0.00  0.00     0.038 C 
HETATM    7  C   UNK N   1      26.842  27.939  -6.056  0.00  0.00     0.015 C 
HETATM    8  C   UNK N   1      25.518  27.947  -3.989  0.00  0.00     0.015 C 
HETATM    9  C   UNK N   1      26.378  25.137  -7.614  0.00  0.00     0.015 C 
HETATM   10  C   UNK N   1      25.739  23.487  -5.918  0.00  0.00     0.015 C 
HETATM   11  C   UNK N   1      29.530  25.096  -3.854  0.00  0.00     0.038 C 
ENDROOT
BRANCH   3  12
HETATM   12  N   UNK N   1      27.295  24.367  -3.321  0.00  0.00    -0.422 N 
HETATM   13  H   UNK N   1      27.203  23.757  -2.509  0.00  0.00     0.150 HD
HETATM   14  H   UNK N   1      26.350  24.405  -3.704  0.00  0.00     0.150 HD
ENDBRANCH   3  12
TORSDOF 1
ENDMDL
MODEL 7
REMARK VINA RESULT:      -4.4     25.395     27.115
REMARK  1 active torsions:
REMARK  status: ('A' for Active; 'I' for Inactive)
REMARK    1  A    between atoms: N_1  and  C_4 
ROOT
HETATM    1  C   UNK N   1      35.650  12.668  15.481  0.00  0.00    -0.045 C 
HETATM    2  C   UNK N   1      35.680  10.232  16.344  0.00  0.00    -0.045 C 
HETATM    3  C   UNK N   1      34.969  10.699  13.928  0.00  0.00     0.021 C 
HETATM    4  C   UNK N   1      36.456  11.550  16.154  0.00  0.00     0.017 C 
HETATM    5  C   UNK N   1      35.041  12.218  14.140  0.00  0.00     0.038 C 
HETATM    6  C   UNK N   1      34.626   9.999  15.245  0.00  0.00     0.038 C 
HETATM    7  C   UNK N   1      34.543  13.156  16.398  0.00  0.00     0.015 C 
HETATM    8  C   UNK N   1      36.579  13.831  15.206  0.00  0.00     0.015 C 
HETATM    9  C   UNK N   1      34.981  10.217  17.688  0.00  0.00     0.015 C 
HETATM   10  C   UNK N   1      36.686   9.099  16.327  0.00  0.00     0.015 C 
HETATM   11  C   UNK N   1      33.888  10.406  12.909  0.00  0.00     0.038 C 
ENDROOT
BRANCH   3  12
HETATM   12  N   UNK N   1      36.238  10.213  13.412  0.00  0.00    -0.422 N 
HETATM   13  H   UNK N   1      37.086   9.650  13.477  0.00  0.00     0.150 HD
HETATM   14  H   UNK N   1      36.329  10.684  12.512  0.00  0.00     0.150 HD
ENDBRANCH   3  12
TORSDOF 1
ENDMDL
MODEL 8
REMARK VINA RESULT:      -4.4     25.155     26.837
REMARK  1 active torsions:
REMARK  status: ('A' for Active; 'I' for Inactive)
REMARK    1  A    between atoms: N_1  and  C_4 
ROOT
HETATM    1  C   UNK N   1      36.898  10.392  15.149  0.00  0.00    -0.045 C 
HETATM    2  C   UNK N   1      35.690  12.663  15.390  0.00  0.00    -0.045 C 
HETATM    3  C   UNK N   1      34.646  10.836  13.932  0.00  0.00     0.021 C 
HETATM    4  C   UNK N   1      36.324  11.450  16.098  0.00  0.00     0.017 C 
HETATM    5  C   UNK N   1      35.861   9.915  14.115  0.00  0.00     0.038 C 
HETATM    6  C   UNK N   1      35.077  12.301  14.025  0.00  0.00     0.038 C 
HETATM    7  C   UNK N   1      38.119  10.929  14.425  0.00  0.00     0.015 C 
HETATM    8  C   UNK N   1      37.327   9.193  15.968  0.00  0.00     0.015 C 
HETATM    9  C   UNK N   1      36.722  13.752  15.179  0.00  0.00     0.015 C 
HETATM   10  C   UNK N   1      34.609  13.214  16.300  0.00  0.00     0.015 C 
HETATM   11  C   UNK N   1      34.047  10.576  12.565  0.00  0.00     0.038 C 
ENDROOT
BRANCH   3  12
HETATM   12  N   UNK N   1      33.644  10.538  14.942  0.00  0.00    -0.422 N 
HETATM   13  H   UNK N   1      33.360  10.226  15.870  0.00  0.00     0.150 HD
HETATM   14  H   UNK N   1      32.761  10.753  14.477  0.00  0.00     0.150 HD
ENDBRANCH   3  12
TORSDOF 1
ENDMDL
MODEL 9
REMARK VINA RESULT:      -4.3     14.267     16.168
REMARK  1 active torsions:
REMARK  status: ('A' for Active; 'I' for Inactive)
REMARK    1  A    between atoms: N_1  and  C_4 
ROOT
HETATM    1  C   UNK N   1      29.004  17.864   8.101  0.00  0.00    -0.045 C 
HETATM    2  C   UNK N   1      29.938  16.671   6.007  0.00  0.00    -0.045 C 
HETATM    3  C   UNK N   1      31.538  17.330   7.894  0.00  0.00     0.021 C 
HETATM    4  C   UNK N   1      28.912  16.658   7.158  0.00  0.00     0.017 C 
HETATM    5  C   UNK N   1      30.424  18.055   8.664  0.00  0.00     0.038 C 
HETATM    6  C   UNK N   1      31.253  17.372   6.392  0.00  0.00     0.038 C 
HETATM    7  C   UNK N   1      28.570  19.134   7.389  0.00  0.00     0.015 C 
HETATM    8  C   UNK N   1      28.065  17.635   9.267  0.00  0.00     0.015 C 
HETATM    9  C   UNK N   1      29.361  17.368   4.792  0.00  0.00     0.015 C 
HETATM   10  C   UNK N   1      30.224  15.231   5.630  0.00  0.00     0.015 C 
HETATM   11  C   UNK N   1      32.851  18.030   8.176  0.00  0.00     0.038 C 
ENDROOT
BRANCH   3  12
HETATM   12  N   UNK N   1      31.638  15.955   8.352  0.00  0.00    -0.422 N 
HETATM   13  H   UNK N   1      32.148  15.083   8.496  0.00  0.00     0.150 HD
HETATM   14  H   UNK N   1      30.710  15.756   8.727  0.00  0.00     0.150 HD
ENDBRANCH   3  12
TORSDOF 1
ENDMDL
