MODEL 1
REMARK VINA RESULT:      -5.7      0.000      0.000
REMARK WARNING: 32 MAX_TORS EXCEEDED!!!
REMARK  66 active torsions:
REMARK  status: ('A' for Active; 'I' for Inactive)
REMARK    1  A    between atoms: C_11  and  C_7 
REMARK    2  A    between atoms: C_12  and  C_8 
REMARK    3  A    between atoms: C_13  and  C_9 
REMARK    4  A    between atoms: C_14  and  C_10 
REMARK    5  A    between atoms: C_15  and  C_11 
REMARK    6  A    between atoms: C_16  and  C_12 
REMARK    7  A    between atoms: C_17  and  C_13 
REMARK    8  A    between atoms: C_18  and  C_14 
REMARK    9  A    between atoms: C_19  and  C_15 
REMARK   10  A    between atoms: C_20  and  C_16 
REMARK   11  A    between atoms: C_21  and  C_17 
REMARK   12  A    between atoms: C_36  and  C_18 
REMARK   13  A    between atoms: C_22  and  C_19 
REMARK   14  A    between atoms: C_23  and  C_20 
REMARK   15  A    between atoms: C_24  and  C_21 
REMARK   16  A    between atoms: C_25  and  C_22 
REMARK   17  A    between atoms: C_31  and  C_23 
REMARK   18  A    between atoms: C_35  and  C_24 
REMARK   19  A    between atoms: C_27  and  C_26 
REMARK   20  A    between atoms: C_28  and  C_27 
REMARK   21  A    between atoms: C_29  and  C_28 
REMARK   22  A    between atoms: C_30  and  C_29 
REMARK   23  A    between atoms: C_32  and  C_30 
REMARK   24  A    between atoms: C_33  and  C_31 
REMARK   25  A    between atoms: C_34  and  C_32 
REMARK   26  A    between atoms: C_37  and  C_33 
REMARK   27  A    between atoms: C_38  and  C_34 
REMARK   28  A    between atoms: C_39  and  C_35 
REMARK   29  A    between atoms: C_41  and  C_36 
REMARK   30  A    between atoms: C_40  and  C_37 
REMARK   31  A    between atoms: C_42  and  C_38 
REMARK   32  A    between atoms: C_43  and  C_39 
REMARK   33  A    between atoms: C_44  and  C_40 
REMARK   34  A    between atoms: C_45  and  C_41 
REMARK   35  A    between atoms: C_46  and  C_42 
REMARK   36  A    between atoms: C_48  and  C_43 
REMARK   37  A    between atoms: C_53  and  C_44 
REMARK   38  A    between atoms: C_54  and  C_45 
REMARK   39  A    between atoms: C_57  and  C_46 
REMARK   40  A    between atoms: C_49  and  C_47 
REMARK   41  A    between atoms: C_54  and  C_47 
REMARK   42  A    between atoms: O_83  and  C_48 
REMARK   43  A    between atoms: O_84  and  C_49 
REMARK   44  A    between atoms: C_53  and  C_50 
REMARK   45  A    between atoms: C_58  and  C_50 
REMARK   46  A    between atoms: C_56  and  C_51 
REMARK   47  A    between atoms: O_81  and  C_51 
REMARK   48  A    between atoms: C_55  and  C_52 
REMARK   49  A    between atoms: O_85  and  C_52 
REMARK   50  A    between atoms: C_54  and  O_82 
REMARK   51  A    between atoms: C_57  and  O_72 
REMARK   52  A    between atoms: C_58  and  O_73 
REMARK   53  A    between atoms: C_59  and  N_69 
REMARK   54  A    between atoms: C_60  and  N_67 
REMARK   55  A    between atoms: C_61  and  O_74 
REMARK   56  A    between atoms: C_62  and  O_88 
REMARK   57  A    between atoms: C_63  and  O_83 
REMARK   58  A    between atoms: C_64  and  O_84 
REMARK   59  A    between atoms: C_65  and  O_85 
REMARK   60  A    between atoms: C_66  and  O_89 
REMARK   61  A    between atoms: P_90  and  O_75 
REMARK   62  A    between atoms: P_90  and  O_76 
REMARK   63  A    between atoms: P_91  and  O_78 
REMARK   64  A    between atoms: P_91  and  O_79 
REMARK   65  A    between atoms: P_90  and  O_88 
REMARK   66  A    between atoms: P_91  and  O_89 
ROOT
HETATM    1  C   UNK N   1      24.821  18.508   4.288  0.00  0.00     0.180 C 
HETATM    2  C   UNK N   1      24.323  15.810   4.427  0.00  0.00     0.170 C 
HETATM    3  C   UNK N   1      23.331  18.261   4.546  0.00  0.00     0.196 C 
HETATM    4  C   UNK N   1      23.102  16.716   4.777  0.00  0.00     0.181 C 
HETATM    5  C   UNK N   1      25.589  16.445   5.104  0.00  0.00     0.285 C 
HETATM    6  O   UNK N   1      25.599  17.863   5.268  0.00  0.00    -0.349 OA
ENDROOT
BRANCH   5   7
HETATM    7  O   UNK N   1      26.780  15.998   4.519  0.00  0.00    -0.356 OA
BRANCH   7   8
HETATM    8  C   UNK N   1      27.161  14.773   5.120  0.00  0.00     0.205 C 
BRANCH   8   9
HETATM    9  C   UNK N   1      28.406  14.969   5.897  0.00  0.00     0.180 C 
HETATM   10  C   UNK N   1      29.519  14.501   4.940  0.00  0.00     0.180 C 
HETATM   11  C   UNK N   1      30.909  14.908   5.441  0.00  0.00     0.180 C 
HETATM   12  C   UNK N   1      30.786  16.470   5.648  0.00  0.00     0.170 C 
HETATM   13  C   UNK N   1      29.727  16.661   6.755  0.00  0.00     0.297 C 
HETATM   14  O   UNK N   1      28.455  16.343   6.247  0.00  0.00    -0.348 OA
BRANCH  10  15
HETATM   15  O   UNK N   1      29.366  13.128   4.746  0.00  0.00    -0.390 OA
HETATM   16  H   UNK N   1      28.694  12.783   4.136  0.00  0.00     0.210 HD
ENDBRANCH  10  15
BRANCH  11  17
HETATM   17  O   UNK N   1      31.898  14.544   4.493  0.00  0.00    -0.381 OA
BRANCH  17  18
HETATM   18  C   UNK N   1      33.033  13.964   5.121  0.00  0.00     0.168 C 
BRANCH  18  19
HETATM   19  C   UNK N   1      32.735  13.206   6.424  0.00  0.00     0.026 C 
BRANCH  19  20
HETATM   20  C   UNK N   1      33.858  12.258   6.871  0.00  0.00     0.002 C 
BRANCH  20  21
HETATM   21  C   UNK N   1      33.521  11.440   8.117  0.00  0.00     0.000 C 
BRANCH  21  22
HETATM   22  C   UNK N   1      34.335  11.867   9.324  0.00  0.00     0.000 C 
BRANCH  22  23
HETATM   23  C   UNK N   1      35.234  10.725   9.738  0.00  0.00     0.000 C 
BRANCH  23  24
HETATM   24  C   UNK N   1      36.660  11.044   9.336  0.00  0.00     0.000 C 
BRANCH  24  25
HETATM   25  C   UNK N   1      37.083  12.384   9.909  0.00  0.00    -0.000 C 
BRANCH  25  26
HETATM   26  C   UNK N   1      38.039  13.097   8.971  0.00  0.00    -0.005 C 
HETATM   27  C   UNK N   1      37.375  13.275   7.622  0.00  0.00     0.005 C 
ENDBRANCH  25  26
ENDBRANCH  24  25
ENDBRANCH  23  24
ENDBRANCH  22  23
ENDBRANCH  21  22
ENDBRANCH  20  21
ENDBRANCH  19  20
ENDBRANCH  18  19
ENDBRANCH  17  18
ENDBRANCH  11  17
BRANCH  12  28
HETATM   28  N   UNK N   1      31.943  17.311   5.935  0.00  0.00    -0.362 N 
HETATM   29  C   UNK N   1      32.848  17.301   6.831  0.00  0.00     0.118 C 
ATOM     30  HN  UNK N   1      32.052  18.078   5.271  1.00  0.00     0.162 HD
BRANCH  29  31
HETATM   31  C   UNK N   1      32.910  16.327   7.969  0.00  0.00     0.162 C 
BRANCH  31  32
HETATM   32  C   UNK N   1      34.046  16.585   8.917  0.00  0.00     0.134 C 
HETATM   33  O   UNK N   1      34.196  17.713   9.361  0.00  0.00    -0.298 OA
BRANCH  32  34
HETATM   34  C   UNK N   1      34.941  15.480   9.395  0.00  0.00     0.079 C 
BRANCH  34  35
HETATM   35  C   UNK N   1      34.691  15.177  10.863  0.00  0.00     0.007 C 
BRANCH  35  36
HETATM   36  C   UNK N   1      35.961  15.364  11.683  0.00  0.00     0.000 C 
BRANCH  36  37
HETATM   37  C   UNK N   1      35.949  14.450  12.899  0.00  0.00     0.000 C 
BRANCH  37  38
HETATM   38  C   UNK N   1      35.010  13.286  12.672  0.00  0.00     0.000 C 
BRANCH  38  39
HETATM   39  C   UNK N   1      35.410  12.108  13.539  0.00  0.00     0.000 C 
BRANCH  39  40
HETATM   40  C   UNK N   1      36.202  12.560  14.762  0.00  0.00     0.000 C 
BRANCH  40  41
HETATM   41  C   UNK N   1      36.246  11.461  15.818  0.00  0.00     0.000 C 
BRANCH  41  42
HETATM   42  C   UNK N   1      35.581  11.878  17.121  0.00  0.00    -0.000 C 
BRANCH  42  43
HETATM   43  C   UNK N   1      34.856  13.209  16.999  0.00  0.00    -0.005 C 
HETATM   44  C   UNK N   1      35.293  14.136  18.116  0.00  0.00     0.005 C 
ENDBRANCH  42  43
ENDBRANCH  41  42
ENDBRANCH  40  41
ENDBRANCH  39  40
ENDBRANCH  38  39
ENDBRANCH  37  38
ENDBRANCH  36  37
ENDBRANCH  35  36
ENDBRANCH  34  35
ENDBRANCH  32  34
ENDBRANCH  31  32
ENDBRANCH  29  31
BRANCH  29  45
HETATM   45  O   UNK N   1      33.853  18.193   6.721  0.00  0.00    -0.349 OA
HETATM   46  H   UNK N   1      34.546  18.244   7.349  0.00  0.00     0.219 HD
ENDBRANCH  29  45
ENDBRANCH  12  28
BRANCH  13  47
HETATM   47  O   UNK N   1      29.727  17.899   7.433  0.00  0.00    -0.264 OA
BRANCH  47  48
HETATM   48  P   UNK N   1      28.654  18.105   8.803  0.00  0.00     0.393 P 
HETATM   49  O   UNK N   1      29.294  18.749  10.061  0.00  0.00    -0.631 OA
BRANCH  48  50
HETATM   50  O   UNK N   1      27.441  16.913   9.164  0.00  0.00    -0.307 OA
HETATM   51  H   UNK N   1      26.954  16.317   9.754  0.00  0.00     0.222 HD
ENDBRANCH  48  50
BRANCH  48  52
HETATM   52  O   UNK N   1      27.701  19.414   8.214  0.00  0.00    -0.307 OA
HETATM   53  H   UNK N   1      27.726  20.349   8.470  0.00  0.00     0.222 HD
ENDBRANCH  48  52
ENDBRANCH  47  48
ENDBRANCH  13  47
ENDBRANCH   8   9
ENDBRANCH   7   8
ENDBRANCH   5   7
BRANCH   2  54
HETATM   54  N   UNK N   1      24.476  15.619   2.985  0.00  0.00    -0.362 N 
HETATM   55  C   UNK N   1      24.039  14.607   2.289  0.00  0.00     0.111 C 
ATOM     56  HN  UNK N   1      24.974  16.349   2.474  1.00  0.00     0.162 HD
BRANCH  55  57
HETATM   57  C   UNK N   1      23.338  13.412   2.892  0.00  0.00     0.083 C 
BRANCH  57  58
HETATM   58  C   UNK N   1      24.048  12.084   2.741  0.00  0.00     0.008 C 
BRANCH  58  59
HETATM   59  C   UNK N   1      23.060  11.095   2.172  0.00  0.00     0.000 C 
BRANCH  59  60
HETATM   60  C   UNK N   1      22.926   9.917   3.116  0.00  0.00     0.000 C 
BRANCH  60  61
HETATM   61  C   UNK N   1      24.247   9.176   3.341  0.00  0.00     0.000 C 
BRANCH  61  62
HETATM   62  C   UNK N   1      24.106   8.011   4.309  0.00  0.00     0.000 C 
BRANCH  62  63
HETATM   63  C   UNK N   1      23.250   8.381   5.509  0.00  0.00     0.000 C 
BRANCH  63  64
HETATM   64  C   UNK N   1      24.125   8.678   6.718  0.00  0.00     0.004 C 
BRANCH  64  65
HETATM   65  C   UNK N   1      23.701   9.943   7.457  0.00  0.00     0.027 C 
BRANCH  65  66
HETATM   66  C   UNK N   1      23.859  11.157   6.578  0.00  0.00    -0.031 C 
HETATM   67  C   UNK N   1      22.829  11.950   6.282  0.00  0.00    -0.031 C 
BRANCH  67  68
HETATM   68  C   UNK N   1      21.454  11.671   6.803  0.00  0.00     0.027 C 
BRANCH  68  69
HETATM   69  C   UNK N   1      20.584  11.072   5.712  0.00  0.00     0.004 C 
BRANCH  69  70
HETATM   70  C   UNK N   1      19.841  12.184   4.986  0.00  0.00     0.000 C 
BRANCH  70  71
HETATM   71  C   UNK N   1      19.727  11.899   3.501  0.00  0.00    -0.000 C 
BRANCH  71  72
HETATM   72  C   UNK N   1      19.479  13.183   2.732  0.00  0.00    -0.005 C 
HETATM   73  C   UNK N   1      19.968  13.029   1.307  0.00  0.00     0.005 C 
ENDBRANCH  71  72
ENDBRANCH  70  71
ENDBRANCH  69  70
ENDBRANCH  68  69
ENDBRANCH  67  68
ENDBRANCH  65  66
ENDBRANCH  64  65
ENDBRANCH  63  64
ENDBRANCH  62  63
ENDBRANCH  61  62
ENDBRANCH  60  61
ENDBRANCH  59  60
ENDBRANCH  58  59
ENDBRANCH  57  58
ENDBRANCH  55  57
BRANCH  55  74
HETATM   74  O   UNK N   1      24.296  14.569   0.970  0.00  0.00    -0.350 OA
HETATM   75  H   UNK N   1      24.392  14.354   0.063  0.00  0.00     0.219 HD
ENDBRANCH  55  74
ENDBRANCH   2  54
BRANCH   4  76
HETATM   76  O   UNK N   1      21.854  16.221   4.308  0.00  0.00    -0.381 OA
BRANCH  76  77
HETATM   77  C   UNK N   1      21.293  15.404   5.306  0.00  0.00     0.171 C 
BRANCH  77  78
HETATM   78  C   UNK N   1      20.508  16.172   6.348  0.00  0.00     0.058 C 
BRANCH  78  79
HETATM   79  C   UNK N   1      20.991  16.039   7.792  0.00  0.00     0.122 C 
BRANCH  79  80
HETATM   80  C   UNK N   1      20.500  14.729   8.394  0.00  0.00     0.032 C 
BRANCH  80  81
HETATM   81  C   UNK N   1      21.414  14.245   9.514  0.00  0.00     0.002 C 
BRANCH  81  82
HETATM   82  C   UNK N   1      20.767  13.084  10.259  0.00  0.00     0.000 C 
BRANCH  82  83
HETATM   83  C   UNK N   1      21.796  12.368  11.125  0.00  0.00     0.000 C 
BRANCH  83  84
HETATM   84  C   UNK N   1      22.866  11.747  10.255  0.00  0.00    -0.000 C 
BRANCH  84  85
HETATM   85  C   UNK N   1      24.232  12.194  10.733  0.00  0.00    -0.005 C 
HETATM   86  C   UNK N   1      24.865  13.078   9.684  0.00  0.00     0.005 C 
ENDBRANCH  84  85
ENDBRANCH  83  84
ENDBRANCH  82  83
ENDBRANCH  81  82
ENDBRANCH  80  81
ENDBRANCH  79  80
BRANCH  79  87
HETATM   87  O   UNK N   1      20.588  17.116   8.609  0.00  0.00    -0.391 OA
HETATM   88  C   UNK N   1      19.185  17.141   8.654  0.00  0.00     0.202 C 
ENDBRANCH  79  87
ENDBRANCH  78  79
ENDBRANCH  77  78
ENDBRANCH  76  77
ENDBRANCH   4  76
BRANCH   1  89
HETATM   89  C   UNK N   1      25.233  19.969   4.183  0.00  0.00     0.201 C 
BRANCH  89  90
HETATM   90  O   UNK N   1      26.430  20.220   4.845  0.00  0.00    -0.393 OA
HETATM   91  C   UNK N   1      27.378  20.148   3.829  0.00  0.00     0.201 C 
ENDBRANCH  89  90
ENDBRANCH   1  89
BRANCH   3  92
HETATM   92  O   UNK N   1      22.627  18.747   3.422  0.00  0.00    -0.286 OA
BRANCH  92  93
HETATM   93  P   UNK N   1      21.055  19.386   3.872  0.00  0.00     0.391 P 
HETATM   94  O   UNK N   1      21.015  19.432   5.421  0.00  0.00    -0.632 OA
BRANCH  93  95
HETATM   95  O   UNK N   1      20.730  20.999   3.313  0.00  0.00    -0.307 OA
HETATM   96  H   UNK N   1      21.086  21.900   3.342  0.00  0.00     0.222 HD
ENDBRANCH  93  95
BRANCH  93  97
HETATM   97  O   UNK N   1      19.791  18.307   3.375  0.00  0.00    -0.307 OA
HETATM   98  H   UNK N   1      18.956  18.122   2.915  0.00  0.00     0.222 HD
ENDBRANCH  93  97
ENDBRANCH  92  93
ENDBRANCH   3  92
TORSDOF 66
ENDMDL
MODEL 2
REMARK VINA RESULT:      -5.6      2.813      6.297
REMARK WARNING: 32 MAX_TORS EXCEEDED!!!
REMARK  66 active torsions:
REMARK  status: ('A' for Active; 'I' for Inactive)
REMARK    1  A    between atoms: C_11  and  C_7 
REMARK    2  A    between atoms: C_12  and  C_8 
REMARK    3  A    between atoms: C_13  and  C_9 
REMARK    4  A    between atoms: C_14  and  C_10 
REMARK    5  A    between atoms: C_15  and  C_11 
REMARK    6  A    between atoms: C_16  and  C_12 
REMARK    7  A    between atoms: C_17  and  C_13 
REMARK    8  A    between atoms: C_18  and  C_14 
REMARK    9  A    between atoms: C_19  and  C_15 
REMARK   10  A    between atoms: C_20  and  C_16 
REMARK   11  A    between atoms: C_21  and  C_17 
REMARK   12  A    between atoms: C_36  and  C_18 
REMARK   13  A    between atoms: C_22  and  C_19 
REMARK   14  A    between atoms: C_23  and  C_20 
REMARK   15  A    between atoms: C_24  and  C_21 
REMARK   16  A    between atoms: C_25  and  C_22 
REMARK   17  A    between atoms: C_31  and  C_23 
REMARK   18  A    between atoms: C_35  and  C_24 
REMARK   19  A    between atoms: C_27  and  C_26 
REMARK   20  A    between atoms: C_28  and  C_27 
REMARK   21  A    between atoms: C_29  and  C_28 
REMARK   22  A    between atoms: C_30  and  C_29 
REMARK   23  A    between atoms: C_32  and  C_30 
REMARK   24  A    between atoms: C_33  and  C_31 
REMARK   25  A    between atoms: C_34  and  C_32 
REMARK   26  A    between atoms: C_37  and  C_33 
REMARK   27  A    between atoms: C_38  and  C_34 
REMARK   28  A    between atoms: C_39  and  C_35 
REMARK   29  A    between atoms: C_41  and  C_36 
REMARK   30  A    between atoms: C_40  and  C_37 
REMARK   31  A    between atoms: C_42  and  C_38 
REMARK   32  A    between atoms: C_43  and  C_39 
REMARK   33  A    between atoms: C_44  and  C_40 
REMARK   34  A    between atoms: C_45  and  C_41 
REMARK   35  A    between atoms: C_46  and  C_42 
REMARK   36  A    between atoms: C_48  and  C_43 
REMARK   37  A    between atoms: C_53  and  C_44 
REMARK   38  A    between atoms: C_54  and  C_45 
REMARK   39  A    between atoms: C_57  and  C_46 
REMARK   40  A    between atoms: C_49  and  C_47 
REMARK   41  A    between atoms: C_54  and  C_47 
REMARK   42  A    between atoms: O_83  and  C_48 
REMARK   43  A    between atoms: O_84  and  C_49 
REMARK   44  A    between atoms: C_53  and  C_50 
REMARK   45  A    between atoms: C_58  and  C_50 
REMARK   46  A    between atoms: C_56  and  C_51 
REMARK   47  A    between atoms: O_81  and  C_51 
REMARK   48  A    between atoms: C_55  and  C_52 
REMARK   49  A    between atoms: O_85  and  C_52 
REMARK   50  A    between atoms: C_54  and  O_82 
REMARK   51  A    between atoms: C_57  and  O_72 
REMARK   52  A    between atoms: C_58  and  O_73 
REMARK   53  A    between atoms: C_59  and  N_69 
REMARK   54  A    between atoms: C_60  and  N_67 
REMARK   55  A    between atoms: C_61  and  O_74 
REMARK   56  A    between atoms: C_62  and  O_88 
REMARK   57  A    between atoms: C_63  and  O_83 
REMARK   58  A    between atoms: C_64  and  O_84 
REMARK   59  A    between atoms: C_65  and  O_85 
REMARK   60  A    between atoms: C_66  and  O_89 
REMARK   61  A    between atoms: P_90  and  O_75 
REMARK   62  A    between atoms: P_90  and  O_76 
REMARK   63  A    between atoms: P_91  and  O_78 
REMARK   64  A    between atoms: P_91  and  O_79 
REMARK   65  A    between atoms: P_90  and  O_88 
REMARK   66  A    between atoms: P_91  and  O_89 
ROOT
HETATM    1  C   UNK N   1      29.315  14.235   3.882  0.00  0.00     0.180 C 
HETATM    2  C   UNK N   1      28.084  16.614   3.270  0.00  0.00     0.170 C 
HETATM    3  C   UNK N   1      27.969  13.970   3.199  0.00  0.00     0.196 C 
HETATM    4  C   UNK N   1      27.360  15.346   2.719  0.00  0.00     0.181 C 
HETATM    5  C   UNK N   1      29.625  16.409   3.050  0.00  0.00     0.285 C 
HETATM    6  O   UNK N   1      30.114  15.068   3.077  0.00  0.00    -0.349 OA
ENDROOT
BRANCH   5   7
HETATM    7  O   UNK N   1      30.391  17.241   3.875  0.00  0.00    -0.356 OA
BRANCH   7   8
HETATM    8  C   UNK N   1      31.740  16.809   3.843  0.00  0.00     0.205 C 
BRANCH   8   9
HETATM    9  C   UNK N   1      32.155  16.381   5.198  0.00  0.00     0.180 C 
HETATM   10  C   UNK N   1      33.649  16.039   5.040  0.00  0.00     0.180 C 
HETATM   11  C   UNK N   1      34.340  15.866   6.396  0.00  0.00     0.180 C 
HETATM   12  C   UNK N   1      34.015  17.215   7.153  0.00  0.00     0.170 C 
HETATM   13  C   UNK N   1      32.480  17.239   7.320  0.00  0.00     0.297 C 
HETATM   14  O   UNK N   1      31.877  17.465   6.070  0.00  0.00    -0.348 OA
BRANCH  10  15
HETATM   15  O   UNK N   1      33.746  14.924   4.207  0.00  0.00    -0.390 OA
HETATM   16  H   UNK N   1      34.056  15.012   3.291  0.00  0.00     0.210 HD
ENDBRANCH  10  15
BRANCH  11  17
HETATM   17  O   UNK N   1      35.728  15.645   6.214  0.00  0.00    -0.381 OA
BRANCH  17  18
HETATM   18  C   UNK N   1      36.027  14.259   6.120  0.00  0.00     0.168 C 
BRANCH  18  19
HETATM   19  C   UNK N   1      36.775  13.674   7.328  0.00  0.00     0.026 C 
BRANCH  19  20
HETATM   20  C   UNK N   1      37.395  12.292   7.076  0.00  0.00     0.002 C 
BRANCH  20  21
HETATM   21  C   UNK N   1      37.200  11.304   8.226  0.00  0.00     0.000 C 
BRANCH  21  22
HETATM   22  C   UNK N   1      38.022  11.671   9.447  0.00  0.00     0.000 C 
BRANCH  22  23
HETATM   23  C   UNK N   1      37.332  11.137  10.680  0.00  0.00     0.000 C 
BRANCH  23  24
HETATM   24  C   UNK N   1      35.870  10.894  10.367  0.00  0.00     0.000 C 
BRANCH  24  25
HETATM   25  C   UNK N   1      35.504   9.448  10.645  0.00  0.00    -0.000 C 
BRANCH  25  26
HETATM   26  C   UNK N   1      34.302   9.026   9.822  0.00  0.00    -0.005 C 
HETATM   27  C   UNK N   1      33.035   9.450  10.535  0.00  0.00     0.005 C 
ENDBRANCH  25  26
ENDBRANCH  24  25
ENDBRANCH  23  24
ENDBRANCH  22  23
ENDBRANCH  21  22
ENDBRANCH  20  21
ENDBRANCH  19  20
ENDBRANCH  18  19
ENDBRANCH  17  18
ENDBRANCH  11  17
BRANCH  12  28
HETATM   28  N   UNK N   1      34.644  17.567   8.422  0.00  0.00    -0.362 N 
HETATM   29  C   UNK N   1      34.947  16.917   9.474  0.00  0.00     0.118 C 
ATOM     30  HN  UNK N   1      34.899  18.553   8.478  1.00  0.00     0.162 HD
BRANCH  29  31
HETATM   31  C   UNK N   1      34.642  15.466   9.697  0.00  0.00     0.162 C 
BRANCH  31  32
HETATM   32  C   UNK N   1      35.580  14.798  10.661  0.00  0.00     0.134 C 
HETATM   33  O   UNK N   1      36.783  14.901  10.478  0.00  0.00    -0.298 OA
BRANCH  32  34
HETATM   34  C   UNK N   1      35.078  14.084  11.882  0.00  0.00     0.079 C 
BRANCH  34  35
HETATM   35  C   UNK N   1      35.972  14.366  13.079  0.00  0.00     0.007 C 
BRANCH  35  36
HETATM   36  C   UNK N   1      36.541  13.074  13.651  0.00  0.00     0.000 C 
BRANCH  36  37
HETATM   37  C   UNK N   1      36.639  13.161  15.167  0.00  0.00     0.000 C 
BRANCH  37  38
HETATM   38  C   UNK N   1      35.265  13.338  15.773  0.00  0.00     0.000 C 
BRANCH  38  39
HETATM   39  C   UNK N   1      35.220  12.736  17.165  0.00  0.00     0.000 C 
BRANCH  39  40
HETATM   40  C   UNK N   1      35.687  11.284  17.158  0.00  0.00     0.000 C 
BRANCH  40  41
HETATM   41  C   UNK N   1      34.642  10.381  16.509  0.00  0.00     0.000 C 
BRANCH  41  42
HETATM   42  C   UNK N   1      35.258   9.381  15.542  0.00  0.00    -0.000 C 
BRANCH  42  43
HETATM   43  C   UNK N   1      34.977   9.735  14.091  0.00  0.00    -0.005 C 
HETATM   44  C   UNK N   1      33.741  10.609  14.005  0.00  0.00     0.005 C 
ENDBRANCH  42  43
ENDBRANCH  41  42
ENDBRANCH  40  41
ENDBRANCH  39  40
ENDBRANCH  38  39
ENDBRANCH  37  38
ENDBRANCH  36  37
ENDBRANCH  35  36
ENDBRANCH  34  35
ENDBRANCH  32  34
ENDBRANCH  31  32
ENDBRANCH  29  31
BRANCH  29  45
HETATM   45  O   UNK N   1      35.639  17.561  10.435  0.00  0.00    -0.349 OA
HETATM   46  H   UNK N   1      35.609  17.298  11.334  0.00  0.00     0.219 HD
ENDBRANCH  29  45
ENDBRANCH  12  28
BRANCH  13  47
HETATM   47  O   UNK N   1      31.959  18.091   8.317  0.00  0.00    -0.264 OA
BRANCH  47  48
HETATM   48  P   UNK N   1      30.387  17.722   8.997  0.00  0.00     0.393 P 
HETATM   49  O   UNK N   1      29.327  17.206   7.988  0.00  0.00    -0.631 OA
BRANCH  48  50
HETATM   50  O   UNK N   1      29.724  18.698  10.274  0.00  0.00    -0.307 OA
HETATM   51  H   UNK N   1      29.232  19.457  10.625  0.00  0.00     0.222 HD
ENDBRANCH  48  50
BRANCH  48  52
HETATM   52  O   UNK N   1      30.780  16.266   9.831  0.00  0.00    -0.307 OA
HETATM   53  H   UNK N   1      31.571  16.057  10.352  0.00  0.00     0.222 HD
ENDBRANCH  48  52
ENDBRANCH  47  48
ENDBRANCH  13  47
ENDBRANCH   8   9
ENDBRANCH   7   8
ENDBRANCH   5   7
BRANCH   2  54
HETATM   54  N   UNK N   1      27.734  16.891   4.662  0.00  0.00    -0.362 N 
HETATM   55  C   UNK N   1      27.043  17.908   5.097  0.00  0.00     0.111 C 
ATOM     56  HN  UNK N   1      28.063  16.226   5.362  1.00  0.00     0.162 HD
BRANCH  55  57
HETATM   57  C   UNK N   1      26.532  19.019   4.210  0.00  0.00     0.083 C 
BRANCH  57  58
HETATM   58  C   UNK N   1      25.187  18.780   3.559  0.00  0.00     0.008 C 
BRANCH  58  59
HETATM   59  C   UNK N   1      24.333  20.000   3.803  0.00  0.00     0.000 C 
BRANCH  59  60
HETATM   60  C   UNK N   1      23.395  20.201   2.630  0.00  0.00     0.000 C 
BRANCH  60  61
HETATM   61  C   UNK N   1      21.927  20.314   3.050  0.00  0.00     0.000 C 
BRANCH  61  62
HETATM   62  C   UNK N   1      21.041  19.286   2.362  0.00  0.00     0.000 C 
BRANCH  62  63
HETATM   63  C   UNK N   1      20.641  18.167   3.310  0.00  0.00     0.000 C 
BRANCH  63  64
HETATM   64  C   UNK N   1      21.546  16.958   3.121  0.00  0.00     0.004 C 
BRANCH  64  65
HETATM   65  C   UNK N   1      22.341  16.614   4.376  0.00  0.00     0.027 C 
BRANCH  65  66
HETATM   66  C   UNK N   1      21.811  17.363   5.571  0.00  0.00    -0.031 C 
HETATM   67  C   UNK N   1      21.651  16.773   6.756  0.00  0.00    -0.031 C 
BRANCH  67  68
HETATM   68  C   UNK N   1      21.986  15.329   6.961  0.00  0.00     0.027 C 
BRANCH  68  69
HETATM   69  C   UNK N   1      21.074  14.715   8.009  0.00  0.00     0.004 C 
BRANCH  69  70
HETATM   70  C   UNK N   1      21.356  13.224   8.118  0.00  0.00     0.000 C 
BRANCH  70  71
HETATM   71  C   UNK N   1      21.363  12.763   9.562  0.00  0.00    -0.000 C 
BRANCH  71  72
HETATM   72  C   UNK N   1      22.698  13.076  10.212  0.00  0.00    -0.005 C 
HETATM   73  C   UNK N   1      23.822  12.492   9.382  0.00  0.00     0.005 C 
ENDBRANCH  71  72
ENDBRANCH  70  71
ENDBRANCH  69  70
ENDBRANCH  68  69
ENDBRANCH  67  68
ENDBRANCH  65  66
ENDBRANCH  64  65
ENDBRANCH  63  64
ENDBRANCH  62  63
ENDBRANCH  61  62
ENDBRANCH  60  61
ENDBRANCH  59  60
ENDBRANCH  58  59
ENDBRANCH  57  58
ENDBRANCH  55  57
BRANCH  55  74
HETATM   74  O   UNK N   1      26.838  18.033   6.420  0.00  0.00    -0.350 OA
HETATM   75  H   UNK N   1      26.496  18.131   7.287  0.00  0.00     0.219 HD
ENDBRANCH  55  74
ENDBRANCH   2  54
BRANCH   4  76
HETATM   76  O   UNK N   1      25.941  15.419   2.764  0.00  0.00    -0.381 OA
BRANCH  76  77
HETATM   77  C   UNK N   1      25.438  15.152   1.478  0.00  0.00     0.171 C 
BRANCH  77  78
HETATM   78  C   UNK N   1      24.066  14.511   1.485  0.00  0.00     0.058 C 
BRANCH  78  79
HETATM   79  C   UNK N   1      23.792  13.490   0.382  0.00  0.00     0.122 C 
BRANCH  79  80
HETATM   80  C   UNK N   1      22.323  13.086   0.389  0.00  0.00     0.032 C 
BRANCH  80  81
HETATM   81  C   UNK N   1      21.576  13.696   1.570  0.00  0.00     0.002 C 
BRANCH  81  82
HETATM   82  C   UNK N   1      20.124  13.964   1.195  0.00  0.00     0.000 C 
BRANCH  82  83
HETATM   83  C   UNK N   1      19.259  14.053   2.446  0.00  0.00     0.000 C 
BRANCH  83  84
HETATM   84  C   UNK N   1      19.945  13.360   3.602  0.00  0.00    -0.000 C 
BRANCH  84  85
HETATM   85  C   UNK N   1      19.266  13.748   4.900  0.00  0.00    -0.005 C 
HETATM   86  C   UNK N   1      18.830  15.192   4.825  0.00  0.00     0.005 C 
ENDBRANCH  84  85
ENDBRANCH  83  84
ENDBRANCH  82  83
ENDBRANCH  81  82
ENDBRANCH  80  81
ENDBRANCH  79  80
BRANCH  79  87
HETATM   87  O   UNK N   1      24.600  12.337   0.486  0.00  0.00    -0.391 OA
HETATM   88  C   UNK N   1      23.890  11.246  -0.039  0.00  0.00     0.202 C 
ENDBRANCH  79  87
ENDBRANCH  78  79
ENDBRANCH  77  78
ENDBRANCH  76  77
ENDBRANCH   4  76
BRANCH   1  89
HETATM   89  C   UNK N   1      30.101  12.995   4.281  0.00  0.00     0.201 C 
BRANCH  89  90
HETATM   90  O   UNK N   1      30.108  12.039   3.272  0.00  0.00    -0.393 OA
HETATM   91  C   UNK N   1      30.393  10.859   3.953  0.00  0.00     0.201 C 
ENDBRANCH  89  90
ENDBRANCH   1  89
BRANCH   3  92
HETATM   92  O   UNK N   1      27.144  13.318   4.142  0.00  0.00    -0.286 OA
BRANCH  92  93
HETATM   93  P   UNK N   1      26.490  11.820   3.500  0.00  0.00     0.391 P 
HETATM   94  O   UNK N   1      26.924  10.689   4.467  0.00  0.00    -0.632 OA
BRANCH  93  95
HETATM   95  O   UNK N   1      24.757  11.758   3.401  0.00  0.00    -0.307 OA
HETATM   96  H   UNK N   1      23.974  11.508   3.916  0.00  0.00     0.222 HD
ENDBRANCH  93  95
BRANCH  93  97
HETATM   97  O   UNK N   1      27.199  11.455   1.959  0.00  0.00    -0.307 OA
HETATM   98  H   UNK N   1      27.710  10.879   1.369  0.00  0.00     0.222 HD
ENDBRANCH  93  97
ENDBRANCH  92  93
ENDBRANCH   3  92
TORSDOF 66
ENDMDL
MODEL 3
REMARK VINA RESULT:      -5.5      4.761     11.587
REMARK WARNING: 32 MAX_TORS EXCEEDED!!!
REMARK  66 active torsions:
REMARK  status: ('A' for Active; 'I' for Inactive)
REMARK    1  A    between atoms: C_11  and  C_7 
REMARK    2  A    between atoms: C_12  and  C_8 
REMARK    3  A    between atoms: C_13  and  C_9 
REMARK    4  A    between atoms: C_14  and  C_10 
REMARK    5  A    between atoms: C_15  and  C_11 
REMARK    6  A    between atoms: C_16  and  C_12 
REMARK    7  A    between atoms: C_17  and  C_13 
REMARK    8  A    between atoms: C_18  and  C_14 
REMARK    9  A    between atoms: C_19  and  C_15 
REMARK   10  A    between atoms: C_20  and  C_16 
REMARK   11  A    between atoms: C_21  and  C_17 
REMARK   12  A    between atoms: C_36  and  C_18 
REMARK   13  A    between atoms: C_22  and  C_19 
REMARK   14  A    between atoms: C_23  and  C_20 
REMARK   15  A    between atoms: C_24  and  C_21 
REMARK   16  A    between atoms: C_25  and  C_22 
REMARK   17  A    between atoms: C_31  and  C_23 
REMARK   18  A    between atoms: C_35  and  C_24 
REMARK   19  A    between atoms: C_27  and  C_26 
REMARK   20  A    between atoms: C_28  and  C_27 
REMARK   21  A    between atoms: C_29  and  C_28 
REMARK   22  A    between atoms: C_30  and  C_29 
REMARK   23  A    between atoms: C_32  and  C_30 
REMARK   24  A    between atoms: C_33  and  C_31 
REMARK   25  A    between atoms: C_34  and  C_32 
REMARK   26  A    between atoms: C_37  and  C_33 
REMARK   27  A    between atoms: C_38  and  C_34 
REMARK   28  A    between atoms: C_39  and  C_35 
REMARK   29  A    between atoms: C_41  and  C_36 
REMARK   30  A    between atoms: C_40  and  C_37 
REMARK   31  A    between atoms: C_42  and  C_38 
REMARK   32  A    between atoms: C_43  and  C_39 
REMARK   33  A    between atoms: C_44  and  C_40 
REMARK   34  A    between atoms: C_45  and  C_41 
REMARK   35  A    between atoms: C_46  and  C_42 
REMARK   36  A    between atoms: C_48  and  C_43 
REMARK   37  A    between atoms: C_53  and  C_44 
REMARK   38  A    between atoms: C_54  and  C_45 
REMARK   39  A    between atoms: C_57  and  C_46 
REMARK   40  A    between atoms: C_49  and  C_47 
REMARK   41  A    between atoms: C_54  and  C_47 
REMARK   42  A    between atoms: O_83  and  C_48 
REMARK   43  A    between atoms: O_84  and  C_49 
REMARK   44  A    between atoms: C_53  and  C_50 
REMARK   45  A    between atoms: C_58  and  C_50 
REMARK   46  A    between atoms: C_56  and  C_51 
REMARK   47  A    between atoms: O_81  and  C_51 
REMARK   48  A    between atoms: C_55  and  C_52 
REMARK   49  A    between atoms: O_85  and  C_52 
REMARK   50  A    between atoms: C_54  and  O_82 
REMARK   51  A    between atoms: C_57  and  O_72 
REMARK   52  A    between atoms: C_58  and  O_73 
REMARK   53  A    between atoms: C_59  and  N_69 
REMARK   54  A    between atoms: C_60  and  N_67 
REMARK   55  A    between atoms: C_61  and  O_74 
REMARK   56  A    between atoms: C_62  and  O_88 
REMARK   57  A    between atoms: C_63  and  O_83 
REMARK   58  A    between atoms: C_64  and  O_84 
REMARK   59  A    between atoms: C_65  and  O_85 
REMARK   60  A    between atoms: C_66  and  O_89 
REMARK   61  A    between atoms: P_90  and  O_75 
REMARK   62  A    between atoms: P_90  and  O_76 
REMARK   63  A    between atoms: P_91  and  O_78 
REMARK   64  A    between atoms: P_91  and  O_79 
REMARK   65  A    between atoms: P_90  and  O_88 
REMARK   66  A    between atoms: P_91  and  O_89 
ROOT
HETATM    1  C   UNK N   1      32.887  11.731   3.128  0.00  0.00     0.180 C 
HETATM    2  C   UNK N   1      31.222  13.790   3.860  0.00  0.00     0.170 C 
HETATM    3  C   UNK N   1      33.586  13.076   2.908  0.00  0.00     0.196 C 
HETATM    4  C   UNK N   1      32.671  14.228   3.482  0.00  0.00     0.181 C 
HETATM    5  C   UNK N   1      31.335  12.483   4.722  0.00  0.00     0.285 C 
HETATM    6  O   UNK N   1      32.445  11.623   4.460  0.00  0.00    -0.349 OA
ENDROOT
BRANCH   5   7
HETATM    7  O   UNK N   1      30.136  11.761   4.748  0.00  0.00    -0.356 OA
BRANCH   7   8
HETATM    8  C   UNK N   1      30.424  10.380   4.623  0.00  0.00     0.205 C 
BRANCH   8   9
HETATM    9  C   UNK N   1      29.554   9.785   3.583  0.00  0.00     0.180 C 
HETATM   10  C   UNK N   1      28.233   9.497   4.322  0.00  0.00     0.180 C 
HETATM   11  C   UNK N   1      27.099   9.161   3.348  0.00  0.00     0.180 C 
HETATM   12  C   UNK N   1      27.084  10.391   2.356  0.00  0.00     0.170 C 
HETATM   13  C   UNK N   1      28.450  10.361   1.636  0.00  0.00     0.297 C 
HETATM   14  O   UNK N   1      29.462  10.738   2.536  0.00  0.00    -0.348 OA
BRANCH  10  15
HETATM   15  O   UNK N   1      28.481   8.504   5.270  0.00  0.00    -0.390 OA
HETATM   16  H   UNK N   1      27.840   8.319   5.975  0.00  0.00     0.210 HD
ENDBRANCH  10  15
BRANCH  11  17
HETATM   17  O   UNK N   1      25.880   8.994   4.054  0.00  0.00    -0.381 OA
BRANCH  17  18
HETATM   18  C   UNK N   1      25.595  10.120   4.873  0.00  0.00     0.168 C 
BRANCH  18  19
HETATM   19  C   UNK N   1      24.168  10.163   5.439  0.00  0.00     0.026 C 
BRANCH  19  20
HETATM   20  C   UNK N   1      24.062  10.805   6.831  0.00  0.00     0.002 C 
BRANCH  20  21
HETATM   21  C   UNK N   1      23.993  12.332   6.807  0.00  0.00     0.000 C 
BRANCH  21  22
HETATM   22  C   UNK N   1      24.689  12.959   8.001  0.00  0.00     0.000 C 
BRANCH  22  23
HETATM   23  C   UNK N   1      23.967  12.545   9.262  0.00  0.00     0.000 C 
BRANCH  23  24
HETATM   24  C   UNK N   1      22.472  12.602   9.020  0.00  0.00     0.000 C 
BRANCH  24  25
HETATM   25  C   UNK N   1      21.844  13.704   9.854  0.00  0.00    -0.000 C 
BRANCH  25  26
HETATM   26  C   UNK N   1      20.456  13.308  10.319  0.00  0.00    -0.005 C 
HETATM   27  C   UNK N   1      20.572  12.224  11.371  0.00  0.00     0.005 C 
ENDBRANCH  25  26
ENDBRANCH  24  25
ENDBRANCH  23  24
ENDBRANCH  22  23
ENDBRANCH  21  22
ENDBRANCH  20  21
ENDBRANCH  19  20
ENDBRANCH  18  19
ENDBRANCH  17  18
ENDBRANCH  11  17
BRANCH  12  28
HETATM   28  N   UNK N   1      26.024  10.585   1.372  0.00  0.00    -0.362 N 
HETATM   29  C   UNK N   1      25.081  11.430   1.237  0.00  0.00     0.118 C 
ATOM     30  HN  UNK N   1      26.042   9.889   0.626  1.00  0.00     0.162 HD
BRANCH  29  31
HETATM   31  C   UNK N   1      24.777  12.530   2.210  0.00  0.00     0.162 C 
BRANCH  31  32
HETATM   32  C   UNK N   1      23.384  13.076   2.079  0.00  0.00     0.134 C 
HETATM   33  O   UNK N   1      23.190  14.021   1.331  0.00  0.00    -0.298 OA
BRANCH  32  34
HETATM   34  C   UNK N   1      22.219  12.437   2.777  0.00  0.00     0.079 C 
BRANCH  34  35
HETATM   35  C   UNK N   1      21.762  13.283   3.954  0.00  0.00     0.007 C 
BRANCH  35  36
HETATM   36  C   UNK N   1      20.943  12.456   4.936  0.00  0.00     0.000 C 
BRANCH  36  37
HETATM   37  C   UNK N   1      20.370  13.343   6.032  0.00  0.00     0.000 C 
BRANCH  37  38
HETATM   38  C   UNK N   1      20.113  14.735   5.499  0.00  0.00     0.000 C 
BRANCH  38  39
HETATM   39  C   UNK N   1      20.601  15.777   6.488  0.00  0.00     0.000 C 
BRANCH  39  40
HETATM   40  C   UNK N   1      22.069  15.564   6.841  0.00  0.00     0.000 C 
BRANCH  40  41
HETATM   41  C   UNK N   1      22.968  16.450   5.984  0.00  0.00     0.000 C 
BRANCH  41  42
HETATM   42  C   UNK N   1      24.081  15.666   5.304  0.00  0.00    -0.000 C 
BRANCH  42  43
HETATM   43  C   UNK N   1      25.398  16.425   5.295  0.00  0.00    -0.005 C 
HETATM   44  C   UNK N   1      26.292  15.915   6.409  0.00  0.00     0.005 C 
ENDBRANCH  42  43
ENDBRANCH  41  42
ENDBRANCH  40  41
ENDBRANCH  39  40
ENDBRANCH  38  39
ENDBRANCH  37  38
ENDBRANCH  36  37
ENDBRANCH  35  36
ENDBRANCH  34  35
ENDBRANCH  32  34
ENDBRANCH  31  32
ENDBRANCH  29  31
BRANCH  29  45
HETATM   45  O   UNK N   1      24.336  11.369   0.115  0.00  0.00    -0.349 OA
HETATM   46  H   UNK N   1      24.616  11.755  -0.692  0.00  0.00     0.219 HD
ENDBRANCH  29  45
ENDBRANCH  12  28
BRANCH  13  47
HETATM   47  O   UNK N   1      28.544  11.063   0.415  0.00  0.00    -0.264 OA
BRANCH  47  48
HETATM   48  P   UNK N   1      30.096  11.130  -0.396  0.00  0.00     0.393 P 
HETATM   49  O   UNK N   1      31.072  12.221   0.120  0.00  0.00    -0.631 OA
BRANCH  48  50
HETATM   50  O   UNK N   1      30.216  10.832  -2.104  0.00  0.00    -0.307 OA
HETATM   51  H   UNK N   1      30.420  11.079  -3.020  0.00  0.00     0.222 HD
ENDBRANCH  48  50
BRANCH  48  52
HETATM   52  O   UNK N   1      30.815   9.710   0.264  0.00  0.00    -0.307 OA
HETATM   53  H   UNK N   1      31.393   9.623   1.039  0.00  0.00     0.222 HD
ENDBRANCH  48  52
ENDBRANCH  47  48
ENDBRANCH  13  47
ENDBRANCH   8   9
ENDBRANCH   7   8
ENDBRANCH   5   7
BRANCH   2  54
HETATM   54  N   UNK N   1      30.366  13.631   2.685  0.00  0.00    -0.362 N 
HETATM   55  C   UNK N   1      29.184  14.154   2.515  0.00  0.00     0.111 C 
ATOM     56  HN  UNK N   1      30.728  13.055   1.925  1.00  0.00     0.162 HD
BRANCH  55  57
HETATM   57  C   UNK N   1      28.470  14.979   3.560  0.00  0.00     0.083 C 
BRANCH  57  58
HETATM   58  C   UNK N   1      28.307  16.450   3.241  0.00  0.00     0.008 C 
BRANCH  58  59
HETATM   59  C   UNK N   1      29.435  17.196   3.910  0.00  0.00     0.000 C 
BRANCH  59  60
HETATM   60  C   UNK N   1      28.863  18.238   4.849  0.00  0.00     0.000 C 
BRANCH  60  61
HETATM   61  C   UNK N   1      27.732  19.056   4.220  0.00  0.00     0.000 C 
BRANCH  61  62
HETATM   62  C   UNK N   1      27.358  20.274   5.052  0.00  0.00     0.000 C 
BRANCH  62  63
HETATM   63  C   UNK N   1      26.002  20.831   4.649  0.00  0.00     0.000 C 
BRANCH  63  64
HETATM   64  C   UNK N   1      25.421  20.036   3.490  0.00  0.00     0.004 C 
BRANCH  64  65
HETATM   65  C   UNK N   1      24.023  19.501   3.782  0.00  0.00     0.027 C 
BRANCH  65  66
HETATM   66  C   UNK N   1      22.995  20.186   2.920  0.00  0.00    -0.031 C 
HETATM   67  C   UNK N   1      21.691  19.929   3.041  0.00  0.00    -0.031 C 
BRANCH  67  68
HETATM   68  C   UNK N   1      21.180  18.939   4.039  0.00  0.00     0.027 C 
BRANCH  68  69
HETATM   69  C   UNK N   1      20.404  17.834   3.344  0.00  0.00     0.004 C 
BRANCH  69  70
HETATM   70  C   UNK N   1      20.122  18.241   1.904  0.00  0.00     0.000 C 
BRANCH  70  71
HETATM   71  C   UNK N   1      19.881  17.031   1.022  0.00  0.00    -0.000 C 
BRANCH  71  72
HETATM   72  C   UNK N   1      20.242  15.755   1.760  0.00  0.00    -0.005 C 
HETATM   73  C   UNK N   1      19.581  14.570   1.088  0.00  0.00     0.005 C 
ENDBRANCH  71  72
ENDBRANCH  70  71
ENDBRANCH  69  70
ENDBRANCH  68  69
ENDBRANCH  67  68
ENDBRANCH  65  66
ENDBRANCH  64  65
ENDBRANCH  63  64
ENDBRANCH  62  63
ENDBRANCH  61  62
ENDBRANCH  60  61
ENDBRANCH  59  60
ENDBRANCH  58  59
ENDBRANCH  57  58
ENDBRANCH  55  57
BRANCH  55  74
HETATM   74  O   UNK N   1      28.511  13.879   1.383  0.00  0.00    -0.350 OA
HETATM   75  H   UNK N   1      28.181  13.535   0.576  0.00  0.00     0.219 HD
ENDBRANCH  55  74
ENDBRANCH   2  54
BRANCH   4  76
HETATM   76  O   UNK N   1      32.742  15.457   2.771  0.00  0.00    -0.381 OA
BRANCH  76  77
HETATM   77  C   UNK N   1      32.993  16.492   3.690  0.00  0.00     0.171 C 
BRANCH  77  78
HETATM   78  C   UNK N   1      33.885  16.078   4.841  0.00  0.00     0.058 C 
BRANCH  78  79
HETATM   79  C   UNK N   1      33.592  16.731   6.191  0.00  0.00     0.122 C 
BRANCH  79  80
HETATM   80  C   UNK N   1      32.136  17.175   6.258  0.00  0.00     0.032 C 
BRANCH  80  81
HETATM   81  C   UNK N   1      31.268  16.154   6.986  0.00  0.00     0.002 C 
BRANCH  81  82
HETATM   82  C   UNK N   1      31.289  16.417   8.487  0.00  0.00     0.000 C 
BRANCH  82  83
HETATM   83  C   UNK N   1      30.554  17.710   8.811  0.00  0.00     0.000 C 
BRANCH  83  84
HETATM   84  C   UNK N   1      29.476  17.452   9.839  0.00  0.00    -0.000 C 
BRANCH  84  85
HETATM   85  C   UNK N   1      28.113  17.603   9.194  0.00  0.00    -0.005 C 
HETATM   86  C   UNK N   1      28.102  18.843   8.331  0.00  0.00     0.005 C 
ENDBRANCH  84  85
ENDBRANCH  83  84
ENDBRANCH  82  83
ENDBRANCH  81  82
ENDBRANCH  80  81
ENDBRANCH  79  80
BRANCH  79  87
HETATM   87  O   UNK N   1      34.435  17.828   6.467  0.00  0.00    -0.391 OA
HETATM   88  C   UNK N   1      34.431  18.057   7.851  0.00  0.00     0.202 C 
ENDBRANCH  79  87
ENDBRANCH  78  79
ENDBRANCH  77  78
ENDBRANCH  76  77
ENDBRANCH   4  76
BRANCH   1  89
HETATM   89  C   UNK N   1      33.701  10.501   2.755  0.00  0.00     0.201 C 
BRANCH  89  90
HETATM   90  O   UNK N   1      32.933   9.552   2.089  0.00  0.00    -0.393 OA
HETATM   91  C   UNK N   1      33.103   8.407   2.861  0.00  0.00     0.201 C 
ENDBRANCH  89  90
ENDBRANCH   1  89
BRANCH   3  92
HETATM   92  O   UNK N   1      33.808  13.208   1.519  0.00  0.00    -0.286 OA
BRANCH  92  93
HETATM   93  P   UNK N   1      35.509  13.450   1.158  0.00  0.00     0.391 P 
HETATM   94  O   UNK N   1      36.202  13.834   2.490  0.00  0.00    -0.632 OA
BRANCH  93  95
HETATM   95  O   UNK N   1      36.338  12.050   0.547  0.00  0.00    -0.307 OA
HETATM   96  H   UNK N   1      36.851  11.743  -0.216  0.00  0.00     0.222 HD
ENDBRANCH  93  95
BRANCH  93  97
HETATM   97  O   UNK N   1      35.721  14.796   0.083  0.00  0.00    -0.307 OA
HETATM   98  H   UNK N   1      35.831  15.170  -0.805  0.00  0.00     0.222 HD
ENDBRANCH  93  97
ENDBRANCH  92  93
ENDBRANCH   3  92
TORSDOF 66
ENDMDL
MODEL 4
REMARK VINA RESULT:      -5.5      3.990     10.821
REMARK WARNING: 32 MAX_TORS EXCEEDED!!!
REMARK  66 active torsions:
REMARK  status: ('A' for Active; 'I' for Inactive)
REMARK    1  A    between atoms: C_11  and  C_7 
REMARK    2  A    between atoms: C_12  and  C_8 
REMARK    3  A    between atoms: C_13  and  C_9 
REMARK    4  A    between atoms: C_14  and  C_10 
REMARK    5  A    between atoms: C_15  and  C_11 
REMARK    6  A    between atoms: C_16  and  C_12 
REMARK    7  A    between atoms: C_17  and  C_13 
REMARK    8  A    between atoms: C_18  and  C_14 
REMARK    9  A    between atoms: C_19  and  C_15 
REMARK   10  A    between atoms: C_20  and  C_16 
REMARK   11  A    between atoms: C_21  and  C_17 
REMARK   12  A    between atoms: C_36  and  C_18 
REMARK   13  A    between atoms: C_22  and  C_19 
REMARK   14  A    between atoms: C_23  and  C_20 
REMARK   15  A    between atoms: C_24  and  C_21 
REMARK   16  A    between atoms: C_25  and  C_22 
REMARK   17  A    between atoms: C_31  and  C_23 
REMARK   18  A    between atoms: C_35  and  C_24 
REMARK   19  A    between atoms: C_27  and  C_26 
REMARK   20  A    between atoms: C_28  and  C_27 
REMARK   21  A    between atoms: C_29  and  C_28 
REMARK   22  A    between atoms: C_30  and  C_29 
REMARK   23  A    between atoms: C_32  and  C_30 
REMARK   24  A    between atoms: C_33  and  C_31 
REMARK   25  A    between atoms: C_34  and  C_32 
REMARK   26  A    between atoms: C_37  and  C_33 
REMARK   27  A    between atoms: C_38  and  C_34 
REMARK   28  A    between atoms: C_39  and  C_35 
REMARK   29  A    between atoms: C_41  and  C_36 
REMARK   30  A    between atoms: C_40  and  C_37 
REMARK   31  A    between atoms: C_42  and  C_38 
REMARK   32  A    between atoms: C_43  and  C_39 
REMARK   33  A    between atoms: C_44  and  C_40 
REMARK   34  A    between atoms: C_45  and  C_41 
REMARK   35  A    between atoms: C_46  and  C_42 
REMARK   36  A    between atoms: C_48  and  C_43 
REMARK   37  A    between atoms: C_53  and  C_44 
REMARK   38  A    between atoms: C_54  and  C_45 
REMARK   39  A    between atoms: C_57  and  C_46 
REMARK   40  A    between atoms: C_49  and  C_47 
REMARK   41  A    between atoms: C_54  and  C_47 
REMARK   42  A    between atoms: O_83  and  C_48 
REMARK   43  A    between atoms: O_84  and  C_49 
REMARK   44  A    between atoms: C_53  and  C_50 
REMARK   45  A    between atoms: C_58  and  C_50 
REMARK   46  A    between atoms: C_56  and  C_51 
REMARK   47  A    between atoms: O_81  and  C_51 
REMARK   48  A    between atoms: C_55  and  C_52 
REMARK   49  A    between atoms: O_85  and  C_52 
REMARK   50  A    between atoms: C_54  and  O_82 
REMARK   51  A    between atoms: C_57  and  O_72 
REMARK   52  A    between atoms: C_58  and  O_73 
REMARK   53  A    between atoms: C_59  and  N_69 
REMARK   54  A    between atoms: C_60  and  N_67 
REMARK   55  A    between atoms: C_61  and  O_74 
REMARK   56  A    between atoms: C_62  and  O_88 
REMARK   57  A    between atoms: C_63  and  O_83 
REMARK   58  A    between atoms: C_64  and  O_84 
REMARK   59  A    between atoms: C_65  and  O_85 
REMARK   60  A    between atoms: C_66  and  O_89 
REMARK   61  A    between atoms: P_90  and  O_75 
REMARK   62  A    between atoms: P_90  and  O_76 
REMARK   63  A    between atoms: P_91  and  O_78 
REMARK   64  A    between atoms: P_91  and  O_79 
REMARK   65  A    between atoms: P_90  and  O_88 
REMARK   66  A    between atoms: P_91  and  O_89 
ROOT
HETATM    1  C   UNK N   1      34.816  14.142   7.360  0.00  0.00     0.180 C 
HETATM    2  C   UNK N   1      32.479  14.129   5.915  0.00  0.00     0.170 C 
HETATM    3  C   UNK N   1      33.949  15.344   7.751  0.00  0.00     0.196 C 
HETATM    4  C   UNK N   1      32.553  15.225   7.024  0.00  0.00     0.181 C 
HETATM    5  C   UNK N   1      33.076  12.809   6.518  0.00  0.00     0.285 C 
HETATM    6  O   UNK N   1      34.089  12.947   7.515  0.00  0.00    -0.349 OA
ENDROOT
BRANCH   5   7
HETATM    7  O   UNK N   1      33.470  11.904   5.523  0.00  0.00    -0.356 OA
BRANCH   7   8
HETATM    8  C   UNK N   1      32.891  10.640   5.792  0.00  0.00     0.205 C 
BRANCH   8   9
HETATM    9  C   UNK N   1      32.779   9.869   4.533  0.00  0.00     0.180 C 
HETATM   10  C   UNK N   1      31.385   9.218   4.617  0.00  0.00     0.180 C 
HETATM   11  C   UNK N   1      30.953   8.625   3.272  0.00  0.00     0.180 C 
HETATM   12  C   UNK N   1      31.091   9.838   2.269  0.00  0.00     0.170 C 
HETATM   13  C   UNK N   1      32.593  10.195   2.252  0.00  0.00     0.297 C 
HETATM   14  O   UNK N   1      32.945  10.797   3.472  0.00  0.00    -0.348 OA
BRANCH  10  15
HETATM   15  O   UNK N   1      31.406   8.297   5.664  0.00  0.00    -0.390 OA
HETATM   16  H   UNK N   1      31.990   7.523   5.634  0.00  0.00     0.210 HD
ENDBRANCH  10  15
BRANCH  11  17
HETATM   17  O   UNK N   1      29.632   8.119   3.362  0.00  0.00    -0.381 OA
BRANCH  17  18
HETATM   18  C   UNK N   1      28.745   9.075   3.927  0.00  0.00     0.168 C 
BRANCH  18  19
HETATM   19  C   UNK N   1      27.258   8.834   3.628  0.00  0.00     0.026 C 
BRANCH  19  20
HETATM   20  C   UNK N   1      26.315   9.217   4.778  0.00  0.00     0.002 C 
BRANCH  20  21
HETATM   21  C   UNK N   1      24.848   9.340   4.365  0.00  0.00     0.000 C 
BRANCH  21  22
HETATM   22  C   UNK N   1      23.975   9.867   5.488  0.00  0.00     0.000 C 
BRANCH  22  23
HETATM   23  C   UNK N   1      24.565  11.159   6.003  0.00  0.00     0.000 C 
BRANCH  23  24
HETATM   24  C   UNK N   1      23.914  11.511   7.325  0.00  0.00     0.000 C 
BRANCH  24  25
HETATM   25  C   UNK N   1      24.180  12.964   7.674  0.00  0.00    -0.000 C 
BRANCH  25  26
HETATM   26  C   UNK N   1      23.839  13.243   9.126  0.00  0.00    -0.005 C 
HETATM   27  C   UNK N   1      24.533  12.225  10.006  0.00  0.00     0.005 C 
ENDBRANCH  25  26
ENDBRANCH  24  25
ENDBRANCH  23  24
ENDBRANCH  22  23
ENDBRANCH  21  22
ENDBRANCH  20  21
ENDBRANCH  19  20
ENDBRANCH  18  19
ENDBRANCH  17  18
ENDBRANCH  11  17
BRANCH  12  28
HETATM   28  N   UNK N   1      30.594   9.775   0.898  0.00  0.00    -0.362 N 
HETATM   29  C   UNK N   1      29.561  10.227   0.307  0.00  0.00     0.118 C 
ATOM     30  HN  UNK N   1      31.212   9.255   0.275  1.00  0.00     0.162 HD
BRANCH  29  31
HETATM   31  C   UNK N   1      28.454  10.979   0.981  0.00  0.00     0.162 C 
BRANCH  31  32
HETATM   32  C   UNK N   1      28.768  12.429   1.212  0.00  0.00     0.134 C 
HETATM   33  O   UNK N   1      29.784  12.896   0.719  0.00  0.00    -0.298 OA
BRANCH  32  34
HETATM   34  C   UNK N   1      27.828  13.331   1.956  0.00  0.00     0.079 C 
BRANCH  34  35
HETATM   35  C   UNK N   1      27.140  12.583   3.086  0.00  0.00     0.007 C 
BRANCH  35  36
HETATM   36  C   UNK N   1      25.625  12.647   2.941  0.00  0.00     0.000 C 
BRANCH  36  37
HETATM   37  C   UNK N   1      25.236  13.636   1.852  0.00  0.00     0.000 C 
BRANCH  37  38
HETATM   38  C   UNK N   1      23.999  14.404   2.259  0.00  0.00     0.000 C 
BRANCH  38  39
HETATM   39  C   UNK N   1      23.362  13.770   3.482  0.00  0.00     0.000 C 
BRANCH  39  40
HETATM   40  C   UNK N   1      21.931  13.326   3.197  0.00  0.00     0.000 C 
BRANCH  40  41
HETATM   41  C   UNK N   1      21.713  11.881   3.635  0.00  0.00     0.000 C 
BRANCH  41  42
HETATM   42  C   UNK N   1      20.240  11.537   3.797  0.00  0.00    -0.000 C 
BRANCH  42  43
HETATM   43  C   UNK N   1      19.898  11.120   5.218  0.00  0.00    -0.005 C 
HETATM   44  C   UNK N   1      20.646  11.995   6.205  0.00  0.00     0.005 C 
ENDBRANCH  42  43
ENDBRANCH  41  42
ENDBRANCH  40  41
ENDBRANCH  39  40
ENDBRANCH  38  39
ENDBRANCH  37  38
ENDBRANCH  36  37
ENDBRANCH  35  36
ENDBRANCH  34  35
ENDBRANCH  32  34
ENDBRANCH  31  32
ENDBRANCH  29  31
BRANCH  29  45
HETATM   45  O   UNK N   1      29.480  10.066  -1.030  0.00  0.00    -0.349 OA
HETATM   46  H   UNK N   1      28.775   9.599  -1.434  0.00  0.00     0.219 HD
ENDBRANCH  29  45
ENDBRANCH  12  28
BRANCH  13  47
HETATM   47  O   UNK N   1      33.062  10.935   1.145  0.00  0.00    -0.264 OA
BRANCH  47  48
HETATM   48  P   UNK N   1      34.499  11.919   1.343  0.00  0.00     0.393 P 
HETATM   49  O   UNK N   1      35.741  11.456   0.536  0.00  0.00    -0.631 OA
BRANCH  48  50
HETATM   50  O   UNK N   1      34.886  12.620   2.886  0.00  0.00    -0.307 OA
HETATM   51  H   UNK N   1      34.990  13.359   3.506  0.00  0.00     0.222 HD
ENDBRANCH  48  50
BRANCH  48  52
HETATM   52  O   UNK N   1      34.015  13.301   0.435  0.00  0.00    -0.307 OA
HETATM   53  H   UNK N   1      33.783  14.188   0.753  0.00  0.00     0.222 HD
ENDBRANCH  48  52
ENDBRANCH  47  48
ENDBRANCH  13  47
ENDBRANCH   8   9
ENDBRANCH   7   8
ENDBRANCH   5   7
BRANCH   2  54
HETATM   54  N   UNK N   1      33.140  14.547   4.679  0.00  0.00    -0.362 N 
HETATM   55  C   UNK N   1      32.554  14.871   3.561  0.00  0.00     0.111 C 
ATOM     56  HN  UNK N   1      34.159  14.588   4.692  1.00  0.00     0.162 HD
BRANCH  55  57
HETATM   57  C   UNK N   1      31.059  14.807   3.346  0.00  0.00     0.083 C 
BRANCH  57  58
HETATM   58  C   UNK N   1      30.358  16.137   3.176  0.00  0.00     0.008 C 
BRANCH  58  59
HETATM   59  C   UNK N   1      29.085  16.094   3.984  0.00  0.00     0.000 C 
BRANCH  59  60
HETATM   60  C   UNK N   1      28.048  16.991   3.339  0.00  0.00     0.000 C 
BRANCH  60  61
HETATM   61  C   UNK N   1      26.611  16.581   3.670  0.00  0.00     0.000 C 
BRANCH  61  62
HETATM   62  C   UNK N   1      26.522  15.720   4.922  0.00  0.00     0.000 C 
BRANCH  62  63
HETATM   63  C   UNK N   1      25.260  16.017   5.716  0.00  0.00     0.000 C 
BRANCH  63  64
HETATM   64  C   UNK N   1      24.379  17.006   4.968  0.00  0.00     0.004 C 
BRANCH  64  65
HETATM   65  C   UNK N   1      23.011  17.185   5.618  0.00  0.00     0.027 C 
BRANCH  65  66
HETATM   66  C   UNK N   1      22.600  15.940   6.359  0.00  0.00    -0.031 C 
HETATM   67  C   UNK N   1      21.319  15.599   6.507  0.00  0.00    -0.031 C 
BRANCH  67  68
HETATM   68  C   UNK N   1      20.217  16.443   5.948  0.00  0.00     0.027 C 
BRANCH  68  69
HETATM   69  C   UNK N   1      19.727  15.871   4.629  0.00  0.00     0.004 C 
BRANCH  69  70
HETATM   70  C   UNK N   1      19.733  16.962   3.568  0.00  0.00     0.000 C 
BRANCH  70  71
HETATM   71  C   UNK N   1      20.891  16.794   2.604  0.00  0.00    -0.000 C 
BRANCH  71  72
HETATM   72  C   UNK N   1      20.385  16.711   1.176  0.00  0.00    -0.005 C 
HETATM   73  C   UNK N   1      19.954  15.293   0.866  0.00  0.00     0.005 C 
ENDBRANCH  71  72
ENDBRANCH  70  71
ENDBRANCH  69  70
ENDBRANCH  68  69
ENDBRANCH  67  68
ENDBRANCH  65  66
ENDBRANCH  64  65
ENDBRANCH  63  64
ENDBRANCH  62  63
ENDBRANCH  61  62
ENDBRANCH  60  61
ENDBRANCH  59  60
ENDBRANCH  58  59
ENDBRANCH  57  58
ENDBRANCH  55  57
BRANCH  55  74
HETATM   74  O   UNK N   1      33.314  15.201   2.502  0.00  0.00    -0.350 OA
HETATM   75  H   UNK N   1      33.692  15.566   1.726  0.00  0.00     0.219 HD
ENDBRANCH  55  74
ENDBRANCH   2  54
BRANCH   4  76
HETATM   76  O   UNK N   1      31.962  16.465   6.658  0.00  0.00    -0.381 OA
BRANCH  76  77
HETATM   77  C   UNK N   1      30.599  16.433   7.008  0.00  0.00     0.171 C 
BRANCH  77  78
HETATM   78  C   UNK N   1      30.050  17.779   7.429  0.00  0.00     0.058 C 
BRANCH  78  79
HETATM   79  C   UNK N   1      28.545  17.845   7.685  0.00  0.00     0.122 C 
BRANCH  79  80
HETATM   80  C   UNK N   1      27.860  18.668   6.602  0.00  0.00     0.032 C 
BRANCH  80  81
HETATM   81  C   UNK N   1      27.548  20.081   7.079  0.00  0.00     0.002 C 
BRANCH  81  82
HETATM   82  C   UNK N   1      27.078  20.942   5.913  0.00  0.00     0.000 C 
BRANCH  82  83
HETATM   83  C   UNK N   1      26.153  20.145   5.003  0.00  0.00     0.000 C 
BRANCH  83  84
HETATM   84  C   UNK N   1      26.468  20.440   3.554  0.00  0.00    -0.000 C 
BRANCH  84  85
HETATM   85  C   UNK N   1      25.351  19.916   2.675  0.00  0.00    -0.005 C 
HETATM   86  C   UNK N   1      24.051  20.577   3.070  0.00  0.00     0.005 C 
ENDBRANCH  84  85
ENDBRANCH  83  84
ENDBRANCH  82  83
ENDBRANCH  81  82
ENDBRANCH  80  81
ENDBRANCH  79  80
BRANCH  79  87
HETATM   87  O   UNK N   1      28.225  18.373   8.954  0.00  0.00    -0.391 OA
HETATM   88  C   UNK N   1      29.378  18.339   9.754  0.00  0.00     0.202 C 
ENDBRANCH  79  87
ENDBRANCH  78  79
ENDBRANCH  77  78
ENDBRANCH  76  77
ENDBRANCH   4  76
BRANCH   1  89
HETATM   89  C   UNK N   1      36.148  14.033   8.087  0.00  0.00     0.201 C 
BRANCH  89  90
HETATM   90  O   UNK N   1      36.058  14.471   9.404  0.00  0.00    -0.393 OA
HETATM   91  C   UNK N   1      37.162  13.881  10.012  0.00  0.00     0.201 C 
ENDBRANCH  89  90
ENDBRANCH   1  89
BRANCH   3  92
HETATM   92  O   UNK N   1      34.655  16.508   7.372  0.00  0.00    -0.286 OA
BRANCH  92  93
HETATM   93  P   UNK N   1      34.559  17.751   8.607  0.00  0.00     0.391 P 
HETATM   94  O   UNK N   1      35.276  19.004   8.041  0.00  0.00    -0.632 OA
BRANCH  93  95
HETATM   95  O   UNK N   1      32.947  18.245   9.031  0.00  0.00    -0.307 OA
HETATM   96  H   UNK N   1      32.413  18.526   9.790  0.00  0.00     0.222 HD
ENDBRANCH  93  95
BRANCH  93  97
HETATM   97  O   UNK N   1      35.438  17.274  10.024  0.00  0.00    -0.307 OA
HETATM   98  H   UNK N   1      35.716  17.412  10.944  0.00  0.00     0.222 HD
ENDBRANCH  93  97
ENDBRANCH  92  93
ENDBRANCH   3  92
TORSDOF 66
ENDMDL
MODEL 5
REMARK VINA RESULT:      -5.5      2.745      5.999
REMARK WARNING: 32 MAX_TORS EXCEEDED!!!
REMARK  66 active torsions:
REMARK  status: ('A' for Active; 'I' for Inactive)
REMARK    1  A    between atoms: C_11  and  C_7 
REMARK    2  A    between atoms: C_12  and  C_8 
REMARK    3  A    between atoms: C_13  and  C_9 
REMARK    4  A    between atoms: C_14  and  C_10 
REMARK    5  A    between atoms: C_15  and  C_11 
REMARK    6  A    between atoms: C_16  and  C_12 
REMARK    7  A    between atoms: C_17  and  C_13 
REMARK    8  A    between atoms: C_18  and  C_14 
REMARK    9  A    between atoms: C_19  and  C_15 
REMARK   10  A    between atoms: C_20  and  C_16 
REMARK   11  A    between atoms: C_21  and  C_17 
REMARK   12  A    between atoms: C_36  and  C_18 
REMARK   13  A    between atoms: C_22  and  C_19 
REMARK   14  A    between atoms: C_23  and  C_20 
REMARK   15  A    between atoms: C_24  and  C_21 
REMARK   16  A    between atoms: C_25  and  C_22 
REMARK   17  A    between atoms: C_31  and  C_23 
REMARK   18  A    between atoms: C_35  and  C_24 
REMARK   19  A    between atoms: C_27  and  C_26 
REMARK   20  A    between atoms: C_28  and  C_27 
REMARK   21  A    between atoms: C_29  and  C_28 
REMARK   22  A    between atoms: C_30  and  C_29 
REMARK   23  A    between atoms: C_32  and  C_30 
REMARK   24  A    between atoms: C_33  and  C_31 
REMARK   25  A    between atoms: C_34  and  C_32 
REMARK   26  A    between atoms: C_37  and  C_33 
REMARK   27  A    between atoms: C_38  and  C_34 
REMARK   28  A    between atoms: C_39  and  C_35 
REMARK   29  A    between atoms: C_41  and  C_36 
REMARK   30  A    between atoms: C_40  and  C_37 
REMARK   31  A    between atoms: C_42  and  C_38 
REMARK   32  A    between atoms: C_43  and  C_39 
REMARK   33  A    between atoms: C_44  and  C_40 
REMARK   34  A    between atoms: C_45  and  C_41 
REMARK   35  A    between atoms: C_46  and  C_42 
REMARK   36  A    between atoms: C_48  and  C_43 
REMARK   37  A    between atoms: C_53  and  C_44 
REMARK   38  A    between atoms: C_54  and  C_45 
REMARK   39  A    between atoms: C_57  and  C_46 
REMARK   40  A    between atoms: C_49  and  C_47 
REMARK   41  A    between atoms: C_54  and  C_47 
REMARK   42  A    between atoms: O_83  and  C_48 
REMARK   43  A    between atoms: O_84  and  C_49 
REMARK   44  A    between atoms: C_53  and  C_50 
REMARK   45  A    between atoms: C_58  and  C_50 
REMARK   46  A    between atoms: C_56  and  C_51 
REMARK   47  A    between atoms: O_81  and  C_51 
REMARK   48  A    between atoms: C_55  and  C_52 
REMARK   49  A    between atoms: O_85  and  C_52 
REMARK   50  A    between atoms: C_54  and  O_82 
REMARK   51  A    between atoms: C_57  and  O_72 
REMARK   52  A    between atoms: C_58  and  O_73 
REMARK   53  A    between atoms: C_59  and  N_69 
REMARK   54  A    between atoms: C_60  and  N_67 
REMARK   55  A    between atoms: C_61  and  O_74 
REMARK   56  A    between atoms: C_62  and  O_88 
REMARK   57  A    between atoms: C_63  and  O_83 
REMARK   58  A    between atoms: C_64  and  O_84 
REMARK   59  A    between atoms: C_65  and  O_85 
REMARK   60  A    between atoms: C_66  and  O_89 
REMARK   61  A    between atoms: P_90  and  O_75 
REMARK   62  A    between atoms: P_90  and  O_76 
REMARK   63  A    between atoms: P_91  and  O_78 
REMARK   64  A    between atoms: P_91  and  O_79 
REMARK   65  A    between atoms: P_90  and  O_88 
REMARK   66  A    between atoms: P_91  and  O_89 
ROOT
HETATM    1  C   UNK N   1      29.434  14.106   3.313  0.00  0.00     0.180 C 
HETATM    2  C   UNK N   1      27.764  16.288   3.345  0.00  0.00     0.170 C 
HETATM    3  C   UNK N   1      28.068  13.732   2.727  0.00  0.00     0.196 C 
HETATM    4  C   UNK N   1      27.186  15.037   2.613  0.00  0.00     0.181 C 
HETATM    5  C   UNK N   1      29.273  16.418   2.934  0.00  0.00     0.285 C 
HETATM    6  O   UNK N   1      29.972  15.211   2.627  0.00  0.00    -0.349 OA
ENDROOT
BRANCH   5   7
HETATM    7  O   UNK N   1      30.001  17.204   3.836  0.00  0.00    -0.356 OA
BRANCH   7   8
HETATM    8  C   UNK N   1      31.370  16.851   3.758  0.00  0.00     0.205 C 
BRANCH   8   9
HETATM    9  C   UNK N   1      31.844  16.411   5.090  0.00  0.00     0.180 C 
HETATM   10  C   UNK N   1      33.338  16.104   4.871  0.00  0.00     0.180 C 
HETATM   11  C   UNK N   1      34.082  15.925   6.198  0.00  0.00     0.180 C 
HETATM   12  C   UNK N   1      33.758  17.254   6.988  0.00  0.00     0.170 C 
HETATM   13  C   UNK N   1      32.230  17.243   7.212  0.00  0.00     0.297 C 
HETATM   14  O   UNK N   1      31.576  17.475   5.989  0.00  0.00    -0.348 OA
BRANCH  10  15
HETATM   15  O   UNK N   1      33.428  15.004   4.016  0.00  0.00    -0.390 OA
HETATM   16  H   UNK N   1      34.288  14.699   3.688  0.00  0.00     0.210 HD
ENDBRANCH  10  15
BRANCH  11  17
HETATM   17  O   UNK N   1      35.468  15.737   5.961  0.00  0.00    -0.381 OA
BRANCH  17  18
HETATM   18  C   UNK N   1      35.911  14.474   6.438  0.00  0.00     0.168 C 
BRANCH  18  19
HETATM   19  C   UNK N   1      37.412  14.203   6.253  0.00  0.00     0.026 C 
BRANCH  19  20
HETATM   20  C   UNK N   1      37.964  13.082   7.146  0.00  0.00     0.002 C 
BRANCH  20  21
HETATM   21  C   UNK N   1      39.054  13.539   8.114  0.00  0.00     0.000 C 
BRANCH  21  22
HETATM   22  C   UNK N   1      39.080  12.712   9.386  0.00  0.00     0.000 C 
BRANCH  22  23
HETATM   23  C   UNK N   1      38.627  11.307   9.066  0.00  0.00     0.000 C 
BRANCH  23  24
HETATM   24  C   UNK N   1      37.453  10.948   9.954  0.00  0.00     0.000 C 
BRANCH  24  25
HETATM   25  C   UNK N   1      37.909  10.791  11.393  0.00  0.00    -0.000 C 
BRANCH  25  26
HETATM   26  C   UNK N   1      37.500   9.439  11.946  0.00  0.00    -0.005 C 
HETATM   27  C   UNK N   1      38.721   8.546  12.033  0.00  0.00     0.005 C 
ENDBRANCH  25  26
ENDBRANCH  24  25
ENDBRANCH  23  24
ENDBRANCH  22  23
ENDBRANCH  21  22
ENDBRANCH  20  21
ENDBRANCH  19  20
ENDBRANCH  18  19
ENDBRANCH  17  18
ENDBRANCH  11  17
BRANCH  12  28
HETATM   28  N   UNK N   1      34.426  17.601   8.238  0.00  0.00    -0.362 N 
HETATM   29  C   UNK N   1      34.723  16.956   9.295  0.00  0.00     0.118 C 
ATOM     30  HN  UNK N   1      34.723  18.576   8.273  1.00  0.00     0.162 HD
BRANCH  29  31
HETATM   31  C   UNK N   1      34.362  15.523   9.549  0.00  0.00     0.162 C 
BRANCH  31  32
HETATM   32  C   UNK N   1      35.468  14.730  10.183  0.00  0.00     0.134 C 
HETATM   33  O   UNK N   1      36.622  15.099  10.026  0.00  0.00    -0.298 OA
BRANCH  32  34
HETATM   34  C   UNK N   1      35.186  13.552  11.069  0.00  0.00     0.079 C 
BRANCH  34  35
HETATM   35  C   UNK N   1      35.447  13.896  12.526  0.00  0.00     0.007 C 
BRANCH  35  36
HETATM   36  C   UNK N   1      35.297  12.666  13.413  0.00  0.00     0.000 C 
BRANCH  36  37
HETATM   37  C   UNK N   1      34.566  11.559  12.668  0.00  0.00     0.000 C 
BRANCH  37  38
HETATM   38  C   UNK N   1      34.092  10.499  13.637  0.00  0.00     0.000 C 
BRANCH  38  39
HETATM   39  C   UNK N   1      33.848  11.107  15.006  0.00  0.00     0.000 C 
BRANCH  39  40
HETATM   40  C   UNK N   1      34.639  10.379  16.087  0.00  0.00     0.000 C 
BRANCH  40  41
HETATM   41  C   UNK N   1      35.537  11.350  16.848  0.00  0.00     0.000 C 
BRANCH  41  42
HETATM   42  C   UNK N   1      34.895  12.717  17.031  0.00  0.00    -0.000 C 
BRANCH  42  43
HETATM   43  C   UNK N   1      35.249  13.346  18.368  0.00  0.00    -0.005 C 
HETATM   44  C   UNK N   1      35.258  12.284  19.450  0.00  0.00     0.005 C 
ENDBRANCH  42  43
ENDBRANCH  41  42
ENDBRANCH  40  41
ENDBRANCH  39  40
ENDBRANCH  38  39
ENDBRANCH  37  38
ENDBRANCH  36  37
ENDBRANCH  35  36
ENDBRANCH  34  35
ENDBRANCH  32  34
ENDBRANCH  31  32
ENDBRANCH  29  31
BRANCH  29  45
HETATM   45  O   UNK N   1      35.460  17.586  10.232  0.00  0.00    -0.349 OA
HETATM   46  H   UNK N   1      35.393  17.378  11.143  0.00  0.00     0.219 HD
ENDBRANCH  29  45
ENDBRANCH  12  28
BRANCH  13  47
HETATM   47  O   UNK N   1      31.728  18.068   8.241  0.00  0.00    -0.264 OA
BRANCH  47  48
HETATM   48  P   UNK N   1      30.055  17.880   8.725  0.00  0.00     0.393 P 
HETATM   49  O   UNK N   1      29.063  18.904   8.110  0.00  0.00    -0.631 OA
BRANCH  48  50
HETATM   50  O   UNK N   1      29.651  17.399  10.346  0.00  0.00    -0.307 OA
HETATM   51  H   UNK N   1      29.798  17.353  11.304  0.00  0.00     0.222 HD
ENDBRANCH  48  50
BRANCH  48  52
HETATM   52  O   UNK N   1      29.662  16.464   7.826  0.00  0.00    -0.307 OA
HETATM   53  H   UNK N   1      29.826  16.273   6.889  0.00  0.00     0.222 HD
ENDBRANCH  48  52
ENDBRANCH  47  48
ENDBRANCH  13  47
ENDBRANCH   8   9
ENDBRANCH   7   8
ENDBRANCH   5   7
BRANCH   2  54
HETATM   54  N   UNK N   1      27.566  16.224   4.792  0.00  0.00    -0.362 N 
HETATM   55  C   UNK N   1      27.007  17.136   5.537  0.00  0.00     0.111 C 
ATOM     56  HN  UNK N   1      27.898  15.383   5.266  1.00  0.00     0.162 HD
BRANCH  55  57
HETATM   57  C   UNK N   1      26.516  18.465   5.011  0.00  0.00     0.083 C 
BRANCH  57  58
HETATM   58  C   UNK N   1      25.017  18.667   5.022  0.00  0.00     0.008 C 
BRANCH  58  59
HETATM   59  C   UNK N   1      24.445  17.941   3.829  0.00  0.00     0.000 C 
BRANCH  59  60
HETATM   60  C   UNK N   1      23.561  16.807   4.306  0.00  0.00     0.000 C 
BRANCH  60  61
HETATM   61  C   UNK N   1      23.011  17.028   5.717  0.00  0.00     0.000 C 
BRANCH  61  62
HETATM   62  C   UNK N   1      22.741  15.723   6.451  0.00  0.00     0.000 C 
BRANCH  62  63
HETATM   63  C   UNK N   1      21.323  15.229   6.213  0.00  0.00     0.000 C 
BRANCH  63  64
HETATM   64  C   UNK N   1      20.341  15.977   7.102  0.00  0.00     0.004 C 
BRANCH  64  65
HETATM   65  C   UNK N   1      20.711  15.907   8.580  0.00  0.00     0.027 C 
BRANCH  65  66
HETATM   66  C   UNK N   1      19.946  14.811   9.274  0.00  0.00    -0.031 C 
HETATM   67  C   UNK N   1      20.563  13.780   9.853  0.00  0.00    -0.031 C 
BRANCH  67  68
HETATM   68  C   UNK N   1      22.054  13.654   9.838  0.00  0.00     0.027 C 
BRANCH  68  69
HETATM   69  C   UNK N   1      22.477  12.282  10.332  0.00  0.00     0.004 C 
BRANCH  69  70
HETATM   70  C   UNK N   1      23.339  11.604   9.277  0.00  0.00     0.000 C 
BRANCH  70  71
HETATM   71  C   UNK N   1      23.208  12.288   7.930  0.00  0.00    -0.000 C 
BRANCH  71  72
HETATM   72  C   UNK N   1      22.588  11.346   6.915  0.00  0.00    -0.005 C 
HETATM   73  C   UNK N   1      21.156  11.759   6.642  0.00  0.00     0.005 C 
ENDBRANCH  71  72
ENDBRANCH  70  71
ENDBRANCH  69  70
ENDBRANCH  68  69
ENDBRANCH  67  68
ENDBRANCH  65  66
ENDBRANCH  64  65
ENDBRANCH  63  64
ENDBRANCH  62  63
ENDBRANCH  61  62
ENDBRANCH  60  61
ENDBRANCH  59  60
ENDBRANCH  58  59
ENDBRANCH  57  58
ENDBRANCH  55  57
BRANCH  55  74
HETATM   74  O   UNK N   1      26.934  16.935   6.864  0.00  0.00    -0.350 OA
HETATM   75  H   UNK N   1      27.057  16.906   7.793  0.00  0.00     0.219 HD
ENDBRANCH  55  74
ENDBRANCH   2  54
BRANCH   4  76
HETATM   76  O   UNK N   1      25.793  14.835   2.814  0.00  0.00    -0.381 OA
BRANCH  76  77
HETATM   77  C   UNK N   1      25.162  14.780   1.558  0.00  0.00     0.171 C 
BRANCH  77  78
HETATM   78  C   UNK N   1      24.499  13.450   1.271  0.00  0.00     0.058 C 
BRANCH  78  79
HETATM   79  C   UNK N   1      22.977  13.469   1.136  0.00  0.00     0.122 C 
BRANCH  79  80
HETATM   80  C   UNK N   1      22.428  14.830   1.546  0.00  0.00     0.032 C 
BRANCH  80  81
HETATM   81  C   UNK N   1      20.952  14.972   1.193  0.00  0.00     0.002 C 
BRANCH  81  82
HETATM   82  C   UNK N   1      20.502  16.417   1.375  0.00  0.00     0.000 C 
BRANCH  82  83
HETATM   83  C   UNK N   1      20.199  16.700   2.840  0.00  0.00     0.000 C 
BRANCH  83  84
HETATM   84  C   UNK N   1      19.678  18.111   3.000  0.00  0.00    -0.000 C 
BRANCH  84  85
HETATM   85  C   UNK N   1      20.770  18.994   3.567  0.00  0.00    -0.005 C 
HETATM   86  C   UNK N   1      20.568  20.412   3.087  0.00  0.00     0.005 C 
ENDBRANCH  84  85
ENDBRANCH  83  84
ENDBRANCH  82  83
ENDBRANCH  81  82
ENDBRANCH  80  81
ENDBRANCH  79  80
BRANCH  79  87
HETATM   87  O   UNK N   1      22.344  12.457   1.890  0.00  0.00    -0.391 OA
HETATM   88  C   UNK N   1      22.732  12.593   3.232  0.00  0.00     0.202 C 
ENDBRANCH  79  87
ENDBRANCH  78  79
ENDBRANCH  77  78
ENDBRANCH  76  77
ENDBRANCH   4  76
BRANCH   1  89
HETATM   89  C   UNK N   1      30.456  12.981   3.359  0.00  0.00     0.201 C 
BRANCH  89  90
HETATM   90  O   UNK N   1      30.782  12.523   2.086  0.00  0.00    -0.393 OA
HETATM   91  C   UNK N   1      32.057  11.992   2.256  0.00  0.00     0.201 C 
ENDBRANCH  89  90
ENDBRANCH   1  89
BRANCH   3  92
HETATM   92  O   UNK N   1      27.495  12.769   3.587  0.00  0.00    -0.286 OA
BRANCH  92  93
HETATM   93  P   UNK N   1      27.287  11.224   2.780  0.00  0.00     0.391 P 
HETATM   94  O   UNK N   1      27.436  11.488   1.259  0.00  0.00    -0.632 OA
BRANCH  93  95
HETATM   95  O   UNK N   1      28.460  10.013   3.196  0.00  0.00    -0.307 OA
HETATM   96  H   UNK N   1      29.367   9.914   3.526  0.00  0.00     0.222 HD
ENDBRANCH  93  95
BRANCH  93  97
HETATM   97  O   UNK N   1      25.679  10.619   3.023  0.00  0.00    -0.307 OA
HETATM   98  H   UNK N   1      24.787  10.692   3.397  0.00  0.00     0.222 HD
ENDBRANCH  93  97
ENDBRANCH  92  93
ENDBRANCH   3  92
TORSDOF 66
ENDMDL
MODEL 6
REMARK VINA RESULT:      -5.5      3.849     12.918
REMARK WARNING: 32 MAX_TORS EXCEEDED!!!
REMARK  66 active torsions:
REMARK  status: ('A' for Active; 'I' for Inactive)
REMARK    1  A    between atoms: C_11  and  C_7 
REMARK    2  A    between atoms: C_12  and  C_8 
REMARK    3  A    between atoms: C_13  and  C_9 
REMARK    4  A    between atoms: C_14  and  C_10 
REMARK    5  A    between atoms: C_15  and  C_11 
REMARK    6  A    between atoms: C_16  and  C_12 
REMARK    7  A    between atoms: C_17  and  C_13 
REMARK    8  A    between atoms: C_18  and  C_14 
REMARK    9  A    between atoms: C_19  and  C_15 
REMARK   10  A    between atoms: C_20  and  C_16 
REMARK   11  A    between atoms: C_21  and  C_17 
REMARK   12  A    between atoms: C_36  and  C_18 
REMARK   13  A    between atoms: C_22  and  C_19 
REMARK   14  A    between atoms: C_23  and  C_20 
REMARK   15  A    between atoms: C_24  and  C_21 
REMARK   16  A    between atoms: C_25  and  C_22 
REMARK   17  A    between atoms: C_31  and  C_23 
REMARK   18  A    between atoms: C_35  and  C_24 
REMARK   19  A    between atoms: C_27  and  C_26 
REMARK   20  A    between atoms: C_28  and  C_27 
REMARK   21  A    between atoms: C_29  and  C_28 
REMARK   22  A    between atoms: C_30  and  C_29 
REMARK   23  A    between atoms: C_32  and  C_30 
REMARK   24  A    between atoms: C_33  and  C_31 
REMARK   25  A    between atoms: C_34  and  C_32 
REMARK   26  A    between atoms: C_37  and  C_33 
REMARK   27  A    between atoms: C_38  and  C_34 
REMARK   28  A    between atoms: C_39  and  C_35 
REMARK   29  A    between atoms: C_41  and  C_36 
REMARK   30  A    between atoms: C_40  and  C_37 
REMARK   31  A    between atoms: C_42  and  C_38 
REMARK   32  A    between atoms: C_43  and  C_39 
REMARK   33  A    between atoms: C_44  and  C_40 
REMARK   34  A    between atoms: C_45  and  C_41 
REMARK   35  A    between atoms: C_46  and  C_42 
REMARK   36  A    between atoms: C_48  and  C_43 
REMARK   37  A    between atoms: C_53  and  C_44 
REMARK   38  A    between atoms: C_54  and  C_45 
REMARK   39  A    between atoms: C_57  and  C_46 
REMARK   40  A    between atoms: C_49  and  C_47 
REMARK   41  A    between atoms: C_54  and  C_47 
REMARK   42  A    between atoms: O_83  and  C_48 
REMARK   43  A    between atoms: O_84  and  C_49 
REMARK   44  A    between atoms: C_53  and  C_50 
REMARK   45  A    between atoms: C_58  and  C_50 
REMARK   46  A    between atoms: C_56  and  C_51 
REMARK   47  A    between atoms: O_81  and  C_51 
REMARK   48  A    between atoms: C_55  and  C_52 
REMARK   49  A    between atoms: O_85  and  C_52 
REMARK   50  A    between atoms: C_54  and  O_82 
REMARK   51  A    between atoms: C_57  and  O_72 
REMARK   52  A    between atoms: C_58  and  O_73 
REMARK   53  A    between atoms: C_59  and  N_69 
REMARK   54  A    between atoms: C_60  and  N_67 
REMARK   55  A    between atoms: C_61  and  O_74 
REMARK   56  A    between atoms: C_62  and  O_88 
REMARK   57  A    between atoms: C_63  and  O_83 
REMARK   58  A    between atoms: C_64  and  O_84 
REMARK   59  A    between atoms: C_65  and  O_85 
REMARK   60  A    between atoms: C_66  and  O_89 
REMARK   61  A    between atoms: P_90  and  O_75 
REMARK   62  A    between atoms: P_90  and  O_76 
REMARK   63  A    between atoms: P_91  and  O_78 
REMARK   64  A    between atoms: P_91  and  O_79 
REMARK   65  A    between atoms: P_90  and  O_88 
REMARK   66  A    between atoms: P_91  and  O_89 
ROOT
HETATM    1  C   UNK N   1      35.522  13.187   6.735  0.00  0.00     0.180 C 
HETATM    2  C   UNK N   1      33.985  14.856   8.285  0.00  0.00     0.170 C 
HETATM    3  C   UNK N   1      36.077  13.239   8.162  0.00  0.00     0.196 C 
HETATM    4  C   UNK N   1      35.088  14.077   9.065  0.00  0.00     0.181 C 
HETATM    5  C   UNK N   1      33.334  13.856   7.265  0.00  0.00     0.285 C 
HETATM    6  O   UNK N   1      34.166  12.813   6.753  0.00  0.00    -0.349 OA
ENDROOT
BRANCH   5   7
HETATM    7  O   UNK N   1      32.665  14.519   6.228  0.00  0.00    -0.356 OA
BRANCH   7   8
HETATM    8  C   UNK N   1      32.419  13.603   5.176  0.00  0.00     0.205 C 
BRANCH   8   9
HETATM    9  C   UNK N   1      30.959  13.415   5.015  0.00  0.00     0.180 C 
HETATM   10  C   UNK N   1      30.619  14.213   3.742  0.00  0.00     0.180 C 
HETATM   11  C   UNK N   1      29.210  13.896   3.232  0.00  0.00     0.180 C 
HETATM   12  C   UNK N   1      29.214  12.322   3.082  0.00  0.00     0.170 C 
HETATM   13  C   UNK N   1      29.417  11.769   4.509  0.00  0.00     0.297 C 
HETATM   14  O   UNK N   1      30.737  12.017   4.924  0.00  0.00    -0.348 OA
BRANCH  10  15
HETATM   15  O   UNK N   1      30.834  15.564   4.014  0.00  0.00    -0.390 OA
HETATM   16  H   UNK N   1      30.653  15.929   4.895  0.00  0.00     0.210 HD
ENDBRANCH  10  15
BRANCH  11  17
HETATM   17  O   UNK N   1      28.966  14.574   2.011  0.00  0.00    -0.381 OA
BRANCH  17  18
HETATM   18  C   UNK N   1      27.688  15.196   2.006  0.00  0.00     0.168 C 
BRANCH  18  19
HETATM   19  C   UNK N   1      27.360  16.009   3.267  0.00  0.00     0.026 C 
BRANCH  19  20
HETATM   20  C   UNK N   1      25.865  16.313   3.449  0.00  0.00     0.002 C 
BRANCH  20  21
HETATM   21  C   UNK N   1      25.380  16.204   4.894  0.00  0.00     0.000 C 
BRANCH  21  22
HETATM   22  C   UNK N   1      26.162  15.175   5.689  0.00  0.00     0.000 C 
BRANCH  22  23
HETATM   23  C   UNK N   1      25.510  14.999   7.040  0.00  0.00     0.000 C 
BRANCH  23  24
HETATM   24  C   UNK N   1      25.178  13.535   7.245  0.00  0.00     0.000 C 
BRANCH  24  25
HETATM   25  C   UNK N   1      24.760  13.285   8.683  0.00  0.00    -0.000 C 
BRANCH  25  26
HETATM   26  C   UNK N   1      23.381  12.656   8.744  0.00  0.00    -0.005 C 
HETATM   27  C   UNK N   1      22.551  13.374   9.787  0.00  0.00     0.005 C 
ENDBRANCH  25  26
ENDBRANCH  24  25
ENDBRANCH  23  24
ENDBRANCH  22  23
ENDBRANCH  21  22
ENDBRANCH  20  21
ENDBRANCH  19  20
ENDBRANCH  18  19
ENDBRANCH  17  18
ENDBRANCH  11  17
BRANCH  12  28
HETATM   28  N   UNK N   1      28.126  11.598   2.433  0.00  0.00    -0.362 N 
HETATM   29  C   UNK N   1      26.862  11.570   2.587  0.00  0.00     0.118 C 
ATOM     30  HN  UNK N   1      28.449  10.978   1.691  1.00  0.00     0.162 HD
BRANCH  29  31
HETATM   31  C   UNK N   1      26.114  12.334   3.637  0.00  0.00     0.162 C 
BRANCH  31  32
HETATM   32  C   UNK N   1      24.627  12.132   3.580  0.00  0.00     0.134 C 
HETATM   33  O   UNK N   1      24.170  11.038   3.874  0.00  0.00    -0.298 OA
BRANCH  32  34
HETATM   34  C   UNK N   1      23.691  13.258   3.254  0.00  0.00     0.079 C 
BRANCH  34  35
HETATM   35  C   UNK N   1      22.607  13.386   4.313  0.00  0.00     0.007 C 
BRANCH  35  36
HETATM   36  C   UNK N   1      21.724  14.597   4.047  0.00  0.00     0.000 C 
BRANCH  36  37
HETATM   37  C   UNK N   1      22.315  15.455   2.938  0.00  0.00     0.000 C 
BRANCH  37  38
HETATM   38  C   UNK N   1      21.233  15.886   1.974  0.00  0.00     0.000 C 
BRANCH  38  39
HETATM   39  C   UNK N   1      19.996  15.025   2.150  0.00  0.00     0.000 C 
BRANCH  39  40
HETATM   40  C   UNK N   1      19.702  14.209   0.896  0.00  0.00     0.000 C 
BRANCH  40  41
HETATM   41  C   UNK N   1      20.785  13.160   0.666  0.00  0.00     0.000 C 
BRANCH  41  42
HETATM   42  C   UNK N   1      20.509  11.864   1.413  0.00  0.00    -0.000 C 
BRANCH  42  43
HETATM   43  C   UNK N   1      20.421  10.667   0.480  0.00  0.00    -0.005 C 
HETATM   44  C   UNK N   1      19.650   9.548   1.152  0.00  0.00     0.005 C 
ENDBRANCH  42  43
ENDBRANCH  41  42
ENDBRANCH  40  41
ENDBRANCH  39  40
ENDBRANCH  38  39
ENDBRANCH  37  38
ENDBRANCH  36  37
ENDBRANCH  35  36
ENDBRANCH  34  35
ENDBRANCH  32  34
ENDBRANCH  31  32
ENDBRANCH  29  31
BRANCH  29  45
HETATM   45  O   UNK N   1      26.138  10.845   1.711  0.00  0.00    -0.349 OA
HETATM   46  H   UNK N   1      25.687  10.063   1.963  0.00  0.00     0.219 HD
ENDBRANCH  29  45
ENDBRANCH  12  28
BRANCH  13  47
HETATM   47  O   UNK N   1      29.037  10.429   4.735  0.00  0.00    -0.264 OA
BRANCH  47  48
HETATM   48  P   UNK N   1      30.267   9.280   5.223  0.00  0.00     0.393 P 
HETATM   49  O   UNK N   1      29.870   7.784   5.100  0.00  0.00    -0.631 OA
BRANCH  48  50
HETATM   50  O   UNK N   1      31.312   9.620   6.570  0.00  0.00    -0.307 OA
HETATM   51  H   UNK N   1      31.521   9.691   7.515  0.00  0.00     0.222 HD
ENDBRANCH  48  50
BRANCH  48  52
HETATM   52  O   UNK N   1      31.344   9.442   3.887  0.00  0.00    -0.307 OA
HETATM   53  H   UNK N   1      31.259  10.003   3.101  0.00  0.00     0.222 HD
ENDBRANCH  48  52
ENDBRANCH  47  48
ENDBRANCH  13  47
ENDBRANCH   8   9
ENDBRANCH   7   8
ENDBRANCH   5   7
BRANCH   2  54
HETATM   54  N   UNK N   1      34.505  16.067   7.650  0.00  0.00    -0.362 N 
HETATM   55  C   UNK N   1      34.048  17.278   7.805  0.00  0.00     0.111 C 
ATOM     56  HN  UNK N   1      35.303  15.953   7.025  1.00  0.00     0.162 HD
BRANCH  55  57
HETATM   57  C   UNK N   1      32.837  17.618   8.643  0.00  0.00     0.083 C 
BRANCH  57  58
HETATM   58  C   UNK N   1      31.500  17.518   7.943  0.00  0.00     0.008 C 
BRANCH  58  59
HETATM   59  C   UNK N   1      30.478  18.229   8.795  0.00  0.00     0.000 C 
BRANCH  59  60
HETATM   60  C   UNK N   1      29.135  17.542   8.650  0.00  0.00     0.000 C 
BRANCH  60  61
HETATM   61  C   UNK N   1      28.769  17.243   7.194  0.00  0.00     0.000 C 
BRANCH  61  62
HETATM   62  C   UNK N   1      28.048  18.402   6.522  0.00  0.00     0.000 C 
BRANCH  62  63
HETATM   63  C   UNK N   1      28.631  18.703   5.150  0.00  0.00     0.000 C 
BRANCH  63  64
HETATM   64  C   UNK N   1      27.945  19.912   4.532  0.00  0.00     0.004 C 
BRANCH  64  65
HETATM   65  C   UNK N   1      26.424  19.839   4.625  0.00  0.00     0.027 C 
BRANCH  65  66
HETATM   66  C   UNK N   1      25.784  20.326   3.351  0.00  0.00    -0.031 C 
HETATM   67  C   UNK N   1      24.519  20.036   3.044  0.00  0.00    -0.031 C 
BRANCH  67  68
HETATM   68  C   UNK N   1      23.667  19.202   3.948  0.00  0.00     0.027 C 
BRANCH  68  69
HETATM   69  C   UNK N   1      22.211  19.277   3.526  0.00  0.00     0.004 C 
BRANCH  69  70
HETATM   70  C   UNK N   1      21.329  18.734   4.641  0.00  0.00     0.000 C 
BRANCH  70  71
HETATM   71  C   UNK N   1      22.145  17.995   5.684  0.00  0.00    -0.000 C 
BRANCH  71  72
HETATM   72  C   UNK N   1      21.232  17.253   6.643  0.00  0.00    -0.005 C 
HETATM   73  C   UNK N   1      21.905  15.977   7.107  0.00  0.00     0.005 C 
ENDBRANCH  71  72
ENDBRANCH  70  71
ENDBRANCH  69  70
ENDBRANCH  68  69
ENDBRANCH  67  68
ENDBRANCH  65  66
ENDBRANCH  64  65
ENDBRANCH  63  64
ENDBRANCH  62  63
ENDBRANCH  61  62
ENDBRANCH  60  61
ENDBRANCH  59  60
ENDBRANCH  58  59
ENDBRANCH  57  58
ENDBRANCH  55  57
BRANCH  55  74
HETATM   74  O   UNK N   1      34.623  18.280   7.118  0.00  0.00    -0.350 OA
HETATM   75  H   UNK N   1      35.010  18.847   6.480  0.00  0.00     0.219 HD
ENDBRANCH  55  74
ENDBRANCH   2  54
BRANCH   4  76
HETATM   76  O   UNK N   1      35.713  14.827  10.098  0.00  0.00    -0.381 OA
BRANCH  76  77
HETATM   77  C   UNK N   1      34.804  14.971  11.161  0.00  0.00     0.171 C 
BRANCH  77  78
HETATM   78  C   UNK N   1      34.994  13.951  12.264  0.00  0.00     0.058 C 
BRANCH  78  79
HETATM   79  C   UNK N   1      36.386  13.886  12.891  0.00  0.00     0.122 C 
BRANCH  79  80
HETATM   80  C   UNK N   1      36.838  12.437  13.024  0.00  0.00     0.032 C 
BRANCH  80  81
HETATM   81  C   UNK N   1      36.067  11.517  12.085  0.00  0.00     0.002 C 
BRANCH  81  82
HETATM   82  C   UNK N   1      36.311  10.059  12.455  0.00  0.00     0.000 C 
BRANCH  82  83
HETATM   83  C   UNK N   1      35.219   9.558  13.391  0.00  0.00     0.000 C 
BRANCH  83  84
HETATM   84  C   UNK N   1      33.986  10.424  13.263  0.00  0.00    -0.000 C 
BRANCH  84  85
HETATM   85  C   UNK N   1      33.482  10.798  14.642  0.00  0.00    -0.005 C 
HETATM   86  C   UNK N   1      34.522  10.426  15.672  0.00  0.00     0.005 C 
ENDBRANCH  84  85
ENDBRANCH  83  84
ENDBRANCH  82  83
ENDBRANCH  81  82
ENDBRANCH  80  81
ENDBRANCH  79  80
BRANCH  79  87
HETATM   87  O   UNK N   1      36.452  14.519  14.150  0.00  0.00    -0.391 OA
HETATM   88  C   UNK N   1      36.796  13.560  15.115  0.00  0.00     0.202 C 
ENDBRANCH  79  87
ENDBRANCH  78  79
ENDBRANCH  77  78
ENDBRANCH  76  77
ENDBRANCH   4  76
BRANCH   1  89
HETATM   89  C   UNK N   1      36.289  12.298   5.768  0.00  0.00     0.201 C 
BRANCH  89  90
HETATM   90  O   UNK N   1      37.009  13.042   4.839  0.00  0.00    -0.393 OA
HETATM   91  C   UNK N   1      36.068  13.311   3.849  0.00  0.00     0.201 C 
ENDBRANCH  89  90
ENDBRANCH   1  89
BRANCH   3  92
HETATM   92  O   UNK N   1      37.362  13.822   8.089  0.00  0.00    -0.286 OA
BRANCH  92  93
HETATM   93  P   UNK N   1      38.543  12.897   9.000  0.00  0.00     0.391 P 
HETATM   94  O   UNK N   1      39.842  12.870   8.155  0.00  0.00    -0.632 OA
BRANCH  93  95
HETATM   95  O   UNK N   1      38.966  13.565  10.548  0.00  0.00    -0.307 OA
HETATM   96  H   UNK N   1      39.140  13.305  11.466  0.00  0.00     0.222 HD
ENDBRANCH  93  95
BRANCH  93  97
HETATM   97  O   UNK N   1      38.029  11.249   9.172  0.00  0.00    -0.307 OA
HETATM   98  H   UNK N   1      37.978  10.333   8.856  0.00  0.00     0.222 HD
ENDBRANCH  93  97
ENDBRANCH  92  93
ENDBRANCH   3  92
TORSDOF 66
ENDMDL
MODEL 7
REMARK VINA RESULT:      -5.5      4.912     11.973
REMARK WARNING: 32 MAX_TORS EXCEEDED!!!
REMARK  66 active torsions:
REMARK  status: ('A' for Active; 'I' for Inactive)
REMARK    1  A    between atoms: C_11  and  C_7 
REMARK    2  A    between atoms: C_12  and  C_8 
REMARK    3  A    between atoms: C_13  and  C_9 
REMARK    4  A    between atoms: C_14  and  C_10 
REMARK    5  A    between atoms: C_15  and  C_11 
REMARK    6  A    between atoms: C_16  and  C_12 
REMARK    7  A    between atoms: C_17  and  C_13 
REMARK    8  A    between atoms: C_18  and  C_14 
REMARK    9  A    between atoms: C_19  and  C_15 
REMARK   10  A    between atoms: C_20  and  C_16 
REMARK   11  A    between atoms: C_21  and  C_17 
REMARK   12  A    between atoms: C_36  and  C_18 
REMARK   13  A    between atoms: C_22  and  C_19 
REMARK   14  A    between atoms: C_23  and  C_20 
REMARK   15  A    between atoms: C_24  and  C_21 
REMARK   16  A    between atoms: C_25  and  C_22 
REMARK   17  A    between atoms: C_31  and  C_23 
REMARK   18  A    between atoms: C_35  and  C_24 
REMARK   19  A    between atoms: C_27  and  C_26 
REMARK   20  A    between atoms: C_28  and  C_27 
REMARK   21  A    between atoms: C_29  and  C_28 
REMARK   22  A    between atoms: C_30  and  C_29 
REMARK   23  A    between atoms: C_32  and  C_30 
REMARK   24  A    between atoms: C_33  and  C_31 
REMARK   25  A    between atoms: C_34  and  C_32 
REMARK   26  A    between atoms: C_37  and  C_33 
REMARK   27  A    between atoms: C_38  and  C_34 
REMARK   28  A    between atoms: C_39  and  C_35 
REMARK   29  A    between atoms: C_41  and  C_36 
REMARK   30  A    between atoms: C_40  and  C_37 
REMARK   31  A    between atoms: C_42  and  C_38 
REMARK   32  A    between atoms: C_43  and  C_39 
REMARK   33  A    between atoms: C_44  and  C_40 
REMARK   34  A    between atoms: C_45  and  C_41 
REMARK   35  A    between atoms: C_46  and  C_42 
REMARK   36  A    between atoms: C_48  and  C_43 
REMARK   37  A    between atoms: C_53  and  C_44 
REMARK   38  A    between atoms: C_54  and  C_45 
REMARK   39  A    between atoms: C_57  and  C_46 
REMARK   40  A    between atoms: C_49  and  C_47 
REMARK   41  A    between atoms: C_54  and  C_47 
REMARK   42  A    between atoms: O_83  and  C_48 
REMARK   43  A    between atoms: O_84  and  C_49 
REMARK   44  A    between atoms: C_53  and  C_50 
REMARK   45  A    between atoms: C_58  and  C_50 
REMARK   46  A    between atoms: C_56  and  C_51 
REMARK   47  A    between atoms: O_81  and  C_51 
REMARK   48  A    between atoms: C_55  and  C_52 
REMARK   49  A    between atoms: O_85  and  C_52 
REMARK   50  A    between atoms: C_54  and  O_82 
REMARK   51  A    between atoms: C_57  and  O_72 
REMARK   52  A    between atoms: C_58  and  O_73 
REMARK   53  A    between atoms: C_59  and  N_69 
REMARK   54  A    between atoms: C_60  and  N_67 
REMARK   55  A    between atoms: C_61  and  O_74 
REMARK   56  A    between atoms: C_62  and  O_88 
REMARK   57  A    between atoms: C_63  and  O_83 
REMARK   58  A    between atoms: C_64  and  O_84 
REMARK   59  A    between atoms: C_65  and  O_85 
REMARK   60  A    between atoms: C_66  and  O_89 
REMARK   61  A    between atoms: P_90  and  O_75 
REMARK   62  A    between atoms: P_90  and  O_76 
REMARK   63  A    between atoms: P_91  and  O_78 
REMARK   64  A    between atoms: P_91  and  O_79 
REMARK   65  A    between atoms: P_90  and  O_88 
REMARK   66  A    between atoms: P_91  and  O_89 
ROOT
HETATM    1  C   UNK N   1      32.782  10.938   2.921  0.00  0.00     0.180 C 
HETATM    2  C   UNK N   1      31.352  13.119   3.786  0.00  0.00     0.170 C 
HETATM    3  C   UNK N   1      33.554  12.227   2.619  0.00  0.00     0.196 C 
HETATM    4  C   UNK N   1      32.786  13.446   3.265  0.00  0.00     0.181 C 
HETATM    5  C   UNK N   1      31.452  11.811   4.648  0.00  0.00     0.285 C 
HETATM    6  O   UNK N   1      32.465  10.870   4.290  0.00  0.00    -0.349 OA
ENDROOT
BRANCH   5   7
HETATM    7  O   UNK N   1      30.211  11.180   4.797  0.00  0.00    -0.356 OA
BRANCH   7   8
HETATM    8  C   UNK N   1      30.364   9.793   4.555  0.00  0.00     0.205 C 
BRANCH   8   9
HETATM    9  C   UNK N   1      29.348   9.347   3.573  0.00  0.00     0.180 C 
HETATM   10  C   UNK N   1      28.030   9.362   4.370  0.00  0.00     0.180 C 
HETATM   11  C   UNK N   1      26.810   9.226   3.453  0.00  0.00     0.180 C 
HETATM   12  C   UNK N   1      26.999  10.394   2.406  0.00  0.00     0.170 C 
HETATM   13  C   UNK N   1      28.299  10.061   1.642  0.00  0.00     0.297 C 
HETATM   14  O   UNK N   1      29.404  10.259   2.488  0.00  0.00    -0.348 OA
BRANCH  10  15
HETATM   15  O   UNK N   1      28.113   8.377   5.354  0.00  0.00    -0.390 OA
HETATM   16  H   UNK N   1      27.718   7.501   5.217  0.00  0.00     0.210 HD
ENDBRANCH  10  15
BRANCH  11  17
HETATM   17  O   UNK N   1      25.615   9.337   4.208  0.00  0.00    -0.381 OA
BRANCH  17  18
HETATM   18  C   UNK N   1      25.625  10.494   5.033  0.00  0.00     0.168 C 
BRANCH  18  19
HETATM   19  C   UNK N   1      24.331  10.737   5.823  0.00  0.00     0.026 C 
BRANCH  19  20
HETATM   20  C   UNK N   1      23.729  12.137   5.630  0.00  0.00     0.002 C 
BRANCH  20  21
HETATM   21  C   UNK N   1      23.507  12.903   6.934  0.00  0.00     0.000 C 
BRANCH  21  22
HETATM   22  C   UNK N   1      24.808  13.209   7.651  0.00  0.00     0.000 C 
BRANCH  22  23
HETATM   23  C   UNK N   1      24.668  12.825   9.106  0.00  0.00     0.000 C 
BRANCH  23  24
HETATM   24  C   UNK N   1      23.227  13.016   9.534  0.00  0.00     0.000 C 
BRANCH  24  25
HETATM   25  C   UNK N   1      22.954  12.257  10.819  0.00  0.00    -0.000 C 
BRANCH  25  26
HETATM   26  C   UNK N   1      21.469  12.229  11.126  0.00  0.00    -0.005 C 
HETATM   27  C   UNK N   1      20.750  13.188  10.200  0.00  0.00     0.005 C 
ENDBRANCH  25  26
ENDBRANCH  24  25
ENDBRANCH  23  24
ENDBRANCH  22  23
ENDBRANCH  21  22
ENDBRANCH  20  21
ENDBRANCH  19  20
ENDBRANCH  18  19
ENDBRANCH  17  18
ENDBRANCH  11  17
BRANCH  12  28
HETATM   28  N   UNK N   1      25.958  10.762   1.452  0.00  0.00    -0.362 N 
HETATM   29  C   UNK N   1      25.201  11.776   1.310  0.00  0.00     0.118 C 
ATOM     30  HN  UNK N   1      25.802  10.048   0.740  1.00  0.00     0.162 HD
BRANCH  29  31
HETATM   31  C   UNK N   1      25.169  12.951   2.239  0.00  0.00     0.162 C 
BRANCH  31  32
HETATM   32  C   UNK N   1      24.218  14.031   1.806  0.00  0.00     0.134 C 
HETATM   33  O   UNK N   1      24.544  14.768   0.889  0.00  0.00    -0.298 OA
BRANCH  32  34
HETATM   34  C   UNK N   1      22.852  14.168   2.413  0.00  0.00     0.079 C 
BRANCH  34  35
HETATM   35  C   UNK N   1      21.941  14.988   1.514  0.00  0.00     0.007 C 
BRANCH  35  36
HETATM   36  C   UNK N   1      20.480  14.622   1.739  0.00  0.00     0.000 C 
BRANCH  36  37
HETATM   37  C   UNK N   1      20.369  13.387   2.620  0.00  0.00     0.000 C 
BRANCH  37  38
HETATM   38  C   UNK N   1      19.049  13.385   3.358  0.00  0.00     0.000 C 
BRANCH  38  39
HETATM   39  C   UNK N   1      19.239  13.881   4.779  0.00  0.00     0.000 C 
BRANCH  39  40
HETATM   40  C   UNK N   1      18.795  15.333   4.925  0.00  0.00     0.000 C 
BRANCH  40  41
HETATM   41  C   UNK N   1      19.728  16.095   5.862  0.00  0.00     0.000 C 
BRANCH  41  42
HETATM   42  C   UNK N   1      20.692  15.176   6.598  0.00  0.00    -0.000 C 
BRANCH  42  43
HETATM   43  C   UNK N   1      21.258  15.820   7.852  0.00  0.00    -0.005 C 
HETATM   44  C   UNK N   1      20.155  16.539   8.604  0.00  0.00     0.005 C 
ENDBRANCH  42  43
ENDBRANCH  41  42
ENDBRANCH  40  41
ENDBRANCH  39  40
ENDBRANCH  38  39
ENDBRANCH  37  38
ENDBRANCH  36  37
ENDBRANCH  35  36
ENDBRANCH  34  35
ENDBRANCH  32  34
ENDBRANCH  31  32
ENDBRANCH  29  31
BRANCH  29  45
HETATM   45  O   UNK N   1      24.411  11.824   0.219  0.00  0.00    -0.349 OA
HETATM   46  H   UNK N   1      24.667  11.448  -0.600  0.00  0.00     0.219 HD
ENDBRANCH  29  45
ENDBRANCH  12  28
BRANCH  13  47
HETATM   47  O   UNK N   1      28.480  10.682   0.387  0.00  0.00    -0.264 OA
BRANCH  47  48
HETATM   48  P   UNK N   1      30.006  10.463  -0.445  0.00  0.00     0.393 P 
HETATM   49  O   UNK N   1      29.984  10.755  -1.969  0.00  0.00    -0.631 OA
BRANCH  48  50
HETATM   50  O   UNK N   1      31.084   9.175   0.007  0.00  0.00    -0.307 OA
HETATM   51  H   UNK N   1      31.640   8.401  -0.172  0.00  0.00     0.222 HD
ENDBRANCH  48  50
BRANCH  48  52
HETATM   52  O   UNK N   1      30.844  11.850   0.142  0.00  0.00    -0.307 OA
HETATM   53  H   UNK N   1      30.587  12.462   0.849  0.00  0.00     0.222 HD
ENDBRANCH  48  52
ENDBRANCH  47  48
ENDBRANCH  13  47
ENDBRANCH   8   9
ENDBRANCH   7   8
ENDBRANCH   5   7
BRANCH   2  54
HETATM   54  N   UNK N   1      30.377  13.019   2.701  0.00  0.00    -0.362 N 
HETATM   55  C   UNK N   1      29.327  13.773   2.533  0.00  0.00     0.111 C 
ATOM     56  HN  UNK N   1      30.533  12.287   2.007  1.00  0.00     0.162 HD
BRANCH  55  57
HETATM   57  C   UNK N   1      28.912  14.861   3.496  0.00  0.00     0.083 C 
BRANCH  57  58
HETATM   58  C   UNK N   1      28.302  16.098   2.873  0.00  0.00     0.008 C 
BRANCH  58  59
HETATM   59  C   UNK N   1      26.956  16.323   3.515  0.00  0.00     0.000 C 
BRANCH  59  60
HETATM   60  C   UNK N   1      26.982  15.804   4.938  0.00  0.00     0.000 C 
BRANCH  60  61
HETATM   61  C   UNK N   1      25.672  16.051   5.690  0.00  0.00     0.000 C 
BRANCH  61  62
HETATM   62  C   UNK N   1      24.468  16.116   4.762  0.00  0.00     0.000 C 
BRANCH  62  63
HETATM   63  C   UNK N   1      23.431  17.111   5.259  0.00  0.00     0.000 C 
BRANCH  63  64
HETATM   64  C   UNK N   1      22.584  17.622   4.103  0.00  0.00     0.004 C 
BRANCH  64  65
HETATM   65  C   UNK N   1      22.146  19.070   4.288  0.00  0.00     0.027 C 
BRANCH  65  66
HETATM   66  C   UNK N   1      22.455  19.886   3.060  0.00  0.00    -0.031 C 
HETATM   67  C   UNK N   1      23.664  20.408   2.848  0.00  0.00    -0.031 C 
BRANCH  67  68
HETATM   68  C   UNK N   1      24.780  20.215   3.826  0.00  0.00     0.027 C 
BRANCH  68  69
HETATM   69  C   UNK N   1      26.124  20.337   3.130  0.00  0.00     0.004 C 
BRANCH  69  70
HETATM   70  C   UNK N   1      27.235  19.961   4.100  0.00  0.00     0.000 C 
BRANCH  70  71
HETATM   71  C   UNK N   1      26.679  19.550   5.449  0.00  0.00    -0.000 C 
BRANCH  71  72
HETATM   72  C   UNK N   1      27.375  20.309   6.564  0.00  0.00    -0.005 C 
HETATM   73  C   UNK N   1      27.053  21.785   6.458  0.00  0.00     0.005 C 
ENDBRANCH  71  72
ENDBRANCH  70  71
ENDBRANCH  69  70
ENDBRANCH  68  69
ENDBRANCH  67  68
ENDBRANCH  65  66
ENDBRANCH  64  65
ENDBRANCH  63  64
ENDBRANCH  62  63
ENDBRANCH  61  62
ENDBRANCH  60  61
ENDBRANCH  59  60
ENDBRANCH  58  59
ENDBRANCH  57  58
ENDBRANCH  55  57
BRANCH  55  74
HETATM   74  O   UNK N   1      28.509  13.525   1.496  0.00  0.00    -0.350 OA
HETATM   75  H   UNK N   1      27.870  13.198   0.893  0.00  0.00     0.219 HD
ENDBRANCH  55  74
ENDBRANCH   2  54
BRANCH   4  76
HETATM   76  O   UNK N   1      32.878  14.663   2.536  0.00  0.00    -0.381 OA
BRANCH  76  77
HETATM   77  C   UNK N   1      33.443  15.644   3.371  0.00  0.00     0.171 C 
BRANCH  77  78
HETATM   78  C   UNK N   1      33.770  15.141   4.762  0.00  0.00     0.058 C 
BRANCH  78  79
HETATM   79  C   UNK N   1      33.243  15.981   5.925  0.00  0.00     0.122 C 
BRANCH  79  80
HETATM   80  C   UNK N   1      31.720  15.958   5.945  0.00  0.00     0.032 C 
BRANCH  80  81
HETATM   81  C   UNK N   1      31.128  17.218   5.323  0.00  0.00     0.002 C 
BRANCH  81  82
HETATM   82  C   UNK N   1      29.842  17.607   6.041  0.00  0.00     0.000 C 
BRANCH  82  83
HETATM   83  C   UNK N   1      29.881  17.146   7.492  0.00  0.00     0.000 C 
BRANCH  83  84
HETATM   84  C   UNK N   1      30.148  18.323   8.404  0.00  0.00    -0.000 C 
BRANCH  84  85
HETATM   85  C   UNK N   1      29.192  18.281   9.579  0.00  0.00    -0.005 C 
HETATM   86  C   UNK N   1      27.952  17.512   9.188  0.00  0.00     0.005 C 
ENDBRANCH  84  85
ENDBRANCH  83  84
ENDBRANCH  82  83
ENDBRANCH  81  82
ENDBRANCH  80  81
ENDBRANCH  79  80
BRANCH  79  87
HETATM   87  O   UNK N   1      33.696  17.317   5.889  0.00  0.00    -0.391 OA
HETATM   88  C   UNK N   1      34.058  17.700   7.189  0.00  0.00     0.202 C 
ENDBRANCH  79  87
ENDBRANCH  78  79
ENDBRANCH  77  78
ENDBRANCH  76  77
ENDBRANCH   4  76
BRANCH   1  89
HETATM   89  C   UNK N   1      33.465   9.650   2.485  0.00  0.00     0.201 C 
BRANCH  89  90
HETATM   90  O   UNK N   1      33.342   8.649   3.443  0.00  0.00    -0.393 OA
HETATM   91  C   UNK N   1      32.896   7.556   2.705  0.00  0.00     0.201 C 
ENDBRANCH  89  90
ENDBRANCH   1  89
BRANCH   3  92
HETATM   92  O   UNK N   1      33.650  12.336   1.214  0.00  0.00    -0.286 OA
BRANCH  92  93
HETATM   93  P   UNK N   1      35.216  12.957   0.720  0.00  0.00     0.391 P 
HETATM   94  O   UNK N   1      35.519  12.354  -0.676  0.00  0.00    -0.632 OA
BRANCH  93  95
HETATM   95  O   UNK N   1      35.303  14.684   0.551  0.00  0.00    -0.307 OA
HETATM   96  H   UNK N   1      35.623  15.478   1.007  0.00  0.00     0.222 HD
ENDBRANCH  93  95
BRANCH  93  97
HETATM   97  O   UNK N   1      36.462  12.390   1.786  0.00  0.00    -0.307 OA
HETATM   98  H   UNK N   1      37.261  11.869   1.965  0.00  0.00     0.222 HD
ENDBRANCH  93  97
ENDBRANCH  92  93
ENDBRANCH   3  92
TORSDOF 66
ENDMDL
MODEL 8
REMARK VINA RESULT:      -5.5      3.555      7.742
REMARK WARNING: 32 MAX_TORS EXCEEDED!!!
REMARK  66 active torsions:
REMARK  status: ('A' for Active; 'I' for Inactive)
REMARK    1  A    between atoms: C_11  and  C_7 
REMARK    2  A    between atoms: C_12  and  C_8 
REMARK    3  A    between atoms: C_13  and  C_9 
REMARK    4  A    between atoms: C_14  and  C_10 
REMARK    5  A    between atoms: C_15  and  C_11 
REMARK    6  A    between atoms: C_16  and  C_12 
REMARK    7  A    between atoms: C_17  and  C_13 
REMARK    8  A    between atoms: C_18  and  C_14 
REMARK    9  A    between atoms: C_19  and  C_15 
REMARK   10  A    between atoms: C_20  and  C_16 
REMARK   11  A    between atoms: C_21  and  C_17 
REMARK   12  A    between atoms: C_36  and  C_18 
REMARK   13  A    between atoms: C_22  and  C_19 
REMARK   14  A    between atoms: C_23  and  C_20 
REMARK   15  A    between atoms: C_24  and  C_21 
REMARK   16  A    between atoms: C_25  and  C_22 
REMARK   17  A    between atoms: C_31  and  C_23 
REMARK   18  A    between atoms: C_35  and  C_24 
REMARK   19  A    between atoms: C_27  and  C_26 
REMARK   20  A    between atoms: C_28  and  C_27 
REMARK   21  A    between atoms: C_29  and  C_28 
REMARK   22  A    between atoms: C_30  and  C_29 
REMARK   23  A    between atoms: C_32  and  C_30 
REMARK   24  A    between atoms: C_33  and  C_31 
REMARK   25  A    between atoms: C_34  and  C_32 
REMARK   26  A    between atoms: C_37  and  C_33 
REMARK   27  A    between atoms: C_38  and  C_34 
REMARK   28  A    between atoms: C_39  and  C_35 
REMARK   29  A    between atoms: C_41  and  C_36 
REMARK   30  A    between atoms: C_40  and  C_37 
REMARK   31  A    between atoms: C_42  and  C_38 
REMARK   32  A    between atoms: C_43  and  C_39 
REMARK   33  A    between atoms: C_44  and  C_40 
REMARK   34  A    between atoms: C_45  and  C_41 
REMARK   35  A    between atoms: C_46  and  C_42 
REMARK   36  A    between atoms: C_48  and  C_43 
REMARK   37  A    between atoms: C_53  and  C_44 
REMARK   38  A    between atoms: C_54  and  C_45 
REMARK   39  A    between atoms: C_57  and  C_46 
REMARK   40  A    between atoms: C_49  and  C_47 
REMARK   41  A    between atoms: C_54  and  C_47 
REMARK   42  A    between atoms: O_83  and  C_48 
REMARK   43  A    between atoms: O_84  and  C_49 
REMARK   44  A    between atoms: C_53  and  C_50 
REMARK   45  A    between atoms: C_58  and  C_50 
REMARK   46  A    between atoms: C_56  and  C_51 
REMARK   47  A    between atoms: O_81  and  C_51 
REMARK   48  A    between atoms: C_55  and  C_52 
REMARK   49  A    between atoms: O_85  and  C_52 
REMARK   50  A    between atoms: C_54  and  O_82 
REMARK   51  A    between atoms: C_57  and  O_72 
REMARK   52  A    between atoms: C_58  and  O_73 
REMARK   53  A    between atoms: C_59  and  N_69 
REMARK   54  A    between atoms: C_60  and  N_67 
REMARK   55  A    between atoms: C_61  and  O_74 
REMARK   56  A    between atoms: C_62  and  O_88 
REMARK   57  A    between atoms: C_63  and  O_83 
REMARK   58  A    between atoms: C_64  and  O_84 
REMARK   59  A    between atoms: C_65  and  O_85 
REMARK   60  A    between atoms: C_66  and  O_89 
REMARK   61  A    between atoms: P_90  and  O_75 
REMARK   62  A    between atoms: P_90  and  O_76 
REMARK   63  A    between atoms: P_91  and  O_78 
REMARK   64  A    between atoms: P_91  and  O_79 
REMARK   65  A    between atoms: P_90  and  O_88 
REMARK   66  A    between atoms: P_91  and  O_89 
ROOT
HETATM    1  C   UNK N   1      30.151  10.791   4.594  0.00  0.00     0.180 C 
HETATM    2  C   UNK N   1      29.066  12.937   3.265  0.00  0.00     0.170 C 
HETATM    3  C   UNK N   1      28.866  10.369   3.875  0.00  0.00     0.196 C 
HETATM    4  C   UNK N   1      28.352  11.576   2.995  0.00  0.00     0.181 C 
HETATM    5  C   UNK N   1      30.612  12.667   3.259  0.00  0.00     0.285 C 
HETATM    6  O   UNK N   1      31.050  11.376   3.683  0.00  0.00    -0.349 OA
ENDROOT
BRANCH   5   7
HETATM    7  O   UNK N   1      31.328  13.679   3.910  0.00  0.00    -0.356 OA
BRANCH   7   8
HETATM    8  C   UNK N   1      32.466  14.013   3.136  0.00  0.00     0.205 C 
BRANCH   8   9
HETATM    9  C   UNK N   1      33.162  15.166   3.752  0.00  0.00     0.180 C 
HETATM   10  C   UNK N   1      32.058  15.883   4.552  0.00  0.00     0.180 C 
HETATM   11  C   UNK N   1      32.639  16.930   5.509  0.00  0.00     0.180 C 
HETATM   12  C   UNK N   1      33.690  16.112   6.360  0.00  0.00     0.170 C 
HETATM   13  C   UNK N   1      34.760  15.638   5.354  0.00  0.00     0.297 C 
HETATM   14  O   UNK N   1      34.219  14.632   4.533  0.00  0.00    -0.348 OA
BRANCH  10  15
HETATM   15  O   UNK N   1      31.135  16.398   3.640  0.00  0.00    -0.390 OA
HETATM   16  H   UNK N   1      30.927  15.921   2.821  0.00  0.00     0.210 HD
ENDBRANCH  10  15
BRANCH  11  17
HETATM   17  O   UNK N   1      31.606  17.503   6.293  0.00  0.00    -0.381 OA
BRANCH  17  18
HETATM   18  C   UNK N   1      30.912  16.515   7.043  0.00  0.00     0.168 C 
BRANCH  18  19
HETATM   19  C   UNK N   1      30.811  16.798   8.550  0.00  0.00     0.026 C 
BRANCH  19  20
HETATM   20  C   UNK N   1      30.718  18.290   8.904  0.00  0.00     0.002 C 
BRANCH  20  21
HETATM   21  C   UNK N   1      29.380  18.700   9.519  0.00  0.00     0.000 C 
BRANCH  21  22
HETATM   22  C   UNK N   1      28.202  18.314   8.645  0.00  0.00     0.000 C 
BRANCH  22  23
HETATM   23  C   UNK N   1      28.055  19.336   7.541  0.00  0.00     0.000 C 
BRANCH  23  24
HETATM   24  C   UNK N   1      28.129  18.634   6.200  0.00  0.00     0.000 C 
BRANCH  24  25
HETATM   25  C   UNK N   1      28.178  19.651   5.075  0.00  0.00    -0.000 C 
BRANCH  25  26
HETATM   26  C   UNK N   1      26.857  20.386   4.950  0.00  0.00    -0.005 C 
HETATM   27  C   UNK N   1      26.419  20.382   3.501  0.00  0.00     0.005 C 
ENDBRANCH  25  26
ENDBRANCH  24  25
ENDBRANCH  23  24
ENDBRANCH  22  23
ENDBRANCH  21  22
ENDBRANCH  20  21
ENDBRANCH  19  20
ENDBRANCH  18  19
ENDBRANCH  17  18
ENDBRANCH  11  17
BRANCH  12  28
HETATM   28  N   UNK N   1      34.347  16.675   7.535  0.00  0.00    -0.362 N 
HETATM   29  C   UNK N   1      34.549  16.262   8.723  0.00  0.00     0.118 C 
ATOM     30  HN  UNK N   1      34.730  17.606   7.369  1.00  0.00     0.162 HD
BRANCH  29  31
HETATM   31  C   UNK N   1      34.051  14.958   9.268  0.00  0.00     0.162 C 
BRANCH  31  32
HETATM   32  C   UNK N   1      35.147  14.057   9.761  0.00  0.00     0.134 C 
HETATM   33  O   UNK N   1      36.237  14.103   9.213  0.00  0.00    -0.298 OA
BRANCH  32  34
HETATM   34  C   UNK N   1      34.961  13.171  10.958  0.00  0.00     0.079 C 
BRANCH  34  35
HETATM   35  C   UNK N   1      35.181  13.948  12.246  0.00  0.00     0.007 C 
BRANCH  35  36
HETATM   36  C   UNK N   1      36.367  13.391  13.023  0.00  0.00     0.000 C 
BRANCH  36  37
HETATM   37  C   UNK N   1      37.066  12.304  12.221  0.00  0.00     0.000 C 
BRANCH  37  38
HETATM   38  C   UNK N   1      37.576  11.218  13.142  0.00  0.00     0.000 C 
BRANCH  38  39
HETATM   39  C   UNK N   1      37.525  11.684  14.586  0.00  0.00     0.000 C 
BRANCH  39  40
HETATM   40  C   UNK N   1      37.003  10.585  15.506  0.00  0.00     0.000 C 
BRANCH  40  41
HETATM   41  C   UNK N   1      35.687  11.001  16.156  0.00  0.00     0.000 C 
BRANCH  41  42
HETATM   42  C   UNK N   1      34.495  10.239  15.597  0.00  0.00    -0.000 C 
BRANCH  42  43
HETATM   43  C   UNK N   1      33.786  11.007  14.493  0.00  0.00    -0.005 C 
HETATM   44  C   UNK N   1      33.972  10.293  13.169  0.00  0.00     0.005 C 
ENDBRANCH  42  43
ENDBRANCH  41  42
ENDBRANCH  40  41
ENDBRANCH  39  40
ENDBRANCH  38  39
ENDBRANCH  37  38
ENDBRANCH  36  37
ENDBRANCH  35  36
ENDBRANCH  34  35
ENDBRANCH  32  34
ENDBRANCH  31  32
ENDBRANCH  29  31
BRANCH  29  45
HETATM   45  O   UNK N   1      35.311  17.024   9.533  0.00  0.00    -0.349 OA
HETATM   46  H   UNK N   1      36.080  16.692   9.953  0.00  0.00     0.219 HD
ENDBRANCH  29  45
ENDBRANCH  12  28
BRANCH  13  47
HETATM   47  O   UNK N   1      36.015  15.265   5.884  0.00  0.00    -0.264 OA
BRANCH  47  48
HETATM   48  P   UNK N   1      36.614  13.650   5.563  0.00  0.00     0.393 P 
HETATM   49  O   UNK N   1      37.946  13.281   6.268  0.00  0.00    -0.631 OA
BRANCH  48  50
HETATM   50  O   UNK N   1      36.431  12.934   3.989  0.00  0.00    -0.307 OA
HETATM   51  H   UNK N   1      36.441  12.194   3.362  0.00  0.00     0.222 HD
ENDBRANCH  48  50
BRANCH  48  52
HETATM   52  O   UNK N   1      35.486  12.744   6.499  0.00  0.00    -0.307 OA
HETATM   53  H   UNK N   1      34.569  12.964   6.727  0.00  0.00     0.222 HD
ENDBRANCH  48  52
ENDBRANCH  47  48
ENDBRANCH  13  47
ENDBRANCH   8   9
ENDBRANCH   7   8
ENDBRANCH   5   7
BRANCH   2  54
HETATM   54  N   UNK N   1      28.598  13.574   4.495  0.00  0.00    -0.362 N 
HETATM   55  C   UNK N   1      27.671  14.485   4.589  0.00  0.00     0.111 C 
ATOM     56  HN  UNK N   1      29.041  13.277   5.365  1.00  0.00     0.162 HD
BRANCH  55  57
HETATM   57  C   UNK N   1      26.957  15.084   3.400  0.00  0.00     0.083 C 
BRANCH  57  58
HETATM   58  C   UNK N   1      26.752  16.583   3.438  0.00  0.00     0.008 C 
BRANCH  58  59
HETATM   59  C   UNK N   1      25.272  16.843   3.573  0.00  0.00     0.000 C 
BRANCH  59  60
HETATM   60  C   UNK N   1      24.934  17.094   5.028  0.00  0.00     0.000 C 
BRANCH  60  61
HETATM   61  C   UNK N   1      23.611  17.839   5.217  0.00  0.00     0.000 C 
BRANCH  61  62
HETATM   62  C   UNK N   1      22.989  18.271   3.896  0.00  0.00     0.000 C 
BRANCH  62  63
HETATM   63  C   UNK N   1      21.595  18.842   4.095  0.00  0.00     0.000 C 
BRANCH  63  64
HETATM   64  C   UNK N   1      20.574  18.049   3.293  0.00  0.00     0.004 C 
BRANCH  64  65
HETATM   65  C   UNK N   1      20.714  16.543   3.485  0.00  0.00     0.027 C 
BRANCH  65  66
HETATM   66  C   UNK N   1      19.485  15.968   4.141  0.00  0.00    -0.031 C 
HETATM   67  C   UNK N   1      19.505  15.513   5.394  0.00  0.00    -0.031 C 
BRANCH  67  68
HETATM   68  C   UNK N   1      20.755  15.542   6.217  0.00  0.00     0.027 C 
BRANCH  68  69
HETATM   69  C   UNK N   1      20.706  16.682   7.218  0.00  0.00     0.004 C 
BRANCH  69  70
HETATM   70  C   UNK N   1      20.504  16.121   8.618  0.00  0.00     0.000 C 
BRANCH  70  71
HETATM   71  C   UNK N   1      20.587  14.607   8.627  0.00  0.00    -0.000 C 
BRANCH  71  72
HETATM   72  C   UNK N   1      21.588  14.137   9.667  0.00  0.00    -0.005 C 
HETATM   73  C   UNK N   1      21.129  12.821  10.261  0.00  0.00     0.005 C 
ENDBRANCH  71  72
ENDBRANCH  70  71
ENDBRANCH  69  70
ENDBRANCH  68  69
ENDBRANCH  67  68
ENDBRANCH  65  66
ENDBRANCH  64  65
ENDBRANCH  63  64
ENDBRANCH  62  63
ENDBRANCH  61  62
ENDBRANCH  60  61
ENDBRANCH  59  60
ENDBRANCH  58  59
ENDBRANCH  57  58
ENDBRANCH  55  57
BRANCH  55  74
HETATM   74  O   UNK N   1      27.383  14.995   5.800  0.00  0.00    -0.350 OA
HETATM   75  H   UNK N   1      27.000  15.393   6.556  0.00  0.00     0.219 HD
ENDBRANCH  55  74
ENDBRANCH   2  54
BRANCH   4  76
HETATM   76  O   UNK N   1      26.939  11.672   2.879  0.00  0.00    -0.381 OA
BRANCH  76  77
HETATM   77  C   UNK N   1      26.612  11.869   1.525  0.00  0.00     0.171 C 
BRANCH  77  78
HETATM   78  C   UNK N   1      25.276  11.276   1.131  0.00  0.00     0.058 C 
BRANCH  78  79
HETATM   79  C   UNK N   1      24.267  12.239   0.507  0.00  0.00     0.122 C 
BRANCH  79  80
HETATM   80  C   UNK N   1      23.195  12.612   1.523  0.00  0.00     0.032 C 
BRANCH  80  81
HETATM   81  C   UNK N   1      23.515  13.927   2.224  0.00  0.00     0.002 C 
BRANCH  81  82
HETATM   82  C   UNK N   1      23.238  13.811   3.717  0.00  0.00     0.000 C 
BRANCH  82  83
HETATM   83  C   UNK N   1      23.732  12.472   4.248  0.00  0.00     0.000 C 
BRANCH  83  84
HETATM   84  C   UNK N   1      24.563  12.681   5.494  0.00  0.00    -0.000 C 
BRANCH  84  85
HETATM   85  C   UNK N   1      23.916  13.741   6.363  0.00  0.00    -0.005 C 
HETATM   86  C   UNK N   1      24.747  13.943   7.608  0.00  0.00     0.005 C 
ENDBRANCH  84  85
ENDBRANCH  83  84
ENDBRANCH  82  83
ENDBRANCH  81  82
ENDBRANCH  80  81
ENDBRANCH  79  80
BRANCH  79  87
HETATM   87  O   UNK N   1      23.658  11.721  -0.656  0.00  0.00    -0.391 OA
HETATM   88  C   UNK N   1      22.981  10.539  -0.316  0.00  0.00     0.202 C 
ENDBRANCH  79  87
ENDBRANCH  78  79
ENDBRANCH  77  78
ENDBRANCH  76  77
ENDBRANCH   4  76
BRANCH   1  89
HETATM   89  C   UNK N   1      30.852   9.692   5.378  0.00  0.00     0.201 C 
BRANCH  89  90
HETATM   90  O   UNK N   1      32.002  10.157   6.008  0.00  0.00    -0.393 OA
HETATM   91  C   UNK N   1      33.014   9.405   5.418  0.00  0.00     0.201 C 
ENDBRANCH  89  90
ENDBRANCH   1  89
BRANCH   3  92
HETATM   92  O   UNK N   1      27.934   9.995   4.869  0.00  0.00    -0.286 OA
BRANCH  92  93
HETATM   93  P   UNK N   1      27.154   8.471   4.481  0.00  0.00     0.391 P 
HETATM   94  O   UNK N   1      28.164   7.649   3.641  0.00  0.00    -0.632 OA
BRANCH  93  95
HETATM   95  O   UNK N   1      26.729   7.492   5.852  0.00  0.00    -0.307 OA
HETATM   96  H   UNK N   1      25.963   7.094   6.294  0.00  0.00     0.222 HD
ENDBRANCH  93  95
BRANCH  93  97
HETATM   97  O   UNK N   1      25.768   8.734   3.472  0.00  0.00    -0.307 OA
HETATM   98  H   UNK N   1      25.254   9.272   2.849  0.00  0.00     0.222 HD
ENDBRANCH  93  97
ENDBRANCH  92  93
ENDBRANCH   3  92
TORSDOF 66
ENDMDL
MODEL 9
REMARK VINA RESULT:      -5.5      2.809      6.257
REMARK WARNING: 32 MAX_TORS EXCEEDED!!!
REMARK  66 active torsions:
REMARK  status: ('A' for Active; 'I' for Inactive)
REMARK    1  A    between atoms: C_11  and  C_7 
REMARK    2  A    between atoms: C_12  and  C_8 
REMARK    3  A    between atoms: C_13  and  C_9 
REMARK    4  A    between atoms: C_14  and  C_10 
REMARK    5  A    between atoms: C_15  and  C_11 
REMARK    6  A    between atoms: C_16  and  C_12 
REMARK    7  A    between atoms: C_17  and  C_13 
REMARK    8  A    between atoms: C_18  and  C_14 
REMARK    9  A    between atoms: C_19  and  C_15 
REMARK   10  A    between atoms: C_20  and  C_16 
REMARK   11  A    between atoms: C_21  and  C_17 
REMARK   12  A    between atoms: C_36  and  C_18 
REMARK   13  A    between atoms: C_22  and  C_19 
REMARK   14  A    between atoms: C_23  and  C_20 
REMARK   15  A    between atoms: C_24  and  C_21 
REMARK   16  A    between atoms: C_25  and  C_22 
REMARK   17  A    between atoms: C_31  and  C_23 
REMARK   18  A    between atoms: C_35  and  C_24 
REMARK   19  A    between atoms: C_27  and  C_26 
REMARK   20  A    between atoms: C_28  and  C_27 
REMARK   21  A    between atoms: C_29  and  C_28 
REMARK   22  A    between atoms: C_30  and  C_29 
REMARK   23  A    between atoms: C_32  and  C_30 
REMARK   24  A    between atoms: C_33  and  C_31 
REMARK   25  A    between atoms: C_34  and  C_32 
REMARK   26  A    between atoms: C_37  and  C_33 
REMARK   27  A    between atoms: C_38  and  C_34 
REMARK   28  A    between atoms: C_39  and  C_35 
REMARK   29  A    between atoms: C_41  and  C_36 
REMARK   30  A    between atoms: C_40  and  C_37 
REMARK   31  A    between atoms: C_42  and  C_38 
REMARK   32  A    between atoms: C_43  and  C_39 
REMARK   33  A    between atoms: C_44  and  C_40 
REMARK   34  A    between atoms: C_45  and  C_41 
REMARK   35  A    between atoms: C_46  and  C_42 
REMARK   36  A    between atoms: C_48  and  C_43 
REMARK   37  A    between atoms: C_53  and  C_44 
REMARK   38  A    between atoms: C_54  and  C_45 
REMARK   39  A    between atoms: C_57  and  C_46 
REMARK   40  A    between atoms: C_49  and  C_47 
REMARK   41  A    between atoms: C_54  and  C_47 
REMARK   42  A    between atoms: O_83  and  C_48 
REMARK   43  A    between atoms: O_84  and  C_49 
REMARK   44  A    between atoms: C_53  and  C_50 
REMARK   45  A    between atoms: C_58  and  C_50 
REMARK   46  A    between atoms: C_56  and  C_51 
REMARK   47  A    between atoms: O_81  and  C_51 
REMARK   48  A    between atoms: C_55  and  C_52 
REMARK   49  A    between atoms: O_85  and  C_52 
REMARK   50  A    between atoms: C_54  and  O_82 
REMARK   51  A    between atoms: C_57  and  O_72 
REMARK   52  A    between atoms: C_58  and  O_73 
REMARK   53  A    between atoms: C_59  and  N_69 
REMARK   54  A    between atoms: C_60  and  N_67 
REMARK   55  A    between atoms: C_61  and  O_74 
REMARK   56  A    between atoms: C_62  and  O_88 
REMARK   57  A    between atoms: C_63  and  O_83 
REMARK   58  A    between atoms: C_64  and  O_84 
REMARK   59  A    between atoms: C_65  and  O_85 
REMARK   60  A    between atoms: C_66  and  O_89 
REMARK   61  A    between atoms: P_90  and  O_75 
REMARK   62  A    between atoms: P_90  and  O_76 
REMARK   63  A    between atoms: P_91  and  O_78 
REMARK   64  A    between atoms: P_91  and  O_79 
REMARK   65  A    between atoms: P_90  and  O_88 
REMARK   66  A    between atoms: P_91  and  O_89 
ROOT
HETATM    1  C   UNK N   1      29.147  14.208   3.905  0.00  0.00     0.180 C 
HETATM    2  C   UNK N   1      27.994  16.627   3.299  0.00  0.00     0.170 C 
HETATM    3  C   UNK N   1      27.756  13.991   3.301  0.00  0.00     0.196 C 
HETATM    4  C   UNK N   1      27.185  15.382   2.820  0.00  0.00     0.181 C 
HETATM    5  C   UNK N   1      29.510  16.345   3.003  0.00  0.00     0.285 C 
HETATM    6  O   UNK N   1      29.939  14.984   3.039  0.00  0.00    -0.349 OA
ENDROOT
BRANCH   5   7
HETATM    7  O   UNK N   1      30.357  17.159   3.766  0.00  0.00    -0.356 OA
BRANCH   7   8
HETATM    8  C   UNK N   1      31.684  16.673   3.662  0.00  0.00     0.205 C 
BRANCH   8   9
HETATM    9  C   UNK N   1      32.138  16.185   4.984  0.00  0.00     0.180 C 
HETATM   10  C   UNK N   1      33.659  16.011   4.815  0.00  0.00     0.180 C 
HETATM   11  C   UNK N   1      34.361  15.805   6.161  0.00  0.00     0.180 C 
HETATM   12  C   UNK N   1      33.897  17.050   7.016  0.00  0.00     0.170 C 
HETATM   13  C   UNK N   1      32.368  16.904   7.169  0.00  0.00     0.297 C 
HETATM   14  O   UNK N   1      31.747  17.163   5.934  0.00  0.00    -0.348 OA
BRANCH  10  15
HETATM   15  O   UNK N   1      33.872  14.980   3.899  0.00  0.00    -0.390 OA
HETATM   16  H   UNK N   1      34.509  14.272   4.086  0.00  0.00     0.210 HD
ENDBRANCH  10  15
BRANCH  11  17
HETATM   17  O   UNK N   1      35.765  15.742   5.977  0.00  0.00    -0.381 OA
BRANCH  17  18
HETATM   18  C   UNK N   1      36.312  14.556   6.537  0.00  0.00     0.168 C 
BRANCH  18  19
HETATM   19  C   UNK N   1      35.391  13.328   6.478  0.00  0.00     0.026 C 
BRANCH  19  20
HETATM   20  C   UNK N   1      35.646  12.296   7.587  0.00  0.00     0.002 C 
BRANCH  20  21
HETATM   21  C   UNK N   1      34.515  11.284   7.766  0.00  0.00     0.000 C 
BRANCH  21  22
HETATM   22  C   UNK N   1      33.523  11.710   8.832  0.00  0.00     0.000 C 
BRANCH  22  23
HETATM   23  C   UNK N   1      33.847  10.988  10.119  0.00  0.00     0.000 C 
BRANCH  23  24
HETATM   24  C   UNK N   1      34.247   9.561   9.803  0.00  0.00     0.000 C 
BRANCH  24  25
HETATM   25  C   UNK N   1      33.158   8.599  10.240  0.00  0.00    -0.000 C 
BRANCH  25  26
HETATM   26  C   UNK N   1      33.755   7.363  10.887  0.00  0.00    -0.005 C 
HETATM   27  C   UNK N   1      34.806   7.785  11.892  0.00  0.00     0.005 C 
ENDBRANCH  25  26
ENDBRANCH  24  25
ENDBRANCH  23  24
ENDBRANCH  22  23
ENDBRANCH  21  22
ENDBRANCH  20  21
ENDBRANCH  19  20
ENDBRANCH  18  19
ENDBRANCH  17  18
ENDBRANCH  11  17
BRANCH  12  28
HETATM   28  N   UNK N   1      34.484  17.365   8.315  0.00  0.00    -0.362 N 
HETATM   29  C   UNK N   1      34.733  16.689   9.365  0.00  0.00     0.118 C 
ATOM     30  HN  UNK N   1      34.757  18.344   8.400  1.00  0.00     0.162 HD
BRANCH  29  31
HETATM   31  C   UNK N   1      34.389  15.241   9.548  0.00  0.00     0.162 C 
BRANCH  31  32
HETATM   32  C   UNK N   1      34.976  14.639  10.792  0.00  0.00     0.134 C 
HETATM   33  O   UNK N   1      34.311  14.637  11.815  0.00  0.00    -0.298 OA
BRANCH  32  34
HETATM   34  C   UNK N   1      36.319  13.968  10.784  0.00  0.00     0.079 C 
BRANCH  34  35
HETATM   35  C   UNK N   1      36.622  13.347  12.138  0.00  0.00     0.007 C 
BRANCH  35  36
HETATM   36  C   UNK N   1      36.837  11.844  12.013  0.00  0.00     0.000 C 
BRANCH  36  37
HETATM   37  C   UNK N   1      37.664  11.326  13.180  0.00  0.00     0.000 C 
BRANCH  37  38
HETATM   38  C   UNK N   1      37.031  10.081  13.760  0.00  0.00     0.000 C 
BRANCH  38  39
HETATM   39  C   UNK N   1      37.493   9.871  15.190  0.00  0.00     0.000 C 
BRANCH  39  40
HETATM   40  C   UNK N   1      36.591  10.600  16.180  0.00  0.00     0.000 C 
BRANCH  40  41
HETATM   41  C   UNK N   1      35.154  10.652  15.669  0.00  0.00     0.000 C 
BRANCH  41  42
HETATM   42  C   UNK N   1      34.636  12.075  15.529  0.00  0.00    -0.000 C 
BRANCH  42  43
HETATM   43  C   UNK N   1      35.527  13.085  16.235  0.00  0.00    -0.005 C 
HETATM   44  C   UNK N   1      34.992  13.357  17.627  0.00  0.00     0.005 C 
ENDBRANCH  42  43
ENDBRANCH  41  42
ENDBRANCH  40  41
ENDBRANCH  39  40
ENDBRANCH  38  39
ENDBRANCH  37  38
ENDBRANCH  36  37
ENDBRANCH  35  36
ENDBRANCH  34  35
ENDBRANCH  32  34
ENDBRANCH  31  32
ENDBRANCH  29  31
BRANCH  29  45
HETATM   45  O   UNK N   1      35.401  17.300  10.364  0.00  0.00    -0.349 OA
HETATM   46  H   UNK N   1      34.961  17.680  11.099  0.00  0.00     0.219 HD
ENDBRANCH  29  45
ENDBRANCH  12  28
BRANCH  13  47
HETATM   47  O   UNK N   1      31.760  17.618   8.223  0.00  0.00    -0.264 OA
BRANCH  47  48
HETATM   48  P   UNK N   1      30.046  17.389   8.512  0.00  0.00     0.393 P 
HETATM   49  O   UNK N   1      29.641  17.188   9.996  0.00  0.00    -0.631 OA
BRANCH  48  50
HETATM   50  O   UNK N   1      29.072  16.486   7.390  0.00  0.00    -0.307 OA
HETATM   51  H   UNK N   1      28.652  15.679   7.054  0.00  0.00     0.222 HD
ENDBRANCH  48  50
BRANCH  48  52
HETATM   52  O   UNK N   1      29.501  19.001   8.239  0.00  0.00    -0.307 OA
HETATM   53  H   UNK N   1      29.716  19.600   7.507  0.00  0.00     0.222 HD
ENDBRANCH  48  52
ENDBRANCH  47  48
ENDBRANCH  13  47
ENDBRANCH   8   9
ENDBRANCH   7   8
ENDBRANCH   5   7
BRANCH   2  54
HETATM   54  N   UNK N   1      27.733  16.952   4.701  0.00  0.00    -0.362 N 
HETATM   55  C   UNK N   1      27.158  18.033   5.149  0.00  0.00     0.111 C 
ATOM     56  HN  UNK N   1      28.029  16.267   5.396  1.00  0.00     0.162 HD
BRANCH  55  57
HETATM   57  C   UNK N   1      26.714  19.176   4.266  0.00  0.00     0.083 C 
BRANCH  57  58
HETATM   58  C   UNK N   1      25.347  19.751   4.568  0.00  0.00     0.008 C 
BRANCH  58  59
HETATM   59  C   UNK N   1      24.429  19.383   3.428  0.00  0.00     0.000 C 
BRANCH  59  60
HETATM   60  C   UNK N   1      23.614  18.165   3.811  0.00  0.00     0.000 C 
BRANCH  60  61
HETATM   61  C   UNK N   1      23.157  18.185   5.272  0.00  0.00     0.000 C 
BRANCH  61  62
HETATM   62  C   UNK N   1      21.661  18.428   5.414  0.00  0.00     0.000 C 
BRANCH  62  63
HETATM   63  C   UNK N   1      21.148  17.981   6.773  0.00  0.00     0.000 C 
BRANCH  63  64
HETATM   64  C   UNK N   1      20.511  16.603   6.677  0.00  0.00     0.004 C 
BRANCH  64  65
HETATM   65  C   UNK N   1      21.469  15.482   7.066  0.00  0.00     0.027 C 
BRANCH  65  66
HETATM   66  C   UNK N   1      20.883  14.135   6.733  0.00  0.00    -0.031 C 
HETATM   67  C   UNK N   1      21.072  13.072   7.516  0.00  0.00    -0.031 C 
BRANCH  67  68
HETATM   68  C   UNK N   1      21.887  13.160   8.768  0.00  0.00     0.027 C 
BRANCH  68  69
HETATM   69  C   UNK N   1      20.990  13.094   9.992  0.00  0.00     0.004 C 
BRANCH  69  70
HETATM   70  C   UNK N   1      21.636  12.210  11.048  0.00  0.00     0.000 C 
BRANCH  70  71
HETATM   71  C   UNK N   1      23.029  11.776  10.635  0.00  0.00    -0.000 C 
BRANCH  71  72
HETATM   72  C   UNK N   1      23.984  11.869  11.810  0.00  0.00    -0.005 C 
HETATM   73  C   UNK N   1      23.199  11.946  13.104  0.00  0.00     0.005 C 
ENDBRANCH  71  72
ENDBRANCH  70  71
ENDBRANCH  69  70
ENDBRANCH  68  69
ENDBRANCH  67  68
ENDBRANCH  65  66
ENDBRANCH  64  65
ENDBRANCH  63  64
ENDBRANCH  62  63
ENDBRANCH  61  62
ENDBRANCH  60  61
ENDBRANCH  59  60
ENDBRANCH  58  59
ENDBRANCH  57  58
ENDBRANCH  55  57
BRANCH  55  74
HETATM   74  O   UNK N   1      27.024  18.193   6.477  0.00  0.00    -0.350 OA
HETATM   75  H   UNK N   1      26.732  18.339   7.355  0.00  0.00     0.219 HD
ENDBRANCH  55  74
ENDBRANCH   2  54
BRANCH   4  76
HETATM   76  O   UNK N   1      25.776  15.522   2.937  0.00  0.00    -0.381 OA
BRANCH  76  77
HETATM   77  C   UNK N   1      25.177  15.035   1.761  0.00  0.00     0.171 C 
BRANCH  77  78
HETATM   78  C   UNK N   1      23.859  14.328   1.999  0.00  0.00     0.058 C 
BRANCH  78  79
HETATM   79  C   UNK N   1      22.883  14.305   0.825  0.00  0.00     0.122 C 
BRANCH  79  80
HETATM   80  C   UNK N   1      21.536  14.879   1.247  0.00  0.00     0.032 C 
BRANCH  80  81
HETATM   81  C   UNK N   1      21.518  15.248   2.726  0.00  0.00     0.002 C 
BRANCH  81  82
HETATM   82  C   UNK N   1      20.361  16.194   3.021  0.00  0.00     0.000 C 
BRANCH  82  83
HETATM   83  C   UNK N   1      20.143  17.149   1.854  0.00  0.00     0.000 C 
BRANCH  83  84
HETATM   84  C   UNK N   1      19.777  18.523   2.369  0.00  0.00    -0.000 C 
BRANCH  84  85
HETATM   85  C   UNK N   1      20.697  19.557   1.753  0.00  0.00    -0.005 C 
HETATM   86  C   UNK N   1      20.875  20.706   2.717  0.00  0.00     0.005 C 
ENDBRANCH  84  85
ENDBRANCH  83  84
ENDBRANCH  82  83
ENDBRANCH  81  82
ENDBRANCH  80  81
ENDBRANCH  79  80
BRANCH  79  87
HETATM   87  O   UNK N   1      22.699  13.014   0.286  0.00  0.00    -0.391 OA
HETATM   88  C   UNK N   1      22.604  12.099   1.346  0.00  0.00     0.202 C 
ENDBRANCH  79  87
ENDBRANCH  78  79
ENDBRANCH  77  78
ENDBRANCH  76  77
ENDBRANCH   4  76
BRANCH   1  89
HETATM   89  C   UNK N   1      29.896  12.942   4.293  0.00  0.00     0.201 C 
BRANCH  89  90
HETATM   90  O   UNK N   1      30.764  13.158   5.359  0.00  0.00    -0.393 OA
HETATM   91  C   UNK N   1      31.849  12.341   5.056  0.00  0.00     0.201 C 
ENDBRANCH  89  90
ENDBRANCH   1  89
BRANCH   3  92
HETATM   92  O   UNK N   1      26.954  13.399   4.302  0.00  0.00    -0.286 OA
BRANCH  92  93
HETATM   93  P   UNK N   1      26.304  11.854   3.779  0.00  0.00     0.391 P 
HETATM   94  O   UNK N   1      24.838  11.791   4.278  0.00  0.00    -0.632 OA
BRANCH  93  95
HETATM   95  O   UNK N   1      26.259  11.620   2.058  0.00  0.00    -0.307 OA
HETATM   96  H   UNK N   1      26.378  12.097   1.222  0.00  0.00     0.222 HD
ENDBRANCH  93  95
BRANCH  93  97
HETATM   97  O   UNK N   1      27.146  10.546   4.547  0.00  0.00    -0.307 OA
HETATM   98  H   UNK N   1      27.319   9.599   4.675  0.00  0.00     0.222 HD
ENDBRANCH  93  97
ENDBRANCH  92  93
ENDBRANCH   3  92
TORSDOF 66
ENDMDL
