MODEL 1
REMARK VINA RESULT:      -8.4      0.000      0.000
REMARK  6 active torsions:
REMARK  status: ('A' for Active; 'I' for Inactive)
REMARK    1  A    between atoms: N_2  and  C_11 
REMARK    2  A    between atoms: C_4  and  C_9 
REMARK    3  A    between atoms: C_9  and  C_10 
REMARK    4  A    between atoms: C_10  and  C_12 
REMARK    5  A    between atoms: C_11  and  C_13 
REMARK    6  A    between atoms: C_12  and  C_14 
ROOT
HETATM    1  C   UNK N   1      35.742  14.927  10.271  0.00  0.00     0.084 C 
ENDROOT
BRANCH   1   2
HETATM    2  C   UNK N   1      34.629  14.250  11.072  0.00  0.00     0.012 C 
BRANCH   2   3
HETATM    3  C   UNK N   1      35.113  13.751  12.433  0.00  0.00    -0.011 C 
HETATM    4  C   UNK N   1      36.106  14.727  13.057  0.00  0.00     0.035 C 
HETATM    5  C   UNK N   1      36.625  14.257  14.427  0.00  0.00     0.273 C 
HETATM    6  N   UNK N   1      36.471  12.816  14.667  0.00  0.00     0.092 N 
HETATM    7  C   UNK N   1      36.712  12.040  13.436  0.00  0.00     0.273 C 
HETATM    8  C   UNK N   1      35.700  12.343  12.325  0.00  0.00     0.035 C 
BRANCH   6   9
HETATM    9  C   UNK N   1      35.159  12.595  15.294  0.00  0.00     0.311 C 
BRANCH   9  10
HETATM   10  C   UNK N   1      35.226  12.384  16.773  0.00  0.00    -0.030 A 
HETATM   11  C   UNK N   1      35.504  11.106  17.264  0.00  0.00     0.009 A 
HETATM   12  C   UNK N   1      35.606  10.890  18.640  0.00  0.00     0.001 A 
HETATM   13  C   UNK N   1      35.434  11.957  19.528  0.00  0.00     0.000 A 
HETATM   14  C   UNK N   1      35.153  13.237  19.038  0.00  0.00     0.001 A 
HETATM   15  C   UNK N   1      35.048  13.453  17.661  0.00  0.00     0.009 A 
ENDBRANCH   9  10
ENDBRANCH   6   9
ENDBRANCH   2   3
ENDBRANCH   1   2
BRANCH   1  16
HETATM   16  C   UNK N   1      35.346  16.311   9.861  0.00  0.00     0.159 C 
HETATM   17  O   UNK N   1      35.679  17.253  10.565  0.00  0.00    -0.292 OA
BRANCH  16  18
HETATM   18  C   UNK N   1      34.543  16.549   8.638  0.00  0.00     0.012 A 
HETATM   19  C   UNK N   1      34.576  15.636   7.579  0.00  0.00     0.044 A 
HETATM   20  C   UNK N   1      33.822  15.848   6.418  0.00  0.00     0.035 A 
HETATM   21  N   UNK N   1      33.920  14.881   5.382  0.00  0.00    -0.389 N 
HETATM   22  C   UNK N   1      32.994  16.998   6.331  0.00  0.00    -0.032 A 
HETATM   23  C   UNK N   1      34.076  15.202   3.979  0.00  0.00     0.119 C 
HETATM   24  H   UNK N   1      33.880  13.930   5.634  0.00  0.00     0.159 HD
HETATM   25  C   UNK N   1      32.851  15.852   3.372  0.00  0.00     0.020 C 
HETATM   26  C   UNK N   1      32.740  17.279   3.853  0.00  0.00     0.006 C 
HETATM   27  C   UNK N   1      32.056  17.257   5.196  0.00  0.00     0.041 C 
HETATM   28  C   UNK N   1      32.972  17.908   7.390  0.00  0.00     0.010 A 
HETATM   29  C   UNK N   1      33.746  17.691   8.525  0.00  0.00     0.016 A 
ENDBRANCH  16  18
ENDBRANCH   1  16
TORSDOF 6
ENDMDL
MODEL 2
REMARK VINA RESULT:      -8.4      1.443      2.013
REMARK  6 active torsions:
REMARK  status: ('A' for Active; 'I' for Inactive)
REMARK    1  A    between atoms: N_2  and  C_11 
REMARK    2  A    between atoms: C_4  and  C_9 
REMARK    3  A    between atoms: C_9  and  C_10 
REMARK    4  A    between atoms: C_10  and  C_12 
REMARK    5  A    between atoms: C_11  and  C_13 
REMARK    6  A    between atoms: C_12  and  C_14 
ROOT
HETATM    1  C   UNK N   1      35.386  15.225   9.851  0.00  0.00     0.084 C 
ENDROOT
BRANCH   1   2
HETATM    2  C   UNK N   1      34.297  14.556  10.691  0.00  0.00     0.012 C 
BRANCH   2   3
HETATM    3  C   UNK N   1      34.826  14.047  12.031  0.00  0.00    -0.011 C 
HETATM    4  C   UNK N   1      35.943  14.941  12.560  0.00  0.00     0.035 C 
HETATM    5  C   UNK N   1      36.510  14.456  13.905  0.00  0.00     0.273 C 
HETATM    6  N   UNK N   1      36.244  13.041  14.196  0.00  0.00     0.092 N 
HETATM    7  C   UNK N   1      36.329  12.218  12.974  0.00  0.00     0.273 C 
HETATM    8  C   UNK N   1      35.275  12.588  11.925  0.00  0.00     0.035 C 
BRANCH   6   9
HETATM    9  C   UNK N   1      34.963  12.955  14.915  0.00  0.00     0.311 C 
BRANCH   9  10
HETATM   10  C   UNK N   1      35.102  12.552  16.348  0.00  0.00    -0.030 A 
HETATM   11  C   UNK N   1      35.351  11.212  16.654  0.00  0.00     0.009 A 
HETATM   12  C   UNK N   1      35.519  10.816  17.982  0.00  0.00     0.001 A 
HETATM   13  C   UNK N   1      35.442  11.764  19.008  0.00  0.00     0.000 A 
HETATM   14  C   UNK N   1      35.191  13.105  18.703  0.00  0.00     0.001 A 
HETATM   15  C   UNK N   1      35.019  13.502  17.374  0.00  0.00     0.009 A 
ENDBRANCH   9  10
ENDBRANCH   6   9
ENDBRANCH   2   3
ENDBRANCH   1   2
BRANCH   1  16
HETATM   16  C   UNK N   1      34.972  16.599   9.424  0.00  0.00     0.159 C 
HETATM   17  O   UNK N   1      35.371  17.560  10.065  0.00  0.00    -0.292 OA
BRANCH  16  18
HETATM   18  C   UNK N   1      34.074  16.803   8.263  0.00  0.00     0.012 A 
HETATM   19  C   UNK N   1      32.723  17.110   8.456  0.00  0.00     0.044 A 
HETATM   20  C   UNK N   1      31.863  17.306   7.368  0.00  0.00     0.035 A 
HETATM   21  N   UNK N   1      30.502  17.602   7.647  0.00  0.00    -0.389 N 
HETATM   22  C   UNK N   1      32.383  17.212   6.050  0.00  0.00    -0.032 A 
HETATM   23  C   UNK N   1      29.379  16.987   6.973  0.00  0.00     0.119 C 
HETATM   24  H   UNK N   1      30.310  18.269   8.345  0.00  0.00     0.159 HD
HETATM   25  C   UNK N   1      29.257  17.391   5.520  0.00  0.00     0.020 C 
HETATM   26  C   UNK N   1      30.328  16.704   4.708  0.00  0.00     0.006 C 
HETATM   27  C   UNK N   1      31.587  17.525   4.823  0.00  0.00     0.041 C 
HETATM   28  C   UNK N   1      33.731  16.898   5.866  0.00  0.00     0.010 A 
HETATM   29  C   UNK N   1      34.563  16.684   6.960  0.00  0.00     0.016 A 
ENDBRANCH  16  18
ENDBRANCH   1  16
TORSDOF 6
ENDMDL
MODEL 3
REMARK VINA RESULT:      -8.0     18.205     21.851
REMARK  6 active torsions:
REMARK  status: ('A' for Active; 'I' for Inactive)
REMARK    1  A    between atoms: N_2  and  C_11 
REMARK    2  A    between atoms: C_4  and  C_9 
REMARK    3  A    between atoms: C_9  and  C_10 
REMARK    4  A    between atoms: C_10  and  C_12 
REMARK    5  A    between atoms: C_11  and  C_13 
REMARK    6  A    between atoms: C_12  and  C_14 
ROOT
HETATM    1  C   UNK N   1      31.382  22.642  -4.060  0.00  0.00     0.084 C 
ENDROOT
BRANCH   1   2
HETATM    2  C   UNK N   1      30.779  21.344  -4.601  0.00  0.00     0.012 C 
BRANCH   2   3
HETATM    3  C   UNK N   1      29.863  21.583  -5.800  0.00  0.00    -0.011 C 
HETATM    4  C   UNK N   1      29.798  20.352  -6.699  0.00  0.00     0.035 C 
HETATM    5  C   UNK N   1      28.891  20.555  -7.925  0.00  0.00     0.273 C 
HETATM    6  N   UNK N   1      28.647  21.963  -8.267  0.00  0.00     0.092 N 
HETATM    7  C   UNK N   1      29.853  22.783  -8.048  0.00  0.00     0.273 C 
HETATM    8  C   UNK N   1      30.293  22.828  -6.580  0.00  0.00     0.035 C 
BRANCH   6   9
HETATM    9  C   UNK N   1      27.450  22.410  -7.538  0.00  0.00     0.311 C 
BRANCH   9  10
HETATM   10  C   UNK N   1      26.841  23.660  -8.088  0.00  0.00    -0.030 A 
HETATM   11  C   UNK N   1      26.933  24.842  -7.348  0.00  0.00     0.009 A 
HETATM   12  C   UNK N   1      26.403  26.029  -7.855  0.00  0.00     0.001 A 
HETATM   13  C   UNK N   1      25.782  26.037  -9.108  0.00  0.00     0.000 A 
HETATM   14  C   UNK N   1      25.687  24.855  -9.849  0.00  0.00     0.001 A 
HETATM   15  C   UNK N   1      26.215  23.664  -9.340  0.00  0.00     0.009 A 
ENDBRANCH   9  10
ENDBRANCH   6   9
ENDBRANCH   2   3
ENDBRANCH   1   2
BRANCH   1  16
HETATM   16  C   UNK N   1      30.536  23.215  -2.966  0.00  0.00     0.159 C 
HETATM   17  O   UNK N   1      30.819  22.956  -1.805  0.00  0.00    -0.292 OA
BRANCH  16  18
HETATM   18  C   UNK N   1      29.360  24.063  -3.270  0.00  0.00     0.012 A 
HETATM   19  C   UNK N   1      29.519  25.289  -3.924  0.00  0.00     0.044 A 
HETATM   20  C   UNK N   1      28.416  26.101  -4.218  0.00  0.00     0.035 A 
HETATM   21  N   UNK N   1      28.662  27.338  -4.872  0.00  0.00    -0.389 N 
HETATM   22  C   UNK N   1      27.115  25.655  -3.864  0.00  0.00    -0.032 A 
HETATM   23  C   UNK N   1      28.055  28.595  -4.493  0.00  0.00     0.119 C 
HETATM   24  H   UNK N   1      29.287  27.340  -5.634  0.00  0.00     0.159 HD
HETATM   25  C   UNK N   1      26.568  28.651  -4.766  0.00  0.00     0.020 C 
HETATM   26  C   UNK N   1      25.832  27.806  -3.754  0.00  0.00     0.006 C 
HETATM   27  C   UNK N   1      25.862  26.379  -4.240  0.00  0.00     0.041 C 
HETATM   28  C   UNK N   1      26.965  24.433  -3.205  0.00  0.00     0.010 A 
HETATM   29  C   UNK N   1      28.077  23.653  -2.902  0.00  0.00     0.016 A 
ENDBRANCH  16  18
ENDBRANCH   1  16
TORSDOF 6
ENDMDL
MODEL 4
REMARK VINA RESULT:      -7.9     17.747     21.811
REMARK  6 active torsions:
REMARK  status: ('A' for Active; 'I' for Inactive)
REMARK    1  A    between atoms: N_2  and  C_11 
REMARK    2  A    between atoms: C_4  and  C_9 
REMARK    3  A    between atoms: C_9  and  C_10 
REMARK    4  A    between atoms: C_10  and  C_12 
REMARK    5  A    between atoms: C_11  and  C_13 
REMARK    6  A    between atoms: C_12  and  C_14 
ROOT
HETATM    1  C   UNK N   1      26.673  27.297  -6.303  0.00  0.00     0.084 C 
ENDROOT
BRANCH   1   2
HETATM    2  C   UNK N   1      25.547  26.404  -6.824  0.00  0.00     0.012 C 
BRANCH   2   3
HETATM    3  C   UNK N   1      26.073  25.162  -7.543  0.00  0.00    -0.011 C 
HETATM    4  C   UNK N   1      25.546  25.087  -8.973  0.00  0.00     0.035 C 
HETATM    5  C   UNK N   1      26.047  23.844  -9.729  0.00  0.00     0.273 C 
HETATM    6  N   UNK N   1      26.514  22.757  -8.858  0.00  0.00     0.092 N 
HETATM    7  C   UNK N   1      25.680  22.647  -7.646  0.00  0.00     0.273 C 
HETATM    8  C   UNK N   1      25.746  23.892  -6.755  0.00  0.00     0.035 C 
BRANCH   6   9
HETATM    9  C   UNK N   1      27.950  22.957  -8.609  0.00  0.00     0.311 C 
BRANCH   9  10
HETATM   10  C   UNK N   1      28.638  21.753  -8.051  0.00  0.00    -0.030 A 
HETATM   11  C   UNK N   1      28.582  20.550  -8.760  0.00  0.00     0.009 A 
HETATM   12  C   UNK N   1      29.245  19.420  -8.278  0.00  0.00     0.001 A 
HETATM   13  C   UNK N   1      29.970  19.493  -7.084  0.00  0.00     0.000 A 
HETATM   14  C   UNK N   1      30.025  20.695  -6.371  0.00  0.00     0.001 A 
HETATM   15  C   UNK N   1      29.358  21.826  -6.852  0.00  0.00     0.009 A 
ENDBRANCH   9  10
ENDBRANCH   6   9
ENDBRANCH   2   3
ENDBRANCH   1   2
BRANCH   1  16
HETATM   16  C   UNK N   1      26.818  27.171  -4.818  0.00  0.00     0.159 C 
HETATM   17  O   UNK N   1      26.360  28.052  -4.105  0.00  0.00    -0.292 OA
BRANCH  16  18
HETATM   18  C   UNK N   1      27.523  26.018  -4.211  0.00  0.00     0.012 A 
HETATM   19  C   UNK N   1      28.910  25.889  -4.335  0.00  0.00     0.044 A 
HETATM   20  C   UNK N   1      29.590  24.804  -3.767  0.00  0.00     0.035 A 
HETATM   21  N   UNK N   1      30.998  24.739  -3.950  0.00  0.00    -0.389 N 
HETATM   22  C   UNK N   1      28.856  23.836  -3.032  0.00  0.00    -0.032 A 
HETATM   23  C   UNK N   1      31.716  23.538  -4.320  0.00  0.00     0.119 C 
HETATM   24  H   UNK N   1      31.519  25.563  -3.815  0.00  0.00     0.159 HD
HETATM   25  C   UNK N   1      31.722  22.483  -3.236  0.00  0.00     0.020 C 
HETATM   26  C   UNK N   1      30.361  21.835  -3.147  0.00  0.00     0.006 C 
HETATM   27  C   UNK N   1      29.493  22.711  -2.281  0.00  0.00     0.041 C 
HETATM   28  C   UNK N   1      27.471  23.968  -2.919  0.00  0.00     0.010 A 
HETATM   29  C   UNK N   1      26.812  25.041  -3.511  0.00  0.00     0.016 A 
ENDBRANCH  16  18
ENDBRANCH   1  16
TORSDOF 6
ENDMDL
MODEL 5
REMARK VINA RESULT:      -7.8     17.912     21.292
REMARK  6 active torsions:
REMARK  status: ('A' for Active; 'I' for Inactive)
REMARK    1  A    between atoms: N_2  and  C_11 
REMARK    2  A    between atoms: C_4  and  C_9 
REMARK    3  A    between atoms: C_9  and  C_10 
REMARK    4  A    between atoms: C_10  and  C_12 
REMARK    5  A    between atoms: C_11  and  C_13 
REMARK    6  A    between atoms: C_12  and  C_14 
ROOT
HETATM    1  C   UNK N   1      30.406  21.758  -3.461  0.00  0.00     0.084 C 
ENDROOT
BRANCH   1   2
HETATM    2  C   UNK N   1      31.372  22.034  -4.615  0.00  0.00     0.012 C 
BRANCH   2   3
HETATM    3  C   UNK N   1      30.697  21.914  -5.980  0.00  0.00    -0.011 C 
HETATM    4  C   UNK N   1      30.088  20.528  -6.175  0.00  0.00     0.035 C 
HETATM    5  C   UNK N   1      29.405  20.363  -7.544  0.00  0.00     0.273 C 
HETATM    6  N   UNK N   1      29.849  21.328  -8.559  0.00  0.00     0.092 N 
HETATM    7  C   UNK N   1      31.293  21.605  -8.438  0.00  0.00     0.273 C 
HETATM    8  C   UNK N   1      31.671  22.264  -7.107  0.00  0.00     0.035 C 
BRANCH   6   9
HETATM    9  C   UNK N   1      28.980  22.512  -8.474  0.00  0.00     0.311 C 
BRANCH   9  10
HETATM   10  C   UNK N   1      27.547  22.188  -8.193  0.00  0.00    -0.030 A 
HETATM   11  C   UNK N   1      26.860  21.339  -9.065  0.00  0.00     0.009 A 
HETATM   12  C   UNK N   1      25.533  20.994  -8.806  0.00  0.00     0.001 A 
HETATM   13  C   UNK N   1      24.890  21.496  -7.670  0.00  0.00     0.000 A 
HETATM   14  C   UNK N   1      25.575  22.348  -6.798  0.00  0.00     0.001 A 
HETATM   15  C   UNK N   1      26.904  22.696  -7.058  0.00  0.00     0.009 A 
ENDBRANCH   9  10
ENDBRANCH   6   9
ENDBRANCH   2   3
ENDBRANCH   1   2
BRANCH   1  16
HETATM   16  C   UNK N   1      30.151  22.997  -2.661  0.00  0.00     0.159 C 
HETATM   17  O   UNK N   1      30.464  23.011  -1.480  0.00  0.00    -0.292 OA
BRANCH  16  18
HETATM   18  C   UNK N   1      29.510  24.185  -3.272  0.00  0.00     0.012 A 
HETATM   19  C   UNK N   1      28.128  24.214  -3.487  0.00  0.00     0.044 A 
HETATM   20  C   UNK N   1      27.509  25.330  -4.063  0.00  0.00     0.035 A 
HETATM   21  N   UNK N   1      26.103  25.275  -4.261  0.00  0.00    -0.389 N 
HETATM   22  C   UNK N   1      28.299  26.458  -4.410  0.00  0.00    -0.032 A 
HETATM   23  C   UNK N   1      25.434  25.693  -5.475  0.00  0.00     0.119 C 
HETATM   24  H   UNK N   1      25.547  24.932  -3.525  0.00  0.00     0.159 HD
HETATM   25  C   UNK N   1      25.494  27.187  -5.710  0.00  0.00     0.020 C 
HETATM   26  C   UNK N   1      26.885  27.577  -6.151  0.00  0.00     0.006 C 
HETATM   27  C   UNK N   1      27.727  27.745  -4.912  0.00  0.00     0.041 C 
HETATM   28  C   UNK N   1      29.678  26.419  -4.198  0.00  0.00     0.010 A 
HETATM   29  C   UNK N   1      30.278  25.291  -3.646  0.00  0.00     0.016 A 
ENDBRANCH  16  18
ENDBRANCH   1  16
TORSDOF 6
ENDMDL
MODEL 6
REMARK VINA RESULT:      -7.7      1.912      3.036
REMARK  6 active torsions:
REMARK  status: ('A' for Active; 'I' for Inactive)
REMARK    1  A    between atoms: N_2  and  C_11 
REMARK    2  A    between atoms: C_4  and  C_9 
REMARK    3  A    between atoms: C_9  and  C_10 
REMARK    4  A    between atoms: C_10  and  C_12 
REMARK    5  A    between atoms: C_11  and  C_13 
REMARK    6  A    between atoms: C_12  and  C_14 
ROOT
HETATM    1  C   UNK N   1      34.042  16.760   9.355  0.00  0.00     0.084 C 
ENDROOT
BRANCH   1   2
HETATM    2  C   UNK N   1      35.302  16.949  10.201  0.00  0.00     0.012 C 
BRANCH   2   3
HETATM    3  C   UNK N   1      35.627  15.718  11.045  0.00  0.00    -0.011 C 
HETATM    4  C   UNK N   1      36.809  14.946  10.464  0.00  0.00     0.035 C 
HETATM    5  C   UNK N   1      37.162  13.692  11.282  0.00  0.00     0.273 C 
HETATM    6  N   UNK N   1      36.074  13.205  12.140  0.00  0.00     0.092 N 
HETATM    7  C   UNK N   1      34.763  13.360  11.482  0.00  0.00     0.273 C 
HETATM    8  C   UNK N   1      34.396  14.823  11.207  0.00  0.00     0.035 C 
BRANCH   6   9
HETATM    9  C   UNK N   1      36.194  13.867  13.449  0.00  0.00     0.311 C 
BRANCH   9  10
HETATM   10  C   UNK N   1      36.092  12.930  14.609  0.00  0.00    -0.030 A 
HETATM   11  C   UNK N   1      36.781  11.715  14.563  0.00  0.00     0.009 A 
HETATM   12  C   UNK N   1      36.729  10.838  15.648  0.00  0.00     0.001 A 
HETATM   13  C   UNK N   1      35.989  11.178  16.785  0.00  0.00     0.000 A 
HETATM   14  C   UNK N   1      35.297  12.392  16.833  0.00  0.00     0.001 A 
HETATM   15  C   UNK N   1      35.346  13.270  15.745  0.00  0.00     0.009 A 
ENDBRANCH   9  10
ENDBRANCH   6   9
ENDBRANCH   2   3
ENDBRANCH   1   2
BRANCH   1  16
HETATM   16  C   UNK N   1      34.015  17.719   8.206  0.00  0.00     0.159 C 
HETATM   17  O   UNK N   1      34.686  18.738   8.272  0.00  0.00    -0.292 OA
BRANCH  16  18
HETATM   18  C   UNK N   1      33.173  17.462   7.013  0.00  0.00     0.012 A 
HETATM   19  C   UNK N   1      31.815  17.161   7.154  0.00  0.00     0.044 A 
HETATM   20  C   UNK N   1      31.008  16.917   6.036  0.00  0.00     0.035 A 
HETATM   21  N   UNK N   1      29.641  16.605   6.264  0.00  0.00    -0.389 N 
HETATM   22  C   UNK N   1      31.580  17.000   4.739  0.00  0.00    -0.032 A 
HETATM   23  C   UNK N   1      28.928  15.535   5.601  0.00  0.00     0.119 C 
HETATM   24  H   UNK N   1      29.146  17.152   6.916  0.00  0.00     0.159 HD
HETATM   25  C   UNK N   1      28.712  15.781   4.124  0.00  0.00     0.020 C 
HETATM   26  C   UNK N   1      30.013  15.593   3.380  0.00  0.00     0.006 C 
HETATM   27  C   UNK N   1      30.787  16.882   3.477  0.00  0.00     0.041 C 
HETATM   28  C   UNK N   1      32.938  17.294   4.607  0.00  0.00     0.010 A 
HETATM   29  C   UNK N   1      33.728  17.511   5.732  0.00  0.00     0.016 A 
ENDBRANCH  16  18
ENDBRANCH   1  16
TORSDOF 6
ENDMDL
MODEL 7
REMARK VINA RESULT:      -7.6      1.622      2.290
REMARK  6 active torsions:
REMARK  status: ('A' for Active; 'I' for Inactive)
REMARK    1  A    between atoms: N_2  and  C_11 
REMARK    2  A    between atoms: C_4  and  C_9 
REMARK    3  A    between atoms: C_9  and  C_10 
REMARK    4  A    between atoms: C_10  and  C_12 
REMARK    5  A    between atoms: C_11  and  C_13 
REMARK    6  A    between atoms: C_12  and  C_14 
ROOT
HETATM    1  C   UNK N   1      34.997  15.821   9.142  0.00  0.00     0.084 C 
ENDROOT
BRANCH   1   2
HETATM    2  C   UNK N   1      34.013  14.933   9.904  0.00  0.00     0.012 C 
BRANCH   2   3
HETATM    3  C   UNK N   1      34.634  14.317  11.157  0.00  0.00    -0.011 C 
HETATM    4  C   UNK N   1      35.567  15.304  11.852  0.00  0.00     0.035 C 
HETATM    5  C   UNK N   1      36.221  14.719  13.116  0.00  0.00     0.273 C 
HETATM    6  N   UNK N   1      36.225  13.251  13.167  0.00  0.00     0.092 N 
HETATM    7  C   UNK N   1      36.457  12.670  11.832  0.00  0.00     0.273 C 
HETATM    8  C   UNK N   1      35.347  13.004  10.828  0.00  0.00     0.035 C 
BRANCH   6   9
HETATM    9  C   UNK N   1      34.987  12.814  13.829  0.00  0.00     0.311 C 
BRANCH   9  10
HETATM   10  C   UNK N   1      35.188  12.340  15.233  0.00  0.00    -0.030 A 
HETATM   11  C   UNK N   1      34.959  13.228  16.288  0.00  0.00     0.009 A 
HETATM   12  C   UNK N   1      35.107  12.800  17.608  0.00  0.00     0.001 A 
HETATM   13  C   UNK N   1      35.482  11.480  17.876  0.00  0.00     0.000 A 
HETATM   14  C   UNK N   1      35.715  10.591  16.822  0.00  0.00     0.001 A 
HETATM   15  C   UNK N   1      35.569  11.019  15.499  0.00  0.00     0.009 A 
ENDBRANCH   9  10
ENDBRANCH   6   9
ENDBRANCH   2   3
ENDBRANCH   1   2
BRANCH   1  16
HETATM   16  C   UNK N   1      34.356  17.111   8.735  0.00  0.00     0.159 C 
HETATM   17  O   UNK N   1      34.908  18.162   9.026  0.00  0.00    -0.292 OA
BRANCH  16  18
HETATM   18  C   UNK N   1      33.062  17.131   8.013  0.00  0.00     0.012 A 
HETATM   19  C   UNK N   1      32.961  16.602   6.722  0.00  0.00     0.044 A 
HETATM   20  C   UNK N   1      31.744  16.614   6.028  0.00  0.00     0.035 A 
HETATM   21  N   UNK N   1      31.729  16.070   4.716  0.00  0.00    -0.389 N 
HETATM   22  C   UNK N   1      30.592  17.150   6.661  0.00  0.00    -0.032 A 
HETATM   23  C   UNK N   1      31.083  16.697   3.582  0.00  0.00     0.119 C 
HETATM   24  H   UNK N   1      32.186  15.211   4.567  0.00  0.00     0.159 HD
HETATM   25  C   UNK N   1      29.573  16.714   3.685  0.00  0.00     0.020 C 
HETATM   26  C   UNK N   1      29.143  17.742   4.703  0.00  0.00     0.006 C 
HETATM   27  C   UNK N   1      29.222  17.100   6.065  0.00  0.00     0.041 C 
HETATM   28  C   UNK N   1      30.702  17.682   7.947  0.00  0.00     0.010 A 
HETATM   29  C   UNK N   1      31.926  17.682   8.611  0.00  0.00     0.016 A 
ENDBRANCH  16  18
ENDBRANCH   1  16
TORSDOF 6
ENDMDL
MODEL 8
REMARK VINA RESULT:      -7.6     17.780     21.170
REMARK  6 active torsions:
REMARK  status: ('A' for Active; 'I' for Inactive)
REMARK    1  A    between atoms: N_2  and  C_11 
REMARK    2  A    between atoms: C_4  and  C_9 
REMARK    3  A    between atoms: C_9  and  C_10 
REMARK    4  A    between atoms: C_10  and  C_12 
REMARK    5  A    between atoms: C_11  and  C_13 
REMARK    6  A    between atoms: C_12  and  C_14 
ROOT
HETATM    1  C   UNK N   1      31.480  22.344  -3.416  0.00  0.00     0.084 C 
ENDROOT
BRANCH   1   2
HETATM    2  C   UNK N   1      30.818  21.012  -3.771  0.00  0.00     0.012 C 
BRANCH   2   3
HETATM    3  C   UNK N   1      30.744  20.783  -5.280  0.00  0.00    -0.011 C 
HETATM    4  C   UNK N   1      32.115  20.941  -5.931  0.00  0.00     0.035 C 
HETATM    5  C   UNK N   1      32.081  20.727  -7.454  0.00  0.00     0.273 C 
HETATM    6  N   UNK N   1      30.750  20.884  -8.055  0.00  0.00     0.092 N 
HETATM    7  C   UNK N   1      29.995  21.973  -7.405  0.00  0.00     0.273 C 
HETATM    8  C   UNK N   1      29.705  21.705  -5.924  0.00  0.00     0.035 C 
BRANCH   6   9
HETATM    9  C   UNK N   1      30.085  19.572  -8.041  0.00  0.00     0.311 C 
BRANCH   9  10
HETATM   10  C   UNK N   1      30.120  18.865  -9.358  0.00  0.00    -0.030 A 
HETATM   11  C   UNK N   1      29.532  19.473 -10.470  0.00  0.00     0.009 A 
HETATM   12  C   UNK N   1      29.581  18.850 -11.718  0.00  0.00     0.001 A 
HETATM   13  C   UNK N   1      30.224  17.616 -11.856  0.00  0.00     0.000 A 
HETATM   14  C   UNK N   1      30.811  17.004 -10.744  0.00  0.00     0.001 A 
HETATM   15  C   UNK N   1      30.759  17.627  -9.493  0.00  0.00     0.009 A 
ENDBRANCH   9  10
ENDBRANCH   6   9
ENDBRANCH   2   3
ENDBRANCH   1   2
BRANCH   1  16
HETATM   16  C   UNK N   1      30.557  23.208  -2.613  0.00  0.00     0.159 C 
HETATM   17  O   UNK N   1      30.465  23.013  -1.410  0.00  0.00    -0.292 OA
BRANCH  16  18
HETATM   18  C   UNK N   1      29.746  24.268  -3.256  0.00  0.00     0.012 A 
HETATM   19  C   UNK N   1      28.367  24.102  -3.425  0.00  0.00     0.044 A 
HETATM   20  C   UNK N   1      27.588  25.096  -4.031  0.00  0.00     0.035 A 
HETATM   21  N   UNK N   1      26.197  24.845  -4.178  0.00  0.00    -0.389 N 
HETATM   22  C   UNK N   1      28.210  26.299  -4.457  0.00  0.00    -0.032 A 
HETATM   23  C   UNK N   1      25.445  25.108  -5.386  0.00  0.00     0.119 C 
HETATM   24  H   UNK N   1      25.713  24.468  -3.408  0.00  0.00     0.159 HD
HETATM   25  C   UNK N   1      25.298  26.582  -5.693  0.00  0.00     0.020 C 
HETATM   26  C   UNK N   1      26.611  27.131  -6.198  0.00  0.00     0.006 C 
HETATM   27  C   UNK N   1      27.457  27.471  -4.999  0.00  0.00     0.041 C 
HETATM   28  C   UNK N   1      29.587  26.454  -4.291  0.00  0.00     0.010 A 
HETATM   29  C   UNK N   1      30.347  25.445  -3.707  0.00  0.00     0.016 A 
ENDBRANCH  16  18
ENDBRANCH   1  16
TORSDOF 6
ENDMDL
MODEL 9
REMARK VINA RESULT:      -7.6      1.548     10.982
REMARK  6 active torsions:
REMARK  status: ('A' for Active; 'I' for Inactive)
REMARK    1  A    between atoms: N_2  and  C_11 
REMARK    2  A    between atoms: C_4  and  C_9 
REMARK    3  A    between atoms: C_9  and  C_10 
REMARK    4  A    between atoms: C_10  and  C_12 
REMARK    5  A    between atoms: C_11  and  C_13 
REMARK    6  A    between atoms: C_12  and  C_14 
ROOT
HETATM    1  C   UNK N   1      35.173  13.570  12.147  0.00  0.00     0.084 C 
ENDROOT
BRANCH   1   2
HETATM    2  C   UNK N   1      36.120  13.934  11.002  0.00  0.00     0.012 C 
BRANCH   2   3
HETATM    3  C   UNK N   1      35.433  14.771   9.924  0.00  0.00    -0.011 C 
HETATM    4  C   UNK N   1      35.218  16.207  10.393  0.00  0.00     0.035 C 
HETATM    5  C   UNK N   1      34.520  17.082   9.337  0.00  0.00     0.273 C 
HETATM    6  N   UNK N   1      33.783  16.323   8.317  0.00  0.00     0.092 N 
HETATM    7  C   UNK N   1      33.128  15.138   8.902  0.00  0.00     0.273 C 
HETATM    8  C   UNK N   1      34.122  14.122   9.477  0.00  0.00     0.035 C 
BRANCH   6   9
HETATM    9  C   UNK N   1      34.705  16.039   7.206  0.00  0.00     0.311 C 
BRANCH   9  10
HETATM   10  C   UNK N   1      34.102  16.252   5.855  0.00  0.00    -0.030 A 
HETATM   11  C   UNK N   1      34.193  15.233   4.903  0.00  0.00     0.009 A 
HETATM   12  C   UNK N   1      33.609  15.394   3.645  0.00  0.00     0.001 A 
HETATM   13  C   UNK N   1      32.926  16.575   3.339  0.00  0.00     0.000 A 
HETATM   14  C   UNK N   1      32.835  17.597   4.289  0.00  0.00     0.001 A 
HETATM   15  C   UNK N   1      33.423  17.438   5.548  0.00  0.00     0.009 A 
ENDBRANCH   9  10
ENDBRANCH   6   9
ENDBRANCH   2   3
ENDBRANCH   1   2
BRANCH   1  16
HETATM   16  C   UNK N   1      35.793  13.870  13.476  0.00  0.00     0.159 C 
HETATM   17  O   UNK N   1      36.401  14.920  13.619  0.00  0.00    -0.292 OA
BRANCH  16  18
HETATM   18  C   UNK N   1      35.699  12.909  14.600  0.00  0.00     0.012 A 
HETATM   19  C   UNK N   1      35.327  13.345  15.876  0.00  0.00     0.044 A 
HETATM   20  C   UNK N   1      35.235  12.447  16.948  0.00  0.00     0.035 A 
HETATM   21  N   UNK N   1      34.863  12.971  18.216  0.00  0.00    -0.389 N 
HETATM   22  C   UNK N   1      35.502  11.071  16.723  0.00  0.00    -0.032 A 
HETATM   23  C   UNK N   1      35.518  12.630  19.461  0.00  0.00     0.119 C 
HETATM   24  H   UNK N   1      34.112  13.606  18.250  0.00  0.00     0.159 HD
HETATM   25  C   UNK N   1      35.286  11.198  19.890  0.00  0.00     0.020 C 
HETATM   26  C   UNK N   1      36.099  10.268  19.022  0.00  0.00     0.006 C 
HETATM   27  C   UNK N   1      35.312  10.012  17.762  0.00  0.00     0.041 C 
HETATM   28  C   UNK N   1      35.880  10.646  15.449  0.00  0.00     0.010 A 
HETATM   29  C   UNK N   1      35.988  11.557  14.402  0.00  0.00     0.016 A 
ENDBRANCH  16  18
ENDBRANCH   1  16
TORSDOF 6
ENDMDL
