MODEL 1
REMARK VINA RESULT:      -8.2      0.000      0.000
REMARK  22 active torsions:
REMARK  status: ('A' for Active; 'I' for Inactive)
REMARK    1  A    between atoms: P_1  and  O_10 
REMARK    2  A    between atoms: P_1  and  O_13 
REMARK    3  A    between atoms: P_1  and  O_16 
REMARK    4  A    between atoms: P_2  and  O_11 
REMARK    5  A    between atoms: P_2  and  O_15 
REMARK    6  A    between atoms: P_2  and  O_18 
REMARK    7  A    between atoms: P_3  and  O_13 
REMARK    8  A    between atoms: P_3  and  O_21 
REMARK    9  A    between atoms: P_3  and  O_22 
REMARK   10  A    between atoms: P_4  and  O_15 
REMARK   11  A    between atoms: P_4  and  O_21 
REMARK   12  A    between atoms: P_4  and  O_23 
REMARK   13  A    between atoms: C_32  and  O_7 
REMARK   14  A    between atoms: C_33  and  O_8 
REMARK   15  A    between atoms: C_36  and  O_9 
REMARK   16  A    between atoms: O_10  and  C_40 
REMARK   17  A    between atoms: O_11  and  C_41 
REMARK   18  A    between atoms: C_35  and  N_26 
REMARK   19  A    between atoms: C_39  and  N_27 
REMARK   20  A    between atoms: N_31  and  C_49 
REMARK   21  A    between atoms: C_34  and  C_40 
REMARK   22  A    between atoms: C_37  and  C_41 
ROOT
HETATM    1  O   UNK N   1      23.074  20.261   4.019  0.00  0.00    -0.195 OA
ENDROOT
BRANCH   1   2
HETATM    2  P   UNK N   1      24.711  20.022   3.472  0.00  0.00     0.410 P 
HETATM    3  O   UNK N   1      24.781  20.648   2.054  0.00  0.00    -0.631 OA
BRANCH   2   4
HETATM    4  O   UNK N   1      25.087  18.324   3.269  0.00  0.00    -0.195 OA
BRANCH   4   5
HETATM    5  P   UNK N   1      26.512  17.940   4.213  0.00  0.00     0.401 P 
HETATM    6  O   UNK N   1      27.706  18.850   3.826  0.00  0.00    -0.631 OA
BRANCH   5   7
HETATM    7  O   UNK N   1      27.025  16.302   3.966  0.00  0.00    -0.294 OA
BRANCH   7   8
HETATM    8  C   UNK N   1      27.543  15.905   5.194  0.00  0.00     0.215 C 
BRANCH   8   9
HETATM    9  C   UNK N   1      28.916  15.284   5.021  0.00  0.00     0.180 C 
HETATM   10  O   UNK N   1      29.813  15.702   6.031  0.00  0.00    -0.353 OA
HETATM   11  C   UNK N   1      31.043  15.867   5.368  0.00  0.00     0.263 C 
HETATM   12  C   UNK N   1      30.718  16.453   4.007  0.00  0.00     0.198 C 
HETATM   13  C   UNK N   1      29.447  15.721   3.674  0.00  0.00     0.182 C 
BRANCH  11  14
HETATM   14  N   UNK N   1      32.009  16.669   6.154  0.00  0.00    -0.280 N 
HETATM   15  C   UNK N   1      33.334  16.780   5.767  0.00  0.00     0.331 A 
HETATM   16  O   UNK N   1      33.728  16.237   4.746  0.00  0.00    -0.246 OA
HETATM   17  N   UNK N   1      34.219  17.509   6.522  0.00  0.00    -0.275 N 
HETATM   18  C   UNK N   1      33.813  18.118   7.681  0.00  0.00     0.250 A 
HETATM   19  H   UNK N   1      35.214  17.599   6.213  0.00  0.00     0.173 HD
HETATM   20  O   UNK N   1      34.608  18.751   8.352  0.00  0.00    -0.268 OA
HETATM   21  C   UNK N   1      32.490  18.008   8.090  0.00  0.00     0.092 A 
HETATM   22  C   UNK N   1      31.597  17.282   7.305  0.00  0.00     0.104 A 
ENDBRANCH  11  14
BRANCH  12  23
HETATM   23  O   UNK N   1      30.441  17.816   4.126  0.00  0.00    -0.388 OA
HETATM   24  H   UNK N   1      30.316  18.767   3.991  0.00  0.00     0.210 HD
ENDBRANCH  12  23
BRANCH  13  25
HETATM   25  O   UNK N   1      29.722  14.579   2.922  0.00  0.00    -0.390 OA
HETATM   26  H   UNK N   1      29.370  13.961   2.264  0.00  0.00     0.210 HD
ENDBRANCH  13  25
ENDBRANCH   8   9
ENDBRANCH   7   8
ENDBRANCH   5   7
BRANCH   5  27
HETATM   27  O   UNK N   1      26.209  18.268   5.893  0.00  0.00    -0.307 OA
HETATM   28  H   UNK N   1      26.579  18.181   6.785  0.00  0.00     0.222 HD
ENDBRANCH   5  27
ENDBRANCH   4   5
ENDBRANCH   2   4
BRANCH   2  29
HETATM   29  O   UNK N   1      25.857  20.898   4.442  0.00  0.00    -0.307 OA
HETATM   30  H   UNK N   1      26.191  20.565   5.290  0.00  0.00     0.222 HD
ENDBRANCH   2  29
ENDBRANCH   1   2
BRANCH   1  31
HETATM   31  P   UNK N   1      22.123  19.977   2.602  0.00  0.00     0.410 P 
HETATM   32  O   UNK N   1      20.790  20.625   2.185  0.00  0.00    -0.631 OA
BRANCH  31  33
HETATM   33  O   UNK N   1      21.022  19.218   3.796  0.00  0.00    -0.195 OA
BRANCH  33  34
HETATM   34  P   UNK N   1      19.985  17.850   3.300  0.00  0.00     0.401 P 
HETATM   35  O   UNK N   1      20.749  16.905   2.332  0.00  0.00    -0.631 OA
BRANCH  34  36
HETATM   36  O   UNK N   1      19.158  16.851   4.464  0.00  0.00    -0.294 OA
BRANCH  36  37
HETATM   37  C   UNK N   1      20.101  16.011   5.046  0.00  0.00     0.215 C 
BRANCH  37  38
HETATM   38  C   UNK N   1      21.093  16.786   5.935  0.00  0.00     0.177 C 
HETATM   39  O   UNK N   1      20.977  16.312   7.239  0.00  0.00    -0.356 OA
HETATM   40  C   UNK N   1      21.745  15.156   7.149  0.00  0.00     0.235 C 
HETATM   41  C   UNK N   1      23.059  15.536   6.526  0.00  0.00     0.088 C 
HETATM   42  C   UNK N   1      22.571  16.595   5.548  0.00  0.00     0.153 C 
BRANCH  40  43
HETATM   43  N   UNK N   1      21.737  14.404   8.381  0.00  0.00    -0.282 N 
HETATM   44  C   UNK N   1      22.908  13.814   8.732  0.00  0.00     0.102 A 
HETATM   45  C   UNK N   1      22.966  12.963   9.823  0.00  0.00     0.065 A 
HETATM   46  C   UNK N   1      21.803  12.726  10.547  0.00  0.00     0.103 A 
HETATM   47  N   UNK N   1      20.641  13.343  10.198  0.00  0.00    -0.295 N 
HETATM   48  C   UNK N   1      20.595  14.182   9.116  0.00  0.00     0.330 A 
ATOM     49  HN  UNK N   1      19.797  13.180  10.748  1.00  0.00     0.172 HD
HETATM   50  O   UNK N   1      19.538  14.701   8.798  0.00  0.00    -0.246 OA
BRANCH  46  51
HETATM   51  N   UNK N   1      21.826  11.816  11.624  0.00  0.00    -0.385 N 
HETATM   52  H   UNK N   1      22.342  10.930  11.541  0.00  0.00     0.157 HD
HETATM   53  H   UNK N   1      21.362  12.054  12.514  0.00  0.00     0.157 HD
ENDBRANCH  46  51
ENDBRANCH  40  43
BRANCH  42  54
HETATM   54  O   UNK N   1      23.266  17.779   5.790  0.00  0.00    -0.393 OA
HETATM   55  H   UNK N   1      24.157  17.773   6.175  0.00  0.00     0.210 HD
ENDBRANCH  42  54
ENDBRANCH  37  38
ENDBRANCH  36  37
ENDBRANCH  34  36
BRANCH  34  56
HETATM   56  O   UNK N   1      18.751  18.513   2.276  0.00  0.00    -0.307 OA
HETATM   57  H   UNK N   1      18.810  19.433   1.974  0.00  0.00     0.222 HD
ENDBRANCH  34  56
ENDBRANCH  33  34
ENDBRANCH  31  33
BRANCH  31  58
HETATM   58  O   UNK N   1      22.297  21.676   2.891  0.00  0.00    -0.307 OA
HETATM   59  H   UNK N   1      21.631  22.206   3.354  0.00  0.00     0.222 HD
ENDBRANCH  31  58
ENDBRANCH   1  31
TORSDOF 22
ENDMDL
MODEL 2
REMARK VINA RESULT:      -8.1      2.055      3.223
REMARK  22 active torsions:
REMARK  status: ('A' for Active; 'I' for Inactive)
REMARK    1  A    between atoms: P_1  and  O_10 
REMARK    2  A    between atoms: P_1  and  O_13 
REMARK    3  A    between atoms: P_1  and  O_16 
REMARK    4  A    between atoms: P_2  and  O_11 
REMARK    5  A    between atoms: P_2  and  O_15 
REMARK    6  A    between atoms: P_2  and  O_18 
REMARK    7  A    between atoms: P_3  and  O_13 
REMARK    8  A    between atoms: P_3  and  O_21 
REMARK    9  A    between atoms: P_3  and  O_22 
REMARK   10  A    between atoms: P_4  and  O_15 
REMARK   11  A    between atoms: P_4  and  O_21 
REMARK   12  A    between atoms: P_4  and  O_23 
REMARK   13  A    between atoms: C_32  and  O_7 
REMARK   14  A    between atoms: C_33  and  O_8 
REMARK   15  A    between atoms: C_36  and  O_9 
REMARK   16  A    between atoms: O_10  and  C_40 
REMARK   17  A    between atoms: O_11  and  C_41 
REMARK   18  A    between atoms: C_35  and  N_26 
REMARK   19  A    between atoms: C_39  and  N_27 
REMARK   20  A    between atoms: N_31  and  C_49 
REMARK   21  A    between atoms: C_34  and  C_40 
REMARK   22  A    between atoms: C_37  and  C_41 
ROOT
HETATM    1  O   UNK N   1      23.465  20.405   3.942  0.00  0.00    -0.195 OA
ENDROOT
BRANCH   1   2
HETATM    2  P   UNK N   1      24.945  20.159   3.059  0.00  0.00     0.410 P 
HETATM    3  O   UNK N   1      25.263  18.645   3.174  0.00  0.00    -0.631 OA
BRANCH   2   4
HETATM    4  O   UNK N   1      26.293  20.993   3.802  0.00  0.00    -0.195 OA
BRANCH   4   5
HETATM    5  P   UNK N   1      26.456  20.448   5.460  0.00  0.00     0.401 P 
HETATM    6  O   UNK N   1      26.338  21.631   6.455  0.00  0.00    -0.631 OA
BRANCH   5   7
HETATM    7  O   UNK N   1      27.994  19.700   5.742  0.00  0.00    -0.294 OA
BRANCH   7   8
HETATM    8  C   UNK N   1      27.986  19.376   7.094  0.00  0.00     0.215 C 
BRANCH   8   9
HETATM    9  C   UNK N   1      28.473  17.955   7.308  0.00  0.00     0.180 C 
HETATM   10  O   UNK N   1      29.715  17.723   6.674  0.00  0.00    -0.353 OA
HETATM   11  C   UNK N   1      29.616  16.416   6.164  0.00  0.00     0.263 C 
HETATM   12  C   UNK N   1      28.191  16.258   5.669  0.00  0.00     0.198 C 
HETATM   13  C   UNK N   1      27.435  17.025   6.719  0.00  0.00     0.182 C 
BRANCH  11  14
HETATM   14  N   UNK N   1      30.646  16.127   5.138  0.00  0.00    -0.280 N 
HETATM   15  C   UNK N   1      31.082  14.833   4.903  0.00  0.00     0.331 A 
HETATM   16  O   UNK N   1      30.602  13.896   5.522  0.00  0.00    -0.246 OA
HETATM   17  N   UNK N   1      32.053  14.589   3.964  0.00  0.00    -0.275 N 
HETATM   18  C   UNK N   1      32.624  15.621   3.264  0.00  0.00     0.250 A 
HETATM   19  H   UNK N   1      32.365  13.607   3.784  0.00  0.00     0.173 HD
HETATM   20  O   UNK N   1      33.495  15.396   2.444  0.00  0.00    -0.268 OA
HETATM   21  C   UNK N   1      32.206  16.925   3.495  0.00  0.00     0.092 A 
HETATM   22  C   UNK N   1      31.205  17.158   4.436  0.00  0.00     0.104 A 
ENDBRANCH  11  14
BRANCH  12  23
HETATM   23  O   UNK N   1      28.038  16.898   4.439  0.00  0.00    -0.388 OA
HETATM   24  H   UNK N   1      27.711  17.302   3.620  0.00  0.00     0.210 HD
ENDBRANCH  12  23
BRANCH  13  25
HETATM   25  O   UNK N   1      26.994  16.169   7.727  0.00  0.00    -0.390 OA
HETATM   26  H   UNK N   1      26.883  15.241   7.987  0.00  0.00     0.210 HD
ENDBRANCH  13  25
ENDBRANCH   8   9
ENDBRANCH   7   8
ENDBRANCH   5   7
BRANCH   5  27
HETATM   27  O   UNK N   1      25.143  19.381   5.857  0.00  0.00    -0.307 OA
HETATM   28  H   UNK N   1      24.908  18.587   6.362  0.00  0.00     0.222 HD
ENDBRANCH   5  27
ENDBRANCH   4   5
ENDBRANCH   2   4
BRANCH   2  29
HETATM   29  O   UNK N   1      24.753  20.481   1.361  0.00  0.00    -0.307 OA
HETATM   30  H   UNK N   1      24.246  19.903   0.771  0.00  0.00     0.222 HD
ENDBRANCH   2  29
ENDBRANCH   1   2
BRANCH   1  31
HETATM   31  P   UNK N   1      22.235  20.225   2.739  0.00  0.00     0.410 P 
HETATM   32  O   UNK N   1      20.986  21.091   2.495  0.00  0.00    -0.631 OA
BRANCH  31  33
HETATM   33  O   UNK N   1      21.254  19.765   4.167  0.00  0.00    -0.195 OA
BRANCH  33  34
HETATM   34  P   UNK N   1      21.538  18.191   4.966  0.00  0.00     0.401 P 
HETATM   35  O   UNK N   1      21.818  18.389   6.482  0.00  0.00    -0.631 OA
BRANCH  34  36
HETATM   36  O   UNK N   1      20.423  16.862   4.807  0.00  0.00    -0.294 OA
BRANCH  36  37
HETATM   37  C   UNK N   1      20.799  15.883   5.720  0.00  0.00     0.215 C 
BRANCH  37  38
HETATM   38  C   UNK N   1      19.626  15.452   6.621  0.00  0.00     0.177 C 
HETATM   39  O   UNK N   1      19.997  14.296   7.303  0.00  0.00    -0.356 OA
HETATM   40  C   UNK N   1      20.761  14.850   8.326  0.00  0.00     0.235 C 
HETATM   41  C   UNK N   1      19.947  15.948   8.951  0.00  0.00     0.088 C 
HETATM   42  C   UNK N   1      19.250  16.478   7.705  0.00  0.00     0.153 C 
BRANCH  40  43
HETATM   43  N   UNK N   1      21.350  13.838   9.170  0.00  0.00    -0.282 N 
HETATM   44  C   UNK N   1      20.572  13.366  10.175  0.00  0.00     0.102 A 
HETATM   45  C   UNK N   1      21.093  12.495  11.117  0.00  0.00     0.065 A 
HETATM   46  C   UNK N   1      22.426  12.115  11.010  0.00  0.00     0.103 A 
HETATM   47  N   UNK N   1      23.189  12.578   9.983  0.00  0.00    -0.295 N 
HETATM   48  C   UNK N   1      22.664  13.441   9.058  0.00  0.00     0.330 A 
ATOM     49  HN  UNK N   1      24.161  12.279   9.900  1.00  0.00     0.172 HD
HETATM   50  O   UNK N   1      23.371  13.872   8.161  0.00  0.00    -0.246 OA
BRANCH  46  51
HETATM   51  N   UNK N   1      22.994  11.278  11.992  0.00  0.00    -0.385 N 
HETATM   52  H   UNK N   1      22.820  10.264  11.970  0.00  0.00     0.157 HD
HETATM   53  H   UNK N   1      23.621  11.671  12.710  0.00  0.00     0.157 HD
ENDBRANCH  46  51
ENDBRANCH  40  43
BRANCH  42  54
HETATM   54  O   UNK N   1      17.872  16.441   7.916  0.00  0.00    -0.393 OA
HETATM   55  H   UNK N   1      17.493  16.557   8.802  0.00  0.00     0.210 HD
ENDBRANCH  42  54
ENDBRANCH  37  38
ENDBRANCH  36  37
ENDBRANCH  34  36
BRANCH  34  56
HETATM   56  O   UNK N   1      23.064  17.609   4.380  0.00  0.00    -0.307 OA
HETATM   57  H   UNK N   1      23.093  16.927   3.691  0.00  0.00     0.222 HD
ENDBRANCH  34  56
ENDBRANCH  33  34
ENDBRANCH  31  33
BRANCH  31  58
HETATM   58  O   UNK N   1      22.760  21.874   2.836  0.00  0.00    -0.307 OA
HETATM   59  H   UNK N   1      22.239  22.617   2.496  0.00  0.00     0.222 HD
ENDBRANCH  31  58
ENDBRANCH   1  31
TORSDOF 22
ENDMDL
MODEL 3
REMARK VINA RESULT:      -8.0      4.205      6.766
REMARK  22 active torsions:
REMARK  status: ('A' for Active; 'I' for Inactive)
REMARK    1  A    between atoms: P_1  and  O_10 
REMARK    2  A    between atoms: P_1  and  O_13 
REMARK    3  A    between atoms: P_1  and  O_16 
REMARK    4  A    between atoms: P_2  and  O_11 
REMARK    5  A    between atoms: P_2  and  O_15 
REMARK    6  A    between atoms: P_2  and  O_18 
REMARK    7  A    between atoms: P_3  and  O_13 
REMARK    8  A    between atoms: P_3  and  O_21 
REMARK    9  A    between atoms: P_3  and  O_22 
REMARK   10  A    between atoms: P_4  and  O_15 
REMARK   11  A    between atoms: P_4  and  O_21 
REMARK   12  A    between atoms: P_4  and  O_23 
REMARK   13  A    between atoms: C_32  and  O_7 
REMARK   14  A    between atoms: C_33  and  O_8 
REMARK   15  A    between atoms: C_36  and  O_9 
REMARK   16  A    between atoms: O_10  and  C_40 
REMARK   17  A    between atoms: O_11  and  C_41 
REMARK   18  A    between atoms: C_35  and  N_26 
REMARK   19  A    between atoms: C_39  and  N_27 
REMARK   20  A    between atoms: N_31  and  C_49 
REMARK   21  A    between atoms: C_34  and  C_40 
REMARK   22  A    between atoms: C_37  and  C_41 
ROOT
HETATM    1  O   UNK N   1      22.052  14.056   7.613  0.00  0.00    -0.195 OA
ENDROOT
BRANCH   1   2
HETATM    2  P   UNK N   1      22.692  12.556   7.000  0.00  0.00     0.410 P 
HETATM    3  O   UNK N   1      22.726  11.583   8.209  0.00  0.00    -0.631 OA
BRANCH   2   4
HETATM    4  O   UNK N   1      24.352  12.725   6.471  0.00  0.00    -0.195 OA
BRANCH   4   5
HETATM    5  P   UNK N   1      24.387  13.679   5.001  0.00  0.00     0.401 P 
HETATM    6  O   UNK N   1      23.530  13.027   3.886  0.00  0.00    -0.631 OA
BRANCH   5   7
HETATM    7  O   UNK N   1      25.996  13.837   4.375  0.00  0.00    -0.294 OA
BRANCH   7   8
HETATM    8  C   UNK N   1      26.816  13.801   5.497  0.00  0.00     0.215 C 
BRANCH   8   9
HETATM    9  C   UNK N   1      27.589  15.099   5.639  0.00  0.00     0.180 C 
HETATM   10  O   UNK N   1      26.760  16.228   5.452  0.00  0.00    -0.353 OA
HETATM   11  C   UNK N   1      27.557  17.142   4.739  0.00  0.00     0.263 C 
HETATM   12  C   UNK N   1      28.371  16.320   3.757  0.00  0.00     0.198 C 
HETATM   13  C   UNK N   1      28.673  15.100   4.583  0.00  0.00     0.182 C 
BRANCH  11  14
HETATM   14  N   UNK N   1      26.760  18.219   4.107  0.00  0.00    -0.280 N 
HETATM   15  C   UNK N   1      25.515  17.963   3.556  0.00  0.00     0.331 A 
HETATM   16  O   UNK N   1      25.035  16.841   3.606  0.00  0.00    -0.246 OA
HETATM   17  N   UNK N   1      24.802  18.970   2.955  0.00  0.00    -0.275 N 
HETATM   18  C   UNK N   1      25.319  20.237   2.869  0.00  0.00     0.250 A 
HETATM   19  H   UNK N   1      23.857  18.770   2.555  0.00  0.00     0.173 HD
HETATM   20  O   UNK N   1      24.686  21.121   2.320  0.00  0.00    -0.268 OA
HETATM   21  C   UNK N   1      26.570  20.509   3.406  0.00  0.00     0.092 A 
HETATM   22  C   UNK N   1      27.276  19.483   4.031  0.00  0.00     0.104 A 
ENDBRANCH  11  14
BRANCH  12  23
HETATM   23  O   UNK N   1      27.578  15.950   2.670  0.00  0.00    -0.388 OA
HETATM   24  H   UNK N   1      27.182  15.812   1.796  0.00  0.00     0.210 HD
ENDBRANCH  12  23
BRANCH  13  25
HETATM   25  O   UNK N   1      29.905  15.235   5.223  0.00  0.00    -0.390 OA
HETATM   26  H   UNK N   1      30.837  15.475   5.104  0.00  0.00     0.210 HD
ENDBRANCH  13  25
ENDBRANCH   8   9
ENDBRANCH   7   8
ENDBRANCH   5   7
BRANCH   5  27
HETATM   27  O   UNK N   1      23.659  15.230   5.292  0.00  0.00    -0.307 OA
HETATM   28  H   UNK N   1      23.854  16.168   5.446  0.00  0.00     0.222 HD
ENDBRANCH   5  27
ENDBRANCH   4   5
ENDBRANCH   2   4
BRANCH   2  29
HETATM   29  O   UNK N   1      21.638  11.827   5.826  0.00  0.00    -0.307 OA
HETATM   30  H   UNK N   1      21.213  12.333   5.115  0.00  0.00     0.222 HD
ENDBRANCH   2  29
ENDBRANCH   1   2
BRANCH   1  31
HETATM   31  P   UNK N   1      21.224  13.587   9.059  0.00  0.00     0.410 P 
HETATM   32  O   UNK N   1      19.752  13.812   9.446  0.00  0.00    -0.631 OA
BRANCH  31  33
HETATM   33  O   UNK N   1      21.245  15.357   9.346  0.00  0.00    -0.195 OA
BRANCH  33  34
HETATM   34  P   UNK N   1      20.717  16.471   8.051  0.00  0.00     0.401 P 
HETATM   35  O   UNK N   1      20.024  17.723   8.655  0.00  0.00    -0.631 OA
BRANCH  34  36
HETATM   36  O   UNK N   1      21.806  17.021   6.808  0.00  0.00    -0.294 OA
BRANCH  36  37
HETATM   37  C   UNK N   1      21.279  18.191   6.271  0.00  0.00     0.215 C 
BRANCH  37  38
HETATM   38  C   UNK N   1      21.922  18.547   4.917  0.00  0.00     0.177 C 
HETATM   39  O   UNK N   1      22.153  17.366   4.216  0.00  0.00    -0.356 OA
HETATM   40  C   UNK N   1      20.881  17.131   3.706  0.00  0.00     0.235 C 
HETATM   41  C   UNK N   1      20.418  18.401   3.050  0.00  0.00     0.088 C 
HETATM   42  C   UNK N   1      21.036  19.413   4.004  0.00  0.00     0.153 C 
BRANCH  40  43
HETATM   43  N   UNK N   1      20.812  15.889   2.974  0.00  0.00    -0.282 N 
HETATM   44  C   UNK N   1      20.813  15.989   1.621  0.00  0.00     0.102 A 
HETATM   45  C   UNK N   1      20.615  14.867   0.834  0.00  0.00     0.065 A 
HETATM   46  C   UNK N   1      20.416  13.640   1.458  0.00  0.00     0.103 A 
HETATM   47  N   UNK N   1      20.441  13.551   2.816  0.00  0.00    -0.295 N 
HETATM   48  C   UNK N   1      20.636  14.668   3.585  0.00  0.00     0.330 A 
ATOM     49  HN  UNK N   1      20.316  12.644   3.265  1.00  0.00     0.172 HD
HETATM   50  O   UNK N   1      20.624  14.575   4.801  0.00  0.00    -0.246 OA
BRANCH  46  51
HETATM   51  N   UNK N   1      20.152  12.496   0.678  0.00  0.00    -0.385 N 
HETATM   52  H   UNK N   1      20.915  11.851   0.432  0.00  0.00     0.157 HD
HETATM   53  H   UNK N   1      19.187  12.277   0.389  0.00  0.00     0.157 HD
ENDBRANCH  46  51
ENDBRANCH  40  43
BRANCH  42  54
HETATM   54  O   UNK N   1      21.842  20.282   3.270  0.00  0.00    -0.393 OA
HETATM   55  H   UNK N   1      22.517  20.831   3.700  0.00  0.00     0.210 HD
ENDBRANCH  42  54
ENDBRANCH  37  38
ENDBRANCH  36  37
ENDBRANCH  34  36
BRANCH  34  56
HETATM   56  O   UNK N   1      19.408  15.683   7.228  0.00  0.00    -0.307 OA
HETATM   57  H   UNK N   1      18.490  15.875   7.475  0.00  0.00     0.222 HD
ENDBRANCH  34  56
ENDBRANCH  33  34
ENDBRANCH  31  33
BRANCH  31  58
HETATM   58  O   UNK N   1      20.286  13.184   7.659  0.00  0.00    -0.307 OA
HETATM   59  H   UNK N   1      19.320  13.246   7.632  0.00  0.00     0.222 HD
ENDBRANCH  31  58
ENDBRANCH   1  31
TORSDOF 22
ENDMDL
MODEL 4
REMARK VINA RESULT:      -7.9      7.838     11.900
REMARK  22 active torsions:
REMARK  status: ('A' for Active; 'I' for Inactive)
REMARK    1  A    between atoms: P_1  and  O_10 
REMARK    2  A    between atoms: P_1  and  O_13 
REMARK    3  A    between atoms: P_1  and  O_16 
REMARK    4  A    between atoms: P_2  and  O_11 
REMARK    5  A    between atoms: P_2  and  O_15 
REMARK    6  A    between atoms: P_2  and  O_18 
REMARK    7  A    between atoms: P_3  and  O_13 
REMARK    8  A    between atoms: P_3  and  O_21 
REMARK    9  A    between atoms: P_3  and  O_22 
REMARK   10  A    between atoms: P_4  and  O_15 
REMARK   11  A    between atoms: P_4  and  O_21 
REMARK   12  A    between atoms: P_4  and  O_23 
REMARK   13  A    between atoms: C_32  and  O_7 
REMARK   14  A    between atoms: C_33  and  O_8 
REMARK   15  A    between atoms: C_36  and  O_9 
REMARK   16  A    between atoms: O_10  and  C_40 
REMARK   17  A    between atoms: O_11  and  C_41 
REMARK   18  A    between atoms: C_35  and  N_26 
REMARK   19  A    between atoms: C_39  and  N_27 
REMARK   20  A    between atoms: N_31  and  C_49 
REMARK   21  A    between atoms: C_34  and  C_40 
REMARK   22  A    between atoms: C_37  and  C_41 
ROOT
HETATM    1  O   UNK N   1      34.449  15.797   8.551  0.00  0.00    -0.195 OA
ENDROOT
BRANCH   1   2
HETATM    2  P   UNK N   1      34.755  15.501  10.240  0.00  0.00     0.410 P 
HETATM    3  O   UNK N   1      35.210  16.861  10.835  0.00  0.00    -0.631 OA
BRANCH   2   4
HETATM    4  O   UNK N   1      36.095  14.400  10.476  0.00  0.00    -0.195 OA
BRANCH   4   5
HETATM    5  P   UNK N   1      36.125  13.889  12.152  0.00  0.00     0.401 P 
HETATM    6  O   UNK N   1      37.254  12.858  12.407  0.00  0.00    -0.631 OA
BRANCH   5   7
HETATM    7  O   UNK N   1      34.636  13.134  12.621  0.00  0.00    -0.294 OA
BRANCH   7   8
HETATM    8  C   UNK N   1      34.724  11.840  12.120  0.00  0.00     0.215 C 
BRANCH   8   9
HETATM    9  C   UNK N   1      34.434  10.823  13.209  0.00  0.00     0.180 C 
HETATM   10  O   UNK N   1      34.173  11.444  14.452  0.00  0.00    -0.353 OA
HETATM   11  C   UNK N   1      34.792  10.610  15.402  0.00  0.00     0.263 C 
HETATM   12  C   UNK N   1      36.085  10.131  14.769  0.00  0.00     0.198 C 
HETATM   13  C   UNK N   1      35.654   9.938  13.342  0.00  0.00     0.182 C 
BRANCH  11  14
HETATM   14  N   UNK N   1      34.973  11.279  16.712  0.00  0.00    -0.280 N 
HETATM   15  C   UNK N   1      35.094  10.547  17.881  0.00  0.00     0.331 A 
HETATM   16  O   UNK N   1      35.081   9.326  17.851  0.00  0.00    -0.246 OA
HETATM   17  N   UNK N   1      35.239  11.186  19.088  0.00  0.00    -0.275 N 
HETATM   18  C   UNK N   1      35.241  12.556  19.157  0.00  0.00     0.250 A 
HETATM   19  H   UNK N   1      35.344  10.624  19.963  0.00  0.00     0.173 HD
HETATM   20  O   UNK N   1      35.355  13.114  20.233  0.00  0.00    -0.268 OA
HETATM   21  C   UNK N   1      35.110  13.305  17.996  0.00  0.00     0.092 A 
HETATM   22  C   UNK N   1      34.984  12.645  16.775  0.00  0.00     0.104 A 
ENDBRANCH  11  14
BRANCH  12  23
HETATM   23  O   UNK N   1      37.047  11.140  14.823  0.00  0.00    -0.388 OA
HETATM   24  H   UNK N   1      37.705  11.826  14.633  0.00  0.00     0.210 HD
ENDBRANCH  12  23
BRANCH  13  25
HETATM   25  O   UNK N   1      35.261   8.619  13.122  0.00  0.00    -0.390 OA
HETATM   26  H   UNK N   1      34.519   8.043  12.879  0.00  0.00     0.210 HD
ENDBRANCH  13  25
ENDBRANCH   8   9
ENDBRANCH   7   8
ENDBRANCH   5   7
BRANCH   5  27
HETATM   27  O   UNK N   1      36.503  15.245  13.171  0.00  0.00    -0.307 OA
HETATM   28  H   UNK N   1      36.657  15.512  14.091  0.00  0.00     0.222 HD
ENDBRANCH   5  27
ENDBRANCH   4   5
ENDBRANCH   2   4
BRANCH   2  29
HETATM   29  O   UNK N   1      33.309  15.062  11.099  0.00  0.00    -0.307 OA
HETATM   30  H   UNK N   1      32.660  14.433  10.747  0.00  0.00     0.222 HD
ENDBRANCH   2  29
ENDBRANCH   1   2
BRANCH   1  31
HETATM   31  P   UNK N   1      34.390  17.523   8.442  0.00  0.00     0.410 P 
HETATM   32  O   UNK N   1      33.291  18.417   7.841  0.00  0.00    -0.631 OA
BRANCH  31  33
HETATM   33  O   UNK N   1      34.621  17.171   6.699  0.00  0.00    -0.195 OA
BRANCH  33  34
HETATM   34  P   UNK N   1      33.288  16.440   5.759  0.00  0.00     0.401 P 
HETATM   35  O   UNK N   1      33.848  15.519   4.640  0.00  0.00    -0.631 OA
BRANCH  34  36
HETATM   36  O   UNK N   1      31.974  15.593   6.528  0.00  0.00    -0.294 OA
BRANCH  36  37
HETATM   37  C   UNK N   1      30.786  16.096   6.010  0.00  0.00     0.215 C 
BRANCH  37  38
HETATM   38  C   UNK N   1      30.259  17.291   6.829  0.00  0.00     0.177 C 
HETATM   39  O   UNK N   1      29.637  18.180   5.957  0.00  0.00    -0.356 OA
HETATM   40  C   UNK N   1      28.402  17.557   5.811  0.00  0.00     0.235 C 
HETATM   41  C   UNK N   1      27.884  17.258   7.190  0.00  0.00     0.088 C 
HETATM   42  C   UNK N   1      29.198  16.918   7.879  0.00  0.00     0.153 C 
BRANCH  40  43
HETATM   43  N   UNK N   1      27.554  18.250   4.871  0.00  0.00    -0.282 N 
HETATM   44  C   UNK N   1      27.715  19.594   4.793  0.00  0.00     0.102 A 
HETATM   45  C   UNK N   1      26.860  20.361   4.022  0.00  0.00     0.065 A 
HETATM   46  C   UNK N   1      25.833  19.726   3.331  0.00  0.00     0.103 A 
HETATM   47  N   UNK N   1      25.697  18.374   3.399  0.00  0.00    -0.295 N 
HETATM   48  C   UNK N   1      26.549  17.625   4.166  0.00  0.00     0.330 A 
ATOM     49  HN  UNK N   1      24.955  17.914   2.872  1.00  0.00     0.172 HD
HETATM   50  O   UNK N   1      26.393  16.417   4.242  0.00  0.00    -0.246 OA
BRANCH  46  51
HETATM   51  N   UNK N   1      24.913  20.494   2.588  0.00  0.00    -0.385 N 
HETATM   52  H   UNK N   1      24.337  21.206   3.057  0.00  0.00     0.157 HD
HETATM   53  H   UNK N   1      24.846  20.377   1.566  0.00  0.00     0.157 HD
ENDBRANCH  46  51
ENDBRANCH  40  43
BRANCH  42  54
HETATM   54  O   UNK N   1      29.343  17.746   8.993  0.00  0.00    -0.393 OA
HETATM   55  H   UNK N   1      28.643  17.821   9.661  0.00  0.00     0.210 HD
ENDBRANCH  42  54
ENDBRANCH  37  38
ENDBRANCH  36  37
ENDBRANCH  34  36
BRANCH  34  56
HETATM   56  O   UNK N   1      32.562  17.728   4.852  0.00  0.00    -0.307 OA
HETATM   57  H   UNK N   1      32.502  17.671   3.885  0.00  0.00     0.222 HD
ENDBRANCH  34  56
ENDBRANCH  33  34
ENDBRANCH  31  33
BRANCH  31  58
HETATM   58  O   UNK N   1      32.883  16.895   9.020  0.00  0.00    -0.307 OA
HETATM   59  H   UNK N   1      32.808  16.340   9.811  0.00  0.00     0.222 HD
ENDBRANCH  31  58
ENDBRANCH   1  31
TORSDOF 22
ENDMDL
MODEL 5
REMARK VINA RESULT:      -7.8      3.738      6.020
REMARK  22 active torsions:
REMARK  status: ('A' for Active; 'I' for Inactive)
REMARK    1  A    between atoms: P_1  and  O_10 
REMARK    2  A    between atoms: P_1  and  O_13 
REMARK    3  A    between atoms: P_1  and  O_16 
REMARK    4  A    between atoms: P_2  and  O_11 
REMARK    5  A    between atoms: P_2  and  O_15 
REMARK    6  A    between atoms: P_2  and  O_18 
REMARK    7  A    between atoms: P_3  and  O_13 
REMARK    8  A    between atoms: P_3  and  O_21 
REMARK    9  A    between atoms: P_3  and  O_22 
REMARK   10  A    between atoms: P_4  and  O_15 
REMARK   11  A    between atoms: P_4  and  O_21 
REMARK   12  A    between atoms: P_4  and  O_23 
REMARK   13  A    between atoms: C_32  and  O_7 
REMARK   14  A    between atoms: C_33  and  O_8 
REMARK   15  A    between atoms: C_36  and  O_9 
REMARK   16  A    between atoms: O_10  and  C_40 
REMARK   17  A    between atoms: O_11  and  C_41 
REMARK   18  A    between atoms: C_35  and  N_26 
REMARK   19  A    between atoms: C_39  and  N_27 
REMARK   20  A    between atoms: N_31  and  C_49 
REMARK   21  A    between atoms: C_34  and  C_40 
REMARK   22  A    between atoms: C_37  and  C_41 
ROOT
HETATM    1  O   UNK N   1      22.496  13.962   8.197  0.00  0.00    -0.195 OA
ENDROOT
BRANCH   1   2
HETATM    2  P   UNK N   1      23.822  12.833   8.159  0.00  0.00     0.410 P 
HETATM    3  O   UNK N   1      25.009  13.547   8.858  0.00  0.00    -0.631 OA
BRANCH   2   4
HETATM    4  O   UNK N   1      24.352  12.506   6.522  0.00  0.00    -0.195 OA
BRANCH   4   5
HETATM    5  P   UNK N   1      24.046  13.919   5.532  0.00  0.00     0.401 P 
HETATM    6  O   UNK N   1      22.572  13.964   5.056  0.00  0.00    -0.631 OA
BRANCH   5   7
HETATM    7  O   UNK N   1      25.037  13.933   4.109  0.00  0.00    -0.294 OA
BRANCH   7   8
HETATM    8  C   UNK N   1      25.616  15.197   4.095  0.00  0.00     0.215 C 
BRANCH   8   9
HETATM    9  C   UNK N   1      27.106  15.107   4.368  0.00  0.00     0.180 C 
HETATM   10  O   UNK N   1      27.414  15.421   5.712  0.00  0.00    -0.353 OA
HETATM   11  C   UNK N   1      28.613  16.153   5.640  0.00  0.00     0.263 C 
HETATM   12  C   UNK N   1      28.506  17.027   4.404  0.00  0.00     0.198 C 
HETATM   13  C   UNK N   1      27.796  16.099   3.457  0.00  0.00     0.182 C 
BRANCH  11  14
HETATM   14  N   UNK N   1      28.895  16.905   6.886  0.00  0.00    -0.280 N 
HETATM   15  C   UNK N   1      30.178  17.325   7.197  0.00  0.00     0.331 A 
HETATM   16  O   UNK N   1      31.103  17.106   6.431  0.00  0.00    -0.246 OA
HETATM   17  N   UNK N   1      30.422  17.999   8.367  0.00  0.00    -0.275 N 
HETATM   18  C   UNK N   1      29.408  18.247   9.256  0.00  0.00     0.250 A 
HETATM   19  H   UNK N   1      31.392  18.325   8.586  0.00  0.00     0.173 HD
HETATM   20  O   UNK N   1      29.636  18.833  10.299  0.00  0.00    -0.268 OA
HETATM   21  C   UNK N   1      28.118  17.824   8.965  0.00  0.00     0.092 A 
HETATM   22  C   UNK N   1      27.879  17.157   7.765  0.00  0.00     0.104 A 
ENDBRANCH  11  14
BRANCH  12  23
HETATM   23  O   UNK N   1      27.687  18.126   4.665  0.00  0.00    -0.388 OA
HETATM   24  H   UNK N   1      27.316  19.004   4.841  0.00  0.00     0.210 HD
ENDBRANCH  12  23
BRANCH  13  25
HETATM   25  O   UNK N   1      28.715  15.404   2.672  0.00  0.00    -0.390 OA
HETATM   26  H   UNK N   1      28.858  14.971   1.816  0.00  0.00     0.210 HD
ENDBRANCH  13  25
ENDBRANCH   8   9
ENDBRANCH   7   8
ENDBRANCH   5   7
BRANCH   5  27
HETATM   27  O   UNK N   1      24.268  15.358   6.479  0.00  0.00    -0.307 OA
HETATM   28  H   UNK N   1      24.591  16.272   6.448  0.00  0.00     0.222 HD
ENDBRANCH   5  27
ENDBRANCH   4   5
ENDBRANCH   2   4
BRANCH   2  29
HETATM   29  O   UNK N   1      23.495  11.410   9.103  0.00  0.00    -0.307 OA
HETATM   30  H   UNK N   1      23.951  10.567   8.957  0.00  0.00     0.222 HD
ENDBRANCH   2  29
ENDBRANCH   1   2
BRANCH   1  31
HETATM   31  P   UNK N   1      21.602  13.497   9.603  0.00  0.00     0.410 P 
HETATM   32  O   UNK N   1      20.094  13.223   9.744  0.00  0.00    -0.631 OA
BRANCH  31  33
HETATM   33  O   UNK N   1      20.968  15.166   9.446  0.00  0.00    -0.195 OA
BRANCH  33  34
HETATM   34  P   UNK N   1      20.631  15.837   7.824  0.00  0.00     0.401 P 
HETATM   35  O   UNK N   1      19.382  16.761   7.862  0.00  0.00    -0.631 OA
BRANCH  34  36
HETATM   36  O   UNK N   1      21.857  16.648   6.889  0.00  0.00    -0.294 OA
BRANCH  36  37
HETATM   37  C   UNK N   1      21.301  17.821   6.389  0.00  0.00     0.215 C 
BRANCH  37  38
HETATM   38  C   UNK N   1      21.892  18.203   5.019  0.00  0.00     0.177 C 
HETATM   39  O   UNK N   1      21.970  17.053   4.238  0.00  0.00    -0.356 OA
HETATM   40  C   UNK N   1      20.653  16.966   3.800  0.00  0.00     0.235 C 
HETATM   41  C   UNK N   1      20.271  18.311   3.249  0.00  0.00     0.088 C 
HETATM   42  C   UNK N   1      21.037  19.200   4.217  0.00  0.00     0.153 C 
BRANCH  40  43
HETATM   43  N   UNK N   1      20.425  15.783   3.003  0.00  0.00    -0.282 N 
HETATM   44  C   UNK N   1      21.142  15.685   1.856  0.00  0.00     0.102 A 
HETATM   45  C   UNK N   1      20.897  14.658   0.960  0.00  0.00     0.065 A 
HETATM   46  C   UNK N   1      19.903  13.732   1.261  0.00  0.00     0.103 A 
HETATM   47  N   UNK N   1      19.208  13.830   2.427  0.00  0.00    -0.295 N 
HETATM   48  C   UNK N   1      19.458  14.851   3.305  0.00  0.00     0.330 A 
ATOM     49  HN  UNK N   1      18.495  13.135   2.650  1.00  0.00     0.172 HD
HETATM   50  O   UNK N   1      18.803  14.942   4.331  0.00  0.00    -0.246 OA
BRANCH  46  51
HETATM   51  N   UNK N   1      19.595  12.714   0.336  0.00  0.00    -0.385 N 
HETATM   52  H   UNK N   1      18.650  12.649  -0.064  0.00  0.00     0.157 HD
HETATM   53  H   UNK N   1      20.327  12.060   0.023  0.00  0.00     0.157 HD
ENDBRANCH  46  51
ENDBRANCH  40  43
BRANCH  42  54
HETATM   54  O   UNK N   1      21.875  20.039   3.483  0.00  0.00    -0.393 OA
HETATM   55  H   UNK N   1      22.626  20.493   3.897  0.00  0.00     0.210 HD
ENDBRANCH  42  54
ENDBRANCH  37  38
ENDBRANCH  36  37
ENDBRANCH  34  36
BRANCH  34  56
HETATM   56  O   UNK N   1      20.082  14.512   6.848  0.00  0.00    -0.307 OA
HETATM   57  H   UNK N   1      20.618  13.706   6.773  0.00  0.00     0.222 HD
ENDBRANCH  34  56
ENDBRANCH  33  34
ENDBRANCH  31  33
BRANCH  31  58
HETATM   58  O   UNK N   1      21.156  12.520   8.244  0.00  0.00    -0.307 OA
HETATM   59  H   UNK N   1      21.587  12.587   7.378  0.00  0.00     0.222 HD
ENDBRANCH  31  58
ENDBRANCH   1  31
TORSDOF 22
ENDMDL
MODEL 6
REMARK VINA RESULT:      -7.8      1.858      2.559
REMARK  22 active torsions:
REMARK  status: ('A' for Active; 'I' for Inactive)
REMARK    1  A    between atoms: P_1  and  O_10 
REMARK    2  A    between atoms: P_1  and  O_13 
REMARK    3  A    between atoms: P_1  and  O_16 
REMARK    4  A    between atoms: P_2  and  O_11 
REMARK    5  A    between atoms: P_2  and  O_15 
REMARK    6  A    between atoms: P_2  and  O_18 
REMARK    7  A    between atoms: P_3  and  O_13 
REMARK    8  A    between atoms: P_3  and  O_21 
REMARK    9  A    between atoms: P_3  and  O_22 
REMARK   10  A    between atoms: P_4  and  O_15 
REMARK   11  A    between atoms: P_4  and  O_21 
REMARK   12  A    between atoms: P_4  and  O_23 
REMARK   13  A    between atoms: C_32  and  O_7 
REMARK   14  A    between atoms: C_33  and  O_8 
REMARK   15  A    between atoms: C_36  and  O_9 
REMARK   16  A    between atoms: O_10  and  C_40 
REMARK   17  A    between atoms: O_11  and  C_41 
REMARK   18  A    between atoms: C_35  and  N_26 
REMARK   19  A    between atoms: C_39  and  N_27 
REMARK   20  A    between atoms: N_31  and  C_49 
REMARK   21  A    between atoms: C_34  and  C_40 
REMARK   22  A    between atoms: C_37  and  C_41 
ROOT
HETATM    1  O   UNK N   1      23.765  20.221   4.100  0.00  0.00    -0.195 OA
ENDROOT
BRANCH   1   2
HETATM    2  P   UNK N   1      25.196  20.004   3.131  0.00  0.00     0.410 P 
HETATM    3  O   UNK N   1      25.429  18.472   3.055  0.00  0.00    -0.631 OA
BRANCH   2   4
HETATM    4  O   UNK N   1      26.616  20.670   3.909  0.00  0.00    -0.195 OA
BRANCH   4   5
HETATM    5  P   UNK N   1      26.731  20.024   5.534  0.00  0.00     0.401 P 
HETATM    6  O   UNK N   1      26.322  21.082   6.591  0.00  0.00    -0.631 OA
BRANCH   5   7
HETATM    7  O   UNK N   1      28.348  19.528   5.915  0.00  0.00    -0.294 OA
BRANCH   7   8
HETATM    8  C   UNK N   1      28.508  18.312   5.259  0.00  0.00     0.215 C 
BRANCH   8   9
HETATM    9  C   UNK N   1      28.818  17.205   6.250  0.00  0.00     0.180 C 
HETATM   10  O   UNK N   1      29.815  17.591   7.175  0.00  0.00    -0.353 OA
HETATM   11  C   UNK N   1      30.597  16.436   7.357  0.00  0.00     0.263 C 
HETATM   12  C   UNK N   1      30.692  15.767   5.998  0.00  0.00     0.198 C 
HETATM   13  C   UNK N   1      29.310  16.012   5.459  0.00  0.00     0.182 C 
BRANCH  11  14
HETATM   14  N   UNK N   1      31.911  16.731   7.976  0.00  0.00    -0.280 N 
HETATM   15  C   UNK N   1      32.501  15.848   8.865  0.00  0.00     0.331 A 
HETATM   16  O   UNK N   1      31.958  14.788   9.136  0.00  0.00    -0.246 OA
HETATM   17  N   UNK N   1      33.707  16.150   9.446  0.00  0.00    -0.275 N 
HETATM   18  C   UNK N   1      34.335  17.339   9.175  0.00  0.00     0.250 A 
HETATM   19  H   UNK N   1      34.151  15.470  10.105  0.00  0.00     0.173 HD
HETATM   20  O   UNK N   1      35.397  17.606   9.706  0.00  0.00    -0.268 OA
HETATM   21  C   UNK N   1      33.752  18.241   8.294  0.00  0.00     0.092 A 
HETATM   22  C   UNK N   1      32.536  17.914   7.696  0.00  0.00     0.104 A 
ENDBRANCH  11  14
BRANCH  12  23
HETATM   23  O   UNK N   1      31.619  16.437   5.199  0.00  0.00    -0.388 OA
HETATM   24  H   UNK N   1      32.414  16.790   4.771  0.00  0.00     0.210 HD
ENDBRANCH  12  23
BRANCH  13  25
HETATM   25  O   UNK N   1      28.476  14.930   5.739  0.00  0.00    -0.390 OA
HETATM   26  H   UNK N   1      28.268  14.237   6.384  0.00  0.00     0.210 HD
ENDBRANCH  13  25
ENDBRANCH   8   9
ENDBRANCH   7   8
ENDBRANCH   5   7
BRANCH   5  27
HETATM   27  O   UNK N   1      25.600  18.719   5.727  0.00  0.00    -0.307 OA
HETATM   28  H   UNK N   1      25.274  18.054   6.354  0.00  0.00     0.222 HD
ENDBRANCH   5  27
ENDBRANCH   4   5
ENDBRANCH   2   4
BRANCH   2  29
HETATM   29  O   UNK N   1      24.962  20.536   1.493  0.00  0.00    -0.307 OA
HETATM   30  H   UNK N   1      24.090  20.765   1.134  0.00  0.00     0.222 HD
ENDBRANCH   2  29
ENDBRANCH   1   2
BRANCH   1  31
HETATM   31  P   UNK N   1      22.470  20.004   2.973  0.00  0.00     0.410 P 
HETATM   32  O   UNK N   1      21.209  20.864   2.771  0.00  0.00    -0.631 OA
BRANCH  31  33
HETATM   33  O   UNK N   1      21.571  19.592   4.468  0.00  0.00    -0.195 OA
BRANCH  33  34
HETATM   34  P   UNK N   1      21.650  17.929   5.119  0.00  0.00     0.401 P 
HETATM   35  O   UNK N   1      21.470  17.935   6.662  0.00  0.00    -0.631 OA
BRANCH  34  36
HETATM   36  O   UNK N   1      20.663  16.642   4.481  0.00  0.00    -0.294 OA
BRANCH  36  37
HETATM   37  C   UNK N   1      20.531  15.679   5.475  0.00  0.00     0.215 C 
BRANCH  37  38
HETATM   38  C   UNK N   1      21.495  14.495   5.266  0.00  0.00     0.177 C 
HETATM   39  O   UNK N   1      22.121  14.219   6.478  0.00  0.00    -0.356 OA
HETATM   40  C   UNK N   1      21.125  13.476   7.104  0.00  0.00     0.235 C 
HETATM   41  C   UNK N   1      20.688  12.408   6.142  0.00  0.00     0.088 C 
HETATM   42  C   UNK N   1      20.807  13.186   4.839  0.00  0.00     0.153 C 
BRANCH  40  43
HETATM   43  N   UNK N   1      21.490  13.109   8.452  0.00  0.00    -0.282 N 
HETATM   44  C   UNK N   1      22.584  12.318   8.583  0.00  0.00     0.102 A 
HETATM   45  C   UNK N   1      22.934  11.804   9.820  0.00  0.00     0.065 A 
HETATM   46  C   UNK N   1      22.143  12.114  10.921  0.00  0.00     0.103 A 
HETATM   47  N   UNK N   1      21.062  12.928  10.778  0.00  0.00    -0.295 N 
HETATM   48  C   UNK N   1      20.724  13.430   9.550  0.00  0.00     0.330 A 
ATOM     49  HN  UNK N   1      20.499  13.168  11.595  1.00  0.00     0.172 HD
HETATM   50  O   UNK N   1      19.733  14.132   9.434  0.00  0.00    -0.246 OA
BRANCH  46  51
HETATM   51  N   UNK N   1      22.446  11.552  12.178  0.00  0.00    -0.385 N 
HETATM   52  H   UNK N   1      23.301  11.832  12.676  0.00  0.00     0.157 HD
HETATM   53  H   UNK N   1      21.790  10.892  12.622  0.00  0.00     0.157 HD
ENDBRANCH  46  51
ENDBRANCH  40  43
BRANCH  42  54
HETATM   54  O   UNK N   1      21.649  12.484   3.976  0.00  0.00    -0.393 OA
HETATM   55  H   UNK N   1      22.090  11.667   4.255  0.00  0.00     0.210 HD
ENDBRANCH  42  54
ENDBRANCH  37  38
ENDBRANCH  36  37
ENDBRANCH  34  36
BRANCH  34  56
HETATM   56  O   UNK N   1      23.294  17.407   4.938  0.00  0.00    -0.307 OA
HETATM   57  H   UNK N   1      23.800  17.111   5.711  0.00  0.00     0.222 HD
ENDBRANCH  34  56
ENDBRANCH  33  34
ENDBRANCH  31  33
BRANCH  31  58
HETATM   58  O   UNK N   1      22.999  21.654   2.987  0.00  0.00    -0.307 OA
HETATM   59  H   UNK N   1      23.931  21.913   2.925  0.00  0.00     0.222 HD
ENDBRANCH  31  58
ENDBRANCH   1  31
TORSDOF 22
ENDMDL
MODEL 7
REMARK VINA RESULT:      -7.8      4.449      6.702
REMARK  22 active torsions:
REMARK  status: ('A' for Active; 'I' for Inactive)
REMARK    1  A    between atoms: P_1  and  O_10 
REMARK    2  A    between atoms: P_1  and  O_13 
REMARK    3  A    between atoms: P_1  and  O_16 
REMARK    4  A    between atoms: P_2  and  O_11 
REMARK    5  A    between atoms: P_2  and  O_15 
REMARK    6  A    between atoms: P_2  and  O_18 
REMARK    7  A    between atoms: P_3  and  O_13 
REMARK    8  A    between atoms: P_3  and  O_21 
REMARK    9  A    between atoms: P_3  and  O_22 
REMARK   10  A    between atoms: P_4  and  O_15 
REMARK   11  A    between atoms: P_4  and  O_21 
REMARK   12  A    between atoms: P_4  and  O_23 
REMARK   13  A    between atoms: C_32  and  O_7 
REMARK   14  A    between atoms: C_33  and  O_8 
REMARK   15  A    between atoms: C_36  and  O_9 
REMARK   16  A    between atoms: O_10  and  C_40 
REMARK   17  A    between atoms: O_11  and  C_41 
REMARK   18  A    between atoms: C_35  and  N_26 
REMARK   19  A    between atoms: C_39  and  N_27 
REMARK   20  A    between atoms: N_31  and  C_49 
REMARK   21  A    between atoms: C_34  and  C_40 
REMARK   22  A    between atoms: C_37  and  C_41 
ROOT
HETATM    1  O   UNK N   1      22.357  13.967   8.252  0.00  0.00    -0.195 OA
ENDROOT
BRANCH   1   2
HETATM    2  P   UNK N   1      23.585  12.758   8.505  0.00  0.00     0.410 P 
HETATM    3  O   UNK N   1      23.568  12.446  10.025  0.00  0.00    -0.631 OA
BRANCH   2   4
HETATM    4  O   UNK N   1      25.186  13.375   8.157  0.00  0.00    -0.195 OA
BRANCH   4   5
HETATM    5  P   UNK N   1      25.172  14.137   6.579  0.00  0.00     0.401 P 
HETATM    6  O   UNK N   1      24.432  13.261   5.536  0.00  0.00    -0.631 OA
BRANCH   5   7
HETATM    7  O   UNK N   1      26.777  14.394   5.975  0.00  0.00    -0.294 OA
BRANCH   7   8
HETATM    8  C   UNK N   1      26.724  13.985   4.647  0.00  0.00     0.215 C 
BRANCH   8   9
HETATM    9  C   UNK N   1      27.097  15.127   3.719  0.00  0.00     0.180 C 
HETATM   10  O   UNK N   1      27.586  16.245   4.432  0.00  0.00    -0.353 OA
HETATM   11  C   UNK N   1      27.056  17.358   3.754  0.00  0.00     0.263 C 
HETATM   12  C   UNK N   1      25.651  16.971   3.332  0.00  0.00     0.198 C 
HETATM   13  C   UNK N   1      25.848  15.526   2.964  0.00  0.00     0.182 C 
BRANCH  11  14
HETATM   14  N   UNK N   1      27.122  18.600   4.560  0.00  0.00    -0.280 N 
HETATM   15  C   UNK N   1      26.753  19.824   4.027  0.00  0.00     0.331 A 
HETATM   16  O   UNK N   1      26.336  19.899   2.882  0.00  0.00    -0.246 OA
HETATM   17  N   UNK N   1      26.843  20.965   4.783  0.00  0.00    -0.275 N 
HETATM   18  C   UNK N   1      27.323  20.917   6.067  0.00  0.00     0.250 A 
HETATM   19  H   UNK N   1      26.548  21.882   4.376  0.00  0.00     0.173 HD
HETATM   20  O   UNK N   1      27.414  21.937   6.726  0.00  0.00    -0.268 OA
HETATM   21  C   UNK N   1      27.707  19.700   6.614  0.00  0.00     0.092 A 
HETATM   22  C   UNK N   1      27.593  18.545   5.843  0.00  0.00     0.104 A 
ENDBRANCH  11  14
BRANCH  12  23
HETATM   23  O   UNK N   1      24.785  17.049   4.424  0.00  0.00    -0.388 OA
HETATM   24  H   UNK N   1      24.030  17.029   5.031  0.00  0.00     0.210 HD
ENDBRANCH  12  23
BRANCH  13  25
HETATM   25  O   UNK N   1      26.105  15.399   1.600  0.00  0.00    -0.390 OA
HETATM   26  H   UNK N   1      26.626  15.741   0.856  0.00  0.00     0.210 HD
ENDBRANCH  13  25
ENDBRANCH   8   9
ENDBRANCH   7   8
ENDBRANCH   5   7
BRANCH   5  27
HETATM   27  O   UNK N   1      24.272  15.622   6.653  0.00  0.00    -0.307 OA
HETATM   28  H   UNK N   1      23.818  16.288   6.114  0.00  0.00     0.222 HD
ENDBRANCH   5  27
ENDBRANCH   4   5
ENDBRANCH   2   4
BRANCH   2  29
HETATM   29  O   UNK N   1      23.204  11.263   7.704  0.00  0.00    -0.307 OA
HETATM   30  H   UNK N   1      22.858  11.226   6.799  0.00  0.00     0.222 HD
ENDBRANCH   2  29
ENDBRANCH   1   2
BRANCH   1  31
HETATM   31  P   UNK N   1      21.255  13.711   9.561  0.00  0.00     0.410 P 
HETATM   32  O   UNK N   1      19.722  13.854   9.578  0.00  0.00    -0.631 OA
BRANCH  31  33
HETATM   33  O   UNK N   1      21.109  15.495   9.459  0.00  0.00    -0.195 OA
BRANCH  33  34
HETATM   34  P   UNK N   1      20.572  16.254   7.932  0.00  0.00     0.401 P 
HETATM   35  O   UNK N   1      19.558  17.396   8.215  0.00  0.00    -0.631 OA
BRANCH  34  36
HETATM   36  O   UNK N   1      21.706  16.839   6.746  0.00  0.00    -0.294 OA
BRANCH  36  37
HETATM   37  C   UNK N   1      21.169  17.991   6.181  0.00  0.00     0.215 C 
BRANCH  37  38
HETATM   38  C   UNK N   1      21.826  18.332   4.830  0.00  0.00     0.177 C 
HETATM   39  O   UNK N   1      21.755  17.209   4.010  0.00  0.00    -0.356 OA
HETATM   40  C   UNK N   1      20.444  17.319   3.558  0.00  0.00     0.235 C 
HETATM   41  C   UNK N   1      20.259  18.721   3.050  0.00  0.00     0.088 C 
HETATM   42  C   UNK N   1      21.128  19.464   4.055  0.00  0.00     0.153 C 
BRANCH  40  43
HETATM   43  N   UNK N   1      20.066  16.206   2.719  0.00  0.00    -0.282 N 
HETATM   44  C   UNK N   1      20.093  16.426   1.381  0.00  0.00     0.102 A 
HETATM   45  C   UNK N   1      19.620  15.467   0.502  0.00  0.00     0.065 A 
HETATM   46  C   UNK N   1      19.117  14.278   1.018  0.00  0.00     0.103 A 
HETATM   47  N   UNK N   1      19.118  14.061   2.361  0.00  0.00    -0.295 N 
HETATM   48  C   UNK N   1      19.587  15.017   3.223  0.00  0.00     0.330 A 
ATOM     49  HN  UNK N   1      18.767  13.177   2.731  1.00  0.00     0.172 HD
HETATM   50  O   UNK N   1      19.550  14.820   4.426  0.00  0.00    -0.246 OA
BRANCH  46  51
HETATM   51  N   UNK N   1      18.575  13.313   0.145  0.00  0.00    -0.385 N 
HETATM   52  H   UNK N   1      17.620  13.425  -0.219  0.00  0.00     0.157 HD
HETATM   53  H   UNK N   1      19.149  12.515  -0.167  0.00  0.00     0.157 HD
ENDBRANCH  46  51
ENDBRANCH  40  43
BRANCH  42  54
HETATM   54  O   UNK N   1      22.084  20.202   3.357  0.00  0.00    -0.393 OA
HETATM   55  H   UNK N   1      22.056  20.280   2.390  0.00  0.00     0.210 HD
ENDBRANCH  42  54
ENDBRANCH  37  38
ENDBRANCH  36  37
ENDBRANCH  34  36
BRANCH  34  56
HETATM   56  O   UNK N   1      19.590  15.079   7.117  0.00  0.00    -0.307 OA
HETATM   57  H   UNK N   1      19.137  14.386   7.623  0.00  0.00     0.222 HD
ENDBRANCH  34  56
ENDBRANCH  33  34
ENDBRANCH  31  33
BRANCH  31  58
HETATM   58  O   UNK N   1      20.679  12.945   8.118  0.00  0.00    -0.307 OA
HETATM   59  H   UNK N   1      21.115  13.038   7.258  0.00  0.00     0.222 HD
ENDBRANCH  31  58
ENDBRANCH   1  31
TORSDOF 22
ENDMDL
MODEL 8
REMARK VINA RESULT:      -7.7      3.751      6.893
REMARK  22 active torsions:
REMARK  status: ('A' for Active; 'I' for Inactive)
REMARK    1  A    between atoms: P_1  and  O_10 
REMARK    2  A    between atoms: P_1  and  O_13 
REMARK    3  A    between atoms: P_1  and  O_16 
REMARK    4  A    between atoms: P_2  and  O_11 
REMARK    5  A    between atoms: P_2  and  O_15 
REMARK    6  A    between atoms: P_2  and  O_18 
REMARK    7  A    between atoms: P_3  and  O_13 
REMARK    8  A    between atoms: P_3  and  O_21 
REMARK    9  A    between atoms: P_3  and  O_22 
REMARK   10  A    between atoms: P_4  and  O_15 
REMARK   11  A    between atoms: P_4  and  O_21 
REMARK   12  A    between atoms: P_4  and  O_23 
REMARK   13  A    between atoms: C_32  and  O_7 
REMARK   14  A    between atoms: C_33  and  O_8 
REMARK   15  A    between atoms: C_36  and  O_9 
REMARK   16  A    between atoms: O_10  and  C_40 
REMARK   17  A    between atoms: O_11  and  C_41 
REMARK   18  A    between atoms: C_35  and  N_26 
REMARK   19  A    between atoms: C_39  and  N_27 
REMARK   20  A    between atoms: N_31  and  C_49 
REMARK   21  A    between atoms: C_34  and  C_40 
REMARK   22  A    between atoms: C_37  and  C_41 
ROOT
HETATM    1  O   UNK N   1      20.440  16.453   6.561  0.00  0.00    -0.195 OA
ENDROOT
BRANCH   1   2
HETATM    2  P   UNK N   1      19.061  15.910   5.646  0.00  0.00     0.410 P 
HETATM    3  O   UNK N   1      17.831  16.115   6.569  0.00  0.00    -0.631 OA
BRANCH   2   4
HETATM    4  O   UNK N   1      19.135  14.192   5.315  0.00  0.00    -0.195 OA
BRANCH   4   5
HETATM    5  P   UNK N   1      19.871  13.946   3.744  0.00  0.00     0.401 P 
HETATM    6  O   UNK N   1      20.949  12.833   3.795  0.00  0.00    -0.631 OA
BRANCH   5   7
HETATM    7  O   UNK N   1      20.655  15.382   3.169  0.00  0.00    -0.294 OA
BRANCH   7   8
HETATM    8  C   UNK N   1      22.014  15.099   3.251  0.00  0.00     0.215 C 
BRANCH   8   9
HETATM    9  C   UNK N   1      22.836  16.364   3.092  0.00  0.00     0.180 C 
HETATM   10  O   UNK N   1      24.156  16.198   3.570  0.00  0.00    -0.353 OA
HETATM   11  C   UNK N   1      24.465  17.421   4.194  0.00  0.00     0.263 C 
HETATM   12  C   UNK N   1      23.195  17.878   4.887  0.00  0.00     0.198 C 
HETATM   13  C   UNK N   1      22.153  17.454   3.889  0.00  0.00     0.182 C 
BRANCH  11  14
HETATM   14  N   UNK N   1      25.638  17.319   5.093  0.00  0.00    -0.280 N 
HETATM   15  C   UNK N   1      26.336  18.447   5.495  0.00  0.00     0.331 A 
HETATM   16  O   UNK N   1      25.976  19.557   5.135  0.00  0.00    -0.246 OA
HETATM   17  N   UNK N   1      27.434  18.330   6.309  0.00  0.00    -0.275 N 
HETATM   18  C   UNK N   1      27.873  17.097   6.718  0.00  0.00     0.250 A 
HETATM   19  H   UNK N   1      27.945  19.188   6.619  0.00  0.00     0.173 HD
HETATM   20  O   UNK N   1      28.857  17.001   7.429  0.00  0.00    -0.268 OA
HETATM   21  C   UNK N   1      27.192  15.955   6.316  0.00  0.00     0.092 A 
HETATM   22  C   UNK N   1      26.067  16.088   5.505  0.00  0.00     0.104 A 
ENDBRANCH  11  14
BRANCH  12  23
HETATM   23  O   UNK N   1      23.010  17.161   6.070  0.00  0.00    -0.388 OA
HETATM   24  H   UNK N   1      22.760  16.526   6.758  0.00  0.00     0.210 HD
ENDBRANCH  12  23
BRANCH  13  25
HETATM   25  O   UNK N   1      21.850  18.503   3.022  0.00  0.00    -0.390 OA
HETATM   26  H   UNK N   1      22.116  18.961   2.210  0.00  0.00     0.210 HD
ENDBRANCH  13  25
ENDBRANCH   8   9
ENDBRANCH   7   8
ENDBRANCH   5   7
BRANCH   5  27
HETATM   27  O   UNK N   1      18.676  13.376   2.619  0.00  0.00    -0.307 OA
HETATM   28  H   UNK N   1      17.755  13.081   2.540  0.00  0.00     0.222 HD
ENDBRANCH   5  27
ENDBRANCH   4   5
ENDBRANCH   2   4
BRANCH   2  29
HETATM   29  O   UNK N   1      18.779  16.897   4.243  0.00  0.00    -0.307 OA
HETATM   30  H   UNK N   1      17.891  17.081   3.900  0.00  0.00     0.222 HD
ENDBRANCH   2  29
ENDBRANCH   1   2
BRANCH   1  31
HETATM   31  P   UNK N   1      19.760  16.944   8.074  0.00  0.00     0.410 P 
HETATM   32  O   UNK N   1      20.354  17.876   9.145  0.00  0.00    -0.631 OA
BRANCH  31  33
HETATM   33  O   UNK N   1      21.060  15.889   8.716  0.00  0.00    -0.195 OA
BRANCH  33  34
HETATM   34  P   UNK N   1      20.659  14.252   9.310  0.00  0.00     0.401 P 
HETATM   35  O   UNK N   1      20.496  13.263   8.123  0.00  0.00    -0.631 OA
BRANCH  34  36
HETATM   36  O   UNK N   1      21.615  13.454  10.530  0.00  0.00    -0.294 OA
BRANCH  36  37
HETATM   37  C   UNK N   1      21.652  12.100  10.219  0.00  0.00     0.215 C 
BRANCH  37  38
HETATM   38  C   UNK N   1      23.093  11.555  10.181  0.00  0.00     0.177 C 
HETATM   39  O   UNK N   1      23.370  11.134   8.883  0.00  0.00    -0.356 OA
HETATM   40  C   UNK N   1      23.668  12.355   8.287  0.00  0.00     0.235 C 
HETATM   41  C   UNK N   1      24.676  13.047   9.160  0.00  0.00     0.088 C 
HETATM   42  C   UNK N   1      24.172  12.597  10.524  0.00  0.00     0.153 C 
BRANCH  40  43
HETATM   43  N   UNK N   1      23.929  12.218   6.874  0.00  0.00    -0.282 N 
HETATM   44  C   UNK N   1      24.520  11.062   6.481  0.00  0.00     0.102 A 
HETATM   45  C   UNK N   1      24.932  10.894   5.171  0.00  0.00     0.065 A 
HETATM   46  C   UNK N   1      24.728  11.932   4.268  0.00  0.00     0.103 A 
HETATM   47  N   UNK N   1      24.112  13.077   4.670  0.00  0.00    -0.295 N 
HETATM   48  C   UNK N   1      23.710  13.234   5.970  0.00  0.00     0.330 A 
ATOM     49  HN  UNK N   1      23.947  13.825   3.996  1.00  0.00     0.172 HD
HETATM   50  O   UNK N   1      23.189  14.279   6.321  0.00  0.00    -0.246 OA
BRANCH  46  51
HETATM   51  N   UNK N   1      25.194  11.805   2.943  0.00  0.00    -0.385 N 
HETATM   52  H   UNK N   1      26.184  11.595   2.762  0.00  0.00     0.157 HD
HETATM   53  H   UNK N   1      24.536  11.879   2.153  0.00  0.00     0.157 HD
ENDBRANCH  46  51
ENDBRANCH  40  43
BRANCH  42  54
HETATM   54  O   UNK N   1      25.219  11.971  11.201  0.00  0.00    -0.393 OA
HETATM   55  H   UNK N   1      26.122  12.325  11.175  0.00  0.00     0.210 HD
ENDBRANCH  42  54
ENDBRANCH  37  38
ENDBRANCH  36  37
ENDBRANCH  34  36
BRANCH  34  56
HETATM   56  O   UNK N   1      19.047  14.338   9.946  0.00  0.00    -0.307 OA
HETATM   57  H   UNK N   1      18.292  14.072   9.398  0.00  0.00     0.222 HD
ENDBRANCH  34  56
ENDBRANCH  33  34
ENDBRANCH  31  33
BRANCH  31  58
HETATM   58  O   UNK N   1      20.411  18.307   7.225  0.00  0.00    -0.307 OA
HETATM   59  H   UNK N   1      21.091  18.888   7.598  0.00  0.00     0.222 HD
ENDBRANCH  31  58
ENDBRANCH   1  31
TORSDOF 22
ENDMDL
MODEL 9
REMARK VINA RESULT:      -7.7      3.260      5.566
REMARK  22 active torsions:
REMARK  status: ('A' for Active; 'I' for Inactive)
REMARK    1  A    between atoms: P_1  and  O_10 
REMARK    2  A    between atoms: P_1  and  O_13 
REMARK    3  A    between atoms: P_1  and  O_16 
REMARK    4  A    between atoms: P_2  and  O_11 
REMARK    5  A    between atoms: P_2  and  O_15 
REMARK    6  A    between atoms: P_2  and  O_18 
REMARK    7  A    between atoms: P_3  and  O_13 
REMARK    8  A    between atoms: P_3  and  O_21 
REMARK    9  A    between atoms: P_3  and  O_22 
REMARK   10  A    between atoms: P_4  and  O_15 
REMARK   11  A    between atoms: P_4  and  O_21 
REMARK   12  A    between atoms: P_4  and  O_23 
REMARK   13  A    between atoms: C_32  and  O_7 
REMARK   14  A    between atoms: C_33  and  O_8 
REMARK   15  A    between atoms: C_36  and  O_9 
REMARK   16  A    between atoms: O_10  and  C_40 
REMARK   17  A    between atoms: O_11  and  C_41 
REMARK   18  A    between atoms: C_35  and  N_26 
REMARK   19  A    between atoms: C_39  and  N_27 
REMARK   20  A    between atoms: N_31  and  C_49 
REMARK   21  A    between atoms: C_34  and  C_40 
REMARK   22  A    between atoms: C_37  and  C_41 
ROOT
HETATM    1  O   UNK N   1      20.828  17.102   3.259  0.00  0.00    -0.195 OA
ENDROOT
BRANCH   1   2
HETATM    2  P   UNK N   1      20.029  18.081   2.060  0.00  0.00     0.410 P 
HETATM    3  O   UNK N   1      19.821  17.159   0.828  0.00  0.00    -0.631 OA
BRANCH   2   4
HETATM    4  O   UNK N   1      21.044  19.397   1.512  0.00  0.00    -0.195 OA
BRANCH   4   5
HETATM    5  P   UNK N   1      21.775  20.170   2.905  0.00  0.00     0.401 P 
HETATM    6  O   UNK N   1      21.978  21.688   2.665  0.00  0.00    -0.631 OA
BRANCH   5   7
HETATM    7  O   UNK N   1      23.334  19.502   3.265  0.00  0.00    -0.294 OA
BRANCH   7   8
HETATM    8  C   UNK N   1      24.227  20.541   3.026  0.00  0.00     0.215 C 
BRANCH   8   9
HETATM    9  C   UNK N   1      25.624  20.165   3.483  0.00  0.00     0.180 C 
HETATM   10  O   UNK N   1      26.047  18.937   2.924  0.00  0.00    -0.353 OA
HETATM   11  C   UNK N   1      26.754  18.299   3.960  0.00  0.00     0.263 C 
HETATM   12  C   UNK N   1      26.006  18.615   5.243  0.00  0.00     0.198 C 
HETATM   13  C   UNK N   1      25.590  20.037   4.991  0.00  0.00     0.182 C 
BRANCH  11  14
HETATM   14  N   UNK N   1      26.940  16.850   3.713  0.00  0.00    -0.280 N 
HETATM   15  C   UNK N   1      27.790  16.090   4.499  0.00  0.00     0.331 A 
HETATM   16  O   UNK N   1      28.385  16.599   5.437  0.00  0.00    -0.246 OA
HETATM   17  N   UNK N   1      27.967  14.754   4.239  0.00  0.00    -0.275 N 
HETATM   18  C   UNK N   1      27.326  14.157   3.184  0.00  0.00     0.250 A 
HETATM   19  H   UNK N   1      28.599  14.186   4.848  0.00  0.00     0.173 HD
HETATM   20  O   UNK N   1      27.500  12.974   2.952  0.00  0.00    -0.268 OA
HETATM   21  C   UNK N   1      26.478  14.906   2.379  0.00  0.00     0.092 A 
HETATM   22  C   UNK N   1      26.292  16.257   2.665  0.00  0.00     0.104 A 
ENDBRANCH  11  14
BRANCH  12  23
HETATM   23  O   UNK N   1      24.866  17.816   5.341  0.00  0.00    -0.388 OA
HETATM   24  H   UNK N   1      24.144  17.184   5.206  0.00  0.00     0.210 HD
ENDBRANCH  12  23
BRANCH  13  25
HETATM   25  O   UNK N   1      26.525  20.923   5.524  0.00  0.00    -0.390 OA
HETATM   26  H   UNK N   1      27.442  21.021   5.822  0.00  0.00     0.210 HD
ENDBRANCH  13  25
ENDBRANCH   8   9
ENDBRANCH   7   8
ENDBRANCH   5   7
BRANCH   5  27
HETATM   27  O   UNK N   1      20.702  20.060   4.267  0.00  0.00    -0.307 OA
HETATM   28  H   UNK N   1      19.768  20.019   4.525  0.00  0.00     0.222 HD
ENDBRANCH   5  27
ENDBRANCH   4   5
ENDBRANCH   2   4
BRANCH   2  29
HETATM   29  O   UNK N   1      18.439  18.567   2.569  0.00  0.00    -0.307 OA
HETATM   30  H   UNK N   1      18.143  19.490   2.557  0.00  0.00     0.222 HD
ENDBRANCH   2  29
ENDBRANCH   1   2
BRANCH   1  31
HETATM   31  P   UNK N   1      19.593  16.011   3.787  0.00  0.00     0.410 P 
HETATM   32  O   UNK N   1      19.441  15.308   5.148  0.00  0.00    -0.631 OA
BRANCH  31  33
HETATM   33  O   UNK N   1      20.938  14.830   3.679  0.00  0.00    -0.195 OA
BRANCH  33  34
HETATM   34  P   UNK N   1      22.540  15.248   4.353  0.00  0.00     0.401 P 
HETATM   35  O   UNK N   1      22.393  15.877   5.766  0.00  0.00    -0.631 OA
BRANCH  34  36
HETATM   36  O   UNK N   1      23.839  14.089   4.427  0.00  0.00    -0.294 OA
BRANCH  36  37
HETATM   37  C   UNK N   1      24.537  14.312   5.609  0.00  0.00     0.215 C 
BRANCH  37  38
HETATM   38  C   UNK N   1      25.277  13.049   6.090  0.00  0.00     0.177 C 
HETATM   39  O   UNK N   1      25.195  12.993   7.479  0.00  0.00    -0.356 OA
HETATM   40  C   UNK N   1      23.915  12.469   7.627  0.00  0.00     0.235 C 
HETATM   41  C   UNK N   1      23.821  11.253   6.748  0.00  0.00     0.088 C 
HETATM   42  C   UNK N   1      24.672  11.729   5.579  0.00  0.00     0.153 C 
BRANCH  40  43
HETATM   43  N   UNK N   1      23.528  12.371   9.015  0.00  0.00    -0.282 N 
HETATM   44  C   UNK N   1      24.535  12.202   9.908  0.00  0.00     0.102 A 
HETATM   45  C   UNK N   1      24.256  11.964  11.243  0.00  0.00     0.065 A 
HETATM   46  C   UNK N   1      22.927  11.901  11.647  0.00  0.00     0.103 A 
HETATM   47  N   UNK N   1      21.928  12.097  10.745  0.00  0.00    -0.295 N 
HETATM   48  C   UNK N   1      22.214  12.330   9.426  0.00  0.00     0.330 A 
ATOM     49  HN  UNK N   1      20.955  12.071  11.053  1.00  0.00     0.172 HD
HETATM   50  O   UNK N   1      21.306  12.471   8.624  0.00  0.00    -0.246 OA
BRANCH  46  51
HETATM   51  N   UNK N   1      22.619  11.600  12.990  0.00  0.00    -0.385 N 
HETATM   52  H   UNK N   1      22.166  12.304  13.587  0.00  0.00     0.157 HD
HETATM   53  H   UNK N   1      22.807  10.658  13.365  0.00  0.00     0.157 HD
ENDBRANCH  46  51
ENDBRANCH  40  43
BRANCH  42  54
HETATM   54  O   UNK N   1      25.695  10.804   5.369  0.00  0.00    -0.393 OA
HETATM   55  H   UNK N   1      26.152  10.742   4.515  0.00  0.00     0.210 HD
ENDBRANCH  42  54
ENDBRANCH  37  38
ENDBRANCH  36  37
ENDBRANCH  34  36
BRANCH  34  56
HETATM   56  O   UNK N   1      23.138  16.579   3.414  0.00  0.00    -0.307 OA
HETATM   57  H   UNK N   1      23.992  16.510   2.959  0.00  0.00     0.222 HD
ENDBRANCH  34  56
ENDBRANCH  33  34
ENDBRANCH  31  33
BRANCH  31  58
HETATM   58  O   UNK N   1      19.903  17.215   4.994  0.00  0.00    -0.307 OA
HETATM   59  H   UNK N   1      20.752  17.298   5.455  0.00  0.00     0.222 HD
ENDBRANCH  31  58
ENDBRANCH   1  31
TORSDOF 22
ENDMDL
