MODEL 1
REMARK VINA RESULT:      -7.1      0.000      0.000
REMARK  13 active torsions:
REMARK  status: ('A' for Active; 'I' for Inactive)
REMARK    1  A    between atoms: O_3  and  C_25 
REMARK    2  A    between atoms: O_3  and  C_30 
REMARK    3  A    between atoms: O_5  and  N_10 
REMARK       I    between atoms: N_6  and  C_22 
REMARK    4  A    between atoms: C_13  and  N_7 
REMARK    5  A    between atoms: N_7  and  C_24 
REMARK       I    between atoms: N_8  and  C_23 
REMARK    6  A    between atoms: N_8  and  C_26 
REMARK    7  A    between atoms: N_9  and  C_35 
REMARK    8  A    between atoms: C_12  and  C_13 
REMARK    9  A    between atoms: C_13  and  C_22 
REMARK   10  A    between atoms: C_18  and  C_23 
REMARK   11  A    between atoms: C_24  and  C_25 
REMARK   12  A    between atoms: C_26  and  C_27 
REMARK   13  A    between atoms: C_33  and  C_35 
ROOT
HETATM    1  O   UNK N   1      34.521  13.673  11.730  0.00  0.00    -0.271 OA
HETATM    2  N   UNK N   1      36.341  13.671  10.446  0.00  0.00    -0.337 N 
HETATM    3  C   UNK N   1      37.321  13.318  11.403  0.00  0.00     0.180 A 
HETATM    4  C   UNK N   1      37.159  13.763   9.298  0.00  0.00     0.129 A 
HETATM    5  C   UNK N   1      38.343  13.362  10.231  0.00  0.00     0.055 A 
HETATM    6  C   UNK N   1      34.999  13.842  10.621  0.00  0.00     0.243 C 
ENDROOT
BRANCH   3   7
HETATM    7  C   UNK N   1      37.115  11.918  11.939  0.00  0.00     0.240 C 
HETATM    8  O   UNK N   1      37.245  10.954  11.200  0.00  0.00    -0.271 OA
HETATM    9  N   UNK N   1      36.805  11.719  13.242  0.00  0.00    -0.355 N 
HETATM   10  H   UNK N   1      36.684  10.800  13.573  0.00  0.00     0.162 HD
BRANCH   9  11
HETATM   11  C   UNK N   1      36.651  12.824  14.158  0.00  0.00     0.161 C 
BRANCH  11  12
HETATM   12  C   UNK N   1      36.238  12.320  15.498  0.00  0.00    -0.040 A 
HETATM   13  C   UNK N   1      35.439  13.122  16.315  0.00  0.00     0.010 A 
HETATM   14  C   UNK N   1      35.046  12.665  17.575  0.00  0.00     0.016 A 
HETATM   15  C   UNK N   1      35.439  11.397  18.033  0.00  0.00     0.009 A 
HETATM   16  C   UNK N   1      36.240  10.598  17.199  0.00  0.00     0.016 A 
HETATM   17  C   UNK N   1      36.642  11.057  15.941  0.00  0.00     0.010 A 
BRANCH  15  18
HETATM   18  C   UNK N   1      35.027  10.868  19.372  0.00  0.00     0.129 C 
HETATM   19  N   UNK N   1      35.323  11.452  20.487  0.00  0.00    -0.253 N 
ATOM     20  HN  UNK N   1      34.999  11.029  21.358  1.00  0.00     0.196 HD
BRANCH  18  21
HETATM   21  N   UNK N   1      34.273   9.672  19.423  0.00  0.00    -0.383 N 
HETATM   22  H   UNK N   1      34.503   8.935  20.035  0.00  0.00     0.157 HD
HETATM   23  H   UNK N   1      33.494   9.575  18.830  0.00  0.00     0.157 HD
ENDBRANCH  18  21
BRANCH  19  24
HETATM   24  O   UNK N   1      36.023  12.565  20.551  0.00  0.00    -0.288 OA
HETATM   25  H   UNK N   1      36.522  12.877  19.822  0.00  0.00     0.244 HD
ENDBRANCH  19  24
ENDBRANCH  15  18
ENDBRANCH  11  12
ENDBRANCH   9  11
ENDBRANCH   3   7
BRANCH   6  26
HETATM   26  C   UNK N   1      34.059  14.253   9.492  0.00  0.00     0.174 C 
BRANCH  26  27
HETATM   27  N   UNK N   1      32.940  13.339   9.285  0.00  0.00    -0.400 N 
HETATM   28  H   UNK N   1      31.970  13.522   9.544  0.00  0.00     0.154 HD
BRANCH  27  29
HETATM   29  C   UNK N   1      33.433  12.128   8.649  0.00  0.00     0.226 C 
BRANCH  29  30
HETATM   30  C   UNK N   1      33.088  10.950   9.494  0.00  0.00     0.276 C 
HETATM   31  O   UNK N   1      31.971  10.458   9.421  0.00  0.00    -0.263 OA
BRANCH  30  32
HETATM   32  O   UNK N   1      34.017  10.446  10.342  0.00  0.00    -0.321 OA
BRANCH  32  33
HETATM   33  C   UNK N   1      33.748  10.184  11.664  0.00  0.00     0.174 C 
HETATM   34  C   UNK N   1      34.503   8.943  12.091  0.00  0.00     0.034 C 
ENDBRANCH  32  33
ENDBRANCH  30  32
ENDBRANCH  29  30
ENDBRANCH  27  29
ENDBRANCH  26  27
BRANCH  26  35
HETATM   35  C   UNK N   1      33.509  15.685   9.611  0.00  0.00     0.017 C 
HETATM   36  C   UNK N   1      32.414  15.890   8.552  0.00  0.00     0.007 C 
HETATM   37  C   UNK N   1      32.049  17.366   8.417  0.00  0.00     0.000 C 
HETATM   38  C   UNK N   1      33.253  18.223   7.998  0.00  0.00     0.000 C 
HETATM   39  C   UNK N   1      34.609  17.571   8.293  0.00  0.00     0.000 C 
HETATM   40  C   UNK N   1      34.565  16.810   9.612  0.00  0.00     0.007 C 
ENDBRANCH  26  35
ENDBRANCH   6  26
TORSDOF 13
ENDMDL
MODEL 2
REMARK VINA RESULT:      -7.1      3.105      9.312
REMARK  13 active torsions:
REMARK  status: ('A' for Active; 'I' for Inactive)
REMARK    1  A    between atoms: O_3  and  C_25 
REMARK    2  A    between atoms: O_3  and  C_30 
REMARK    3  A    between atoms: O_5  and  N_10 
REMARK       I    between atoms: N_6  and  C_22 
REMARK    4  A    between atoms: C_13  and  N_7 
REMARK    5  A    between atoms: N_7  and  C_24 
REMARK       I    between atoms: N_8  and  C_23 
REMARK    6  A    between atoms: N_8  and  C_26 
REMARK    7  A    between atoms: N_9  and  C_35 
REMARK    8  A    between atoms: C_12  and  C_13 
REMARK    9  A    between atoms: C_13  and  C_22 
REMARK   10  A    between atoms: C_18  and  C_23 
REMARK   11  A    between atoms: C_24  and  C_25 
REMARK   12  A    between atoms: C_26  and  C_27 
REMARK   13  A    between atoms: C_33  and  C_35 
ROOT
HETATM    1  O   UNK N   1      34.353  14.284  12.211  0.00  0.00    -0.271 OA
HETATM    2  N   UNK N   1      36.135  13.985  10.908  0.00  0.00    -0.337 N 
HETATM    3  C   UNK N   1      35.656  14.543   9.700  0.00  0.00     0.180 A 
HETATM    4  C   UNK N   1      37.439  13.630  10.501  0.00  0.00     0.129 A 
HETATM    5  C   UNK N   1      37.062  14.229   9.111  0.00  0.00     0.055 A 
HETATM    6  C   UNK N   1      35.493  13.863  12.106  0.00  0.00     0.243 C 
ENDROOT
BRANCH   3   7
HETATM    7  C   UNK N   1      35.400  16.030   9.823  0.00  0.00     0.240 C 
HETATM    8  O   UNK N   1      36.089  16.711  10.567  0.00  0.00    -0.271 OA
HETATM    9  N   UNK N   1      34.421  16.621   9.096  0.00  0.00    -0.355 N 
HETATM   10  H   UNK N   1      34.276  17.591   9.184  0.00  0.00     0.162 HD
BRANCH   9  11
HETATM   11  C   UNK N   1      33.587  15.862   8.196  0.00  0.00     0.161 C 
BRANCH  11  12
HETATM   12  C   UNK N   1      32.267  16.533   8.038  0.00  0.00    -0.040 A 
HETATM   13  C   UNK N   1      32.018  17.725   8.721  0.00  0.00     0.010 A 
HETATM   14  C   UNK N   1      30.783  18.366   8.585  0.00  0.00     0.016 A 
HETATM   15  C   UNK N   1      29.784  17.829   7.758  0.00  0.00     0.009 A 
HETATM   16  C   UNK N   1      30.049  16.631   7.073  0.00  0.00     0.016 A 
HETATM   17  C   UNK N   1      31.280  15.983   7.214  0.00  0.00     0.010 A 
BRANCH  15  18
HETATM   18  C   UNK N   1      28.455  18.493   7.577  0.00  0.00     0.129 C 
HETATM   19  N   UNK N   1      27.516  18.456   8.467  0.00  0.00    -0.253 N 
ATOM     20  HN  UNK N   1      26.640  18.940   8.268  1.00  0.00     0.196 HD
BRANCH  18  21
HETATM   21  N   UNK N   1      28.209  19.200   6.377  0.00  0.00    -0.383 N 
HETATM   22  H   UNK N   1      27.304  19.481   6.111  0.00  0.00     0.157 HD
HETATM   23  H   UNK N   1      28.968  19.417   5.789  0.00  0.00     0.157 HD
ENDBRANCH  18  21
BRANCH  19  24
HETATM   24  O   UNK N   1      27.640  17.823   9.614  0.00  0.00    -0.288 OA
HETATM   25  H   UNK N   1      27.155  18.078  10.374  0.00  0.00     0.244 HD
ENDBRANCH  19  24
ENDBRANCH  15  18
ENDBRANCH  11  12
ENDBRANCH   9  11
ENDBRANCH   3   7
BRANCH   6  26
HETATM   26  C   UNK N   1      36.130  13.209  13.328  0.00  0.00     0.174 C 
BRANCH  26  27
HETATM   27  N   UNK N   1      35.579  13.662  14.602  0.00  0.00    -0.400 N 
HETATM   28  H   UNK N   1      34.594  13.635  14.865  0.00  0.00     0.154 HD
BRANCH  27  29
HETATM   29  C   UNK N   1      36.665  14.155  15.435  0.00  0.00     0.226 C 
BRANCH  29  30
HETATM   30  C   UNK N   1      36.148  14.448  16.801  0.00  0.00     0.276 C 
HETATM   31  O   UNK N   1      36.673  15.323  17.473  0.00  0.00    -0.263 OA
BRANCH  30  32
HETATM   32  O   UNK N   1      35.107  13.728  17.285  0.00  0.00    -0.321 OA
BRANCH  32  33
HETATM   33  C   UNK N   1      35.197  12.971  18.429  0.00  0.00     0.174 C 
HETATM   34  C   UNK N   1      35.360  11.514  18.052  0.00  0.00     0.034 C 
ENDBRANCH  32  33
ENDBRANCH  30  32
ENDBRANCH  29  30
ENDBRANCH  27  29
ENDBRANCH  26  27
BRANCH  26  35
HETATM   35  C   UNK N   1      36.117  11.671  13.305  0.00  0.00     0.017 C 
HETATM   36  C   UNK N   1      34.929  11.168  14.142  0.00  0.00     0.007 C 
HETATM   37  C   UNK N   1      35.039   9.670  14.409  0.00  0.00     0.000 C 
HETATM   38  C   UNK N   1      36.321   9.312  15.177  0.00  0.00     0.000 C 
HETATM   39  C   UNK N   1      37.423  10.374  15.069  0.00  0.00     0.000 C 
HETATM   40  C   UNK N   1      37.448  10.984  13.675  0.00  0.00     0.007 C 
ENDBRANCH  26  35
ENDBRANCH   6  26
TORSDOF 13
ENDMDL
MODEL 3
REMARK VINA RESULT:      -6.9      3.197      9.730
REMARK  13 active torsions:
REMARK  status: ('A' for Active; 'I' for Inactive)
REMARK    1  A    between atoms: O_3  and  C_25 
REMARK    2  A    between atoms: O_3  and  C_30 
REMARK    3  A    between atoms: O_5  and  N_10 
REMARK       I    between atoms: N_6  and  C_22 
REMARK    4  A    between atoms: C_13  and  N_7 
REMARK    5  A    between atoms: N_7  and  C_24 
REMARK       I    between atoms: N_8  and  C_23 
REMARK    6  A    between atoms: N_8  and  C_26 
REMARK    7  A    between atoms: N_9  and  C_35 
REMARK    8  A    between atoms: C_12  and  C_13 
REMARK    9  A    between atoms: C_13  and  C_22 
REMARK   10  A    between atoms: C_18  and  C_23 
REMARK   11  A    between atoms: C_24  and  C_25 
REMARK   12  A    between atoms: C_26  and  C_27 
REMARK   13  A    between atoms: C_33  and  C_35 
ROOT
HETATM    1  O   UNK N   1      34.351  13.814  12.262  0.00  0.00    -0.271 OA
HETATM    2  N   UNK N   1      36.311  13.720  11.206  0.00  0.00    -0.337 N 
HETATM    3  C   UNK N   1      35.968  14.352   9.989  0.00  0.00     0.180 A 
HETATM    4  C   UNK N   1      37.679  13.470  10.962  0.00  0.00     0.129 A 
HETATM    5  C   UNK N   1      37.458  14.163   9.583  0.00  0.00     0.055 A 
HETATM    6  C   UNK N   1      35.520  13.464  12.288  0.00  0.00     0.243 C 
ENDROOT
BRANCH   3   7
HETATM    7  C   UNK N   1      35.603  15.808  10.186  0.00  0.00     0.240 C 
HETATM    8  O   UNK N   1      36.417  16.585  10.659  0.00  0.00    -0.271 OA
HETATM    9  N   UNK N   1      34.381  16.265   9.822  0.00  0.00    -0.355 N 
HETATM   10  H   UNK N   1      34.166  17.217   9.951  0.00  0.00     0.162 HD
BRANCH   9  11
HETATM   11  C   UNK N   1      33.388  15.390   9.250  0.00  0.00     0.161 C 
BRANCH  11  12
HETATM   12  C   UNK N   1      33.194  15.714   7.809  0.00  0.00    -0.040 A 
HETATM   13  C   UNK N   1      32.167  15.091   7.098  0.00  0.00     0.010 A 
HETATM   14  C   UNK N   1      31.973  15.382   5.745  0.00  0.00     0.016 A 
HETATM   15  C   UNK N   1      32.799  16.307   5.086  0.00  0.00     0.009 A 
HETATM   16  C   UNK N   1      33.827  16.930   5.813  0.00  0.00     0.016 A 
HETATM   17  C   UNK N   1      34.028  16.634   7.165  0.00  0.00     0.010 A 
BRANCH  15  18
HETATM   18  C   UNK N   1      32.615  16.654   3.642  0.00  0.00     0.129 C 
HETATM   19  N   UNK N   1      31.749  17.520   3.224  0.00  0.00    -0.253 N 
ATOM     20  HN  UNK N   1      31.689  17.704   2.223  1.00  0.00     0.196 HD
BRANCH  18  21
HETATM   21  N   UNK N   1      33.428  16.008   2.682  0.00  0.00    -0.383 N 
HETATM   22  H   UNK N   1      33.727  16.460   1.859  0.00  0.00     0.157 HD
HETATM   23  H   UNK N   1      33.705  15.078   2.842  0.00  0.00     0.157 HD
ENDBRANCH  18  21
BRANCH  19  24
HETATM   24  O   UNK N   1      30.941  18.172   4.033  0.00  0.00    -0.288 OA
HETATM   25  H   UNK N   1      30.333  17.727   4.590  0.00  0.00     0.244 HD
ENDBRANCH  19  24
ENDBRANCH  15  18
ENDBRANCH  11  12
ENDBRANCH   9  11
ENDBRANCH   3   7
BRANCH   6  26
HETATM   26  C   UNK N   1      36.023  12.744  13.534  0.00  0.00     0.174 C 
BRANCH  26  27
HETATM   27  N   UNK N   1      35.174  12.919  14.709  0.00  0.00    -0.400 N 
HETATM   28  H   UNK N   1      34.209  12.600  14.796  0.00  0.00     0.154 HD
BRANCH  27  29
HETATM   29  C   UNK N   1      35.929  13.622  15.735  0.00  0.00     0.226 C 
BRANCH  29  30
HETATM   30  C   UNK N   1      35.396  13.259  17.078  0.00  0.00     0.276 C 
HETATM   31  O   UNK N   1      35.459  14.067  17.993  0.00  0.00    -0.263 OA
BRANCH  30  32
HETATM   32  O   UNK N   1      34.857  12.031  17.269  0.00  0.00    -0.321 OA
BRANCH  32  33
HETATM   33  C   UNK N   1      35.521  11.026  17.932  0.00  0.00     0.174 C 
HETATM   34  C   UNK N   1      34.730   9.740  17.811  0.00  0.00     0.034 C 
ENDBRANCH  32  33
ENDBRANCH  30  32
ENDBRANCH  29  30
ENDBRANCH  27  29
ENDBRANCH  26  27
BRANCH  26  35
HETATM   35  C   UNK N   1      36.287  11.241  13.338  0.00  0.00     0.017 C 
HETATM   36  C   UNK N   1      35.163  10.443  14.020  0.00  0.00     0.007 C 
HETATM   37  C   UNK N   1      35.524   8.964  14.124  0.00  0.00     0.000 C 
HETATM   38  C   UNK N   1      36.805   8.738  14.943  0.00  0.00     0.000 C 
HETATM   39  C   UNK N   1      37.703   9.977  15.040  0.00  0.00     0.000 C 
HETATM   40  C   UNK N   1      37.696  10.751  13.729  0.00  0.00     0.007 C 
ENDBRANCH  26  35
ENDBRANCH   6  26
TORSDOF 13
ENDMDL
MODEL 4
REMARK VINA RESULT:      -6.8      3.851      9.917
REMARK  13 active torsions:
REMARK  status: ('A' for Active; 'I' for Inactive)
REMARK    1  A    between atoms: O_3  and  C_25 
REMARK    2  A    between atoms: O_3  and  C_30 
REMARK    3  A    between atoms: O_5  and  N_10 
REMARK       I    between atoms: N_6  and  C_22 
REMARK    4  A    between atoms: C_13  and  N_7 
REMARK    5  A    between atoms: N_7  and  C_24 
REMARK       I    between atoms: N_8  and  C_23 
REMARK    6  A    between atoms: N_8  and  C_26 
REMARK    7  A    between atoms: N_9  and  C_35 
REMARK    8  A    between atoms: C_12  and  C_13 
REMARK    9  A    between atoms: C_13  and  C_22 
REMARK   10  A    between atoms: C_18  and  C_23 
REMARK   11  A    between atoms: C_24  and  C_25 
REMARK   12  A    between atoms: C_26  and  C_27 
REMARK   13  A    between atoms: C_33  and  C_35 
ROOT
HETATM    1  O   UNK N   1      33.486  14.786  11.274  0.00  0.00    -0.271 OA
HETATM    2  N   UNK N   1      34.856  14.605   9.527  0.00  0.00    -0.337 N 
HETATM    3  C   UNK N   1      34.087  15.260   8.538  0.00  0.00     0.180 A 
HETATM    4  C   UNK N   1      36.001  14.290   8.762  0.00  0.00     0.129 A 
HETATM    5  C   UNK N   1      35.282  15.002   7.576  0.00  0.00     0.055 A 
HETATM    6  C   UNK N   1      34.551  14.380  10.837  0.00  0.00     0.243 C 
ENDROOT
BRANCH   3   7
HETATM    7  C   UNK N   1      33.899  16.730   8.845  0.00  0.00     0.240 C 
HETATM    8  O   UNK N   1      34.870  17.466   8.935  0.00  0.00    -0.271 OA
HETATM    9  N   UNK N   1      32.657  17.247   9.002  0.00  0.00    -0.355 N 
HETATM   10  H   UNK N   1      32.556  18.207   9.193  0.00  0.00     0.162 HD
BRANCH   9  11
HETATM   11  C   UNK N   1      31.478  16.421   8.896  0.00  0.00     0.161 C 
BRANCH  11  12
HETATM   12  C   UNK N   1      30.412  17.150   8.153  0.00  0.00    -0.040 A 
HETATM   13  C   UNK N   1      30.351  17.045   6.763  0.00  0.00     0.010 A 
HETATM   14  C   UNK N   1      29.359  17.725   6.051  0.00  0.00     0.016 A 
HETATM   15  C   UNK N   1      28.408  18.512   6.721  0.00  0.00     0.009 A 
HETATM   16  C   UNK N   1      28.478  18.606   8.121  0.00  0.00     0.016 A 
HETATM   17  C   UNK N   1      29.476  17.934   8.835  0.00  0.00     0.010 A 
BRANCH  15  18
HETATM   18  C   UNK N   1      27.323  19.244   5.995  0.00  0.00     0.129 C 
HETATM   19  N   UNK N   1      26.216  18.687   5.625  0.00  0.00    -0.253 N 
ATOM     20  HN  UNK N   1      25.524  19.257   5.138  1.00  0.00     0.196 HD
BRANCH  18  21
HETATM   21  N   UNK N   1      27.512  20.614   5.699  0.00  0.00    -0.383 N 
HETATM   22  H   UNK N   1      27.102  21.327   6.240  0.00  0.00     0.157 HD
HETATM   23  H   UNK N   1      28.073  20.862   4.930  0.00  0.00     0.157 HD
ENDBRANCH  18  21
BRANCH  19  24
HETATM   24  O   UNK N   1      25.942  17.418   5.846  0.00  0.00    -0.288 OA
HETATM   25  H   UNK N   1      25.960  17.052   6.707  0.00  0.00     0.244 HD
ENDBRANCH  19  24
ENDBRANCH  15  18
ENDBRANCH  11  12
ENDBRANCH   9  11
ENDBRANCH   3   7
BRANCH   6  26
HETATM   26  C   UNK N   1      35.474  13.628  11.790  0.00  0.00     0.174 C 
BRANCH  26  27
HETATM   27  N   UNK N   1      35.259  13.940  13.200  0.00  0.00    -0.400 N 
HETATM   28  H   UNK N   1      34.412  13.736  13.730  0.00  0.00     0.154 HD
BRANCH  27  29
HETATM   29  C   UNK N   1      36.451  14.588  13.726  0.00  0.00     0.226 C 
BRANCH  29  30
HETATM   30  C   UNK N   1      36.641  14.193  15.151  0.00  0.00     0.276 C 
HETATM   31  O   UNK N   1      37.591  14.637  15.780  0.00  0.00    -0.263 OA
BRANCH  30  32
HETATM   32  O   UNK N   1      35.763  13.337  15.725  0.00  0.00    -0.321 OA
BRANCH  32  33
HETATM   33  C   UNK N   1      36.120  12.075  16.138  0.00  0.00     0.174 C 
HETATM   34  C   UNK N   1      35.387  11.742  17.420  0.00  0.00     0.034 C 
ENDBRANCH  32  33
ENDBRANCH  30  32
ENDBRANCH  29  30
ENDBRANCH  27  29
ENDBRANCH  26  27
BRANCH  26  35
HETATM   35  C   UNK N   1      35.460  12.100  11.617  0.00  0.00     0.017 C 
HETATM   36  C   UNK N   1      34.598  11.478  12.729  0.00  0.00     0.007 C 
HETATM   37  C   UNK N   1      34.792   9.966  12.794  0.00  0.00     0.000 C 
HETATM   38  C   UNK N   1      36.252   9.582  13.081  0.00  0.00     0.000 C 
HETATM   39  C   UNK N   1      37.260  10.687  12.741  0.00  0.00     0.000 C 
HETATM   40  C   UNK N   1      36.841  11.428  11.479  0.00  0.00     0.007 C 
ENDBRANCH  26  35
ENDBRANCH   6  26
TORSDOF 13
ENDMDL
MODEL 5
REMARK VINA RESULT:      -6.8     10.045     13.520
REMARK  13 active torsions:
REMARK  status: ('A' for Active; 'I' for Inactive)
REMARK    1  A    between atoms: O_3  and  C_25 
REMARK    2  A    between atoms: O_3  and  C_30 
REMARK    3  A    between atoms: O_5  and  N_10 
REMARK       I    between atoms: N_6  and  C_22 
REMARK    4  A    between atoms: C_13  and  N_7 
REMARK    5  A    between atoms: N_7  and  C_24 
REMARK       I    between atoms: N_8  and  C_23 
REMARK    6  A    between atoms: N_8  and  C_26 
REMARK    7  A    between atoms: N_9  and  C_35 
REMARK    8  A    between atoms: C_12  and  C_13 
REMARK    9  A    between atoms: C_13  and  C_22 
REMARK   10  A    between atoms: C_18  and  C_23 
REMARK   11  A    between atoms: C_24  and  C_25 
REMARK   12  A    between atoms: C_26  and  C_27 
REMARK   13  A    between atoms: C_33  and  C_35 
ROOT
HETATM    1  O   UNK N   1      24.395  15.318   6.697  0.00  0.00    -0.271 OA
HETATM    2  N   UNK N   1      23.707  15.276   4.578  0.00  0.00    -0.337 N 
HETATM    3  C   UNK N   1      22.528  14.506   4.714  0.00  0.00     0.180 A 
HETATM    4  C   UNK N   1      23.657  15.535   3.191  0.00  0.00     0.129 A 
HETATM    5  C   UNK N   1      22.326  14.722   3.187  0.00  0.00     0.055 A 
HETATM    6  C   UNK N   1      24.596  15.653   5.541  0.00  0.00     0.243 C 
ENDROOT
BRANCH   3   7
HETATM    7  C   UNK N   1      21.478  15.215   5.542  0.00  0.00     0.240 C 
HETATM    8  O   UNK N   1      21.307  16.418   5.416  0.00  0.00    -0.271 OA
HETATM    9  N   UNK N   1      20.706  14.522   6.413  0.00  0.00    -0.355 N 
HETATM   10  H   UNK N   1      20.023  15.000   6.936  0.00  0.00     0.162 HD
BRANCH   9  11
HETATM   11  C   UNK N   1      20.862  13.099   6.591  0.00  0.00     0.161 C 
BRANCH  11  12
HETATM   12  C   UNK N   1      21.519  12.819   7.899  0.00  0.00    -0.040 A 
HETATM   13  C   UNK N   1      21.138  13.546   9.027  0.00  0.00     0.010 A 
HETATM   14  C   UNK N   1      21.747  13.297  10.260  0.00  0.00     0.016 A 
HETATM   15  C   UNK N   1      22.739  12.312  10.384  0.00  0.00     0.009 A 
HETATM   16  C   UNK N   1      23.112  11.584   9.241  0.00  0.00     0.016 A 
HETATM   17  C   UNK N   1      22.510  11.837   8.004  0.00  0.00     0.010 A 
BRANCH  15  18
HETATM   18  C   UNK N   1      23.405  12.008  11.690  0.00  0.00     0.129 C 
HETATM   19  N   UNK N   1      24.643  12.291  11.938  0.00  0.00    -0.253 N 
ATOM     20  HN  UNK N   1      25.020  12.055  12.856  1.00  0.00     0.196 HD
BRANCH  18  21
HETATM   21  N   UNK N   1      22.646  11.383  12.707  0.00  0.00    -0.383 N 
HETATM   22  H   UNK N   1      22.285  10.473  12.606  0.00  0.00     0.157 HD
HETATM   23  H   UNK N   1      22.474  11.875  13.541  0.00  0.00     0.157 HD
ENDBRANCH  18  21
BRANCH  19  24
HETATM   24  O   UNK N   1      25.437  12.867  11.061  0.00  0.00    -0.288 OA
HETATM   25  H   UNK N   1      26.145  13.420  11.324  0.00  0.00     0.244 HD
ENDBRANCH  19  24
ENDBRANCH  15  18
ENDBRANCH  11  12
ENDBRANCH   9  11
ENDBRANCH   3   7
BRANCH   6  26
HETATM   26  C   UNK N   1      25.850  16.469   5.242  0.00  0.00     0.174 C 
BRANCH  26  27
HETATM   27  N   UNK N   1      25.639  17.914   5.254  0.00  0.00    -0.400 N 
HETATM   28  H   UNK N   1      25.336  18.462   6.060  0.00  0.00     0.154 HD
BRANCH  27  29
HETATM   29  C   UNK N   1      25.934  18.444   3.932  0.00  0.00     0.226 C 
BRANCH  29  30
HETATM   30  C   UNK N   1      25.803  19.928   3.953  0.00  0.00     0.276 C 
HETATM   31  O   UNK N   1      24.706  20.441   3.786  0.00  0.00    -0.263 OA
BRANCH  30  32
HETATM   32  O   UNK N   1      26.907  20.689   4.145  0.00  0.00    -0.321 OA
BRANCH  32  33
HETATM   33  C   UNK N   1      27.712  20.559   5.252  0.00  0.00     0.174 C 
HETATM   34  C   UNK N   1      26.994  21.121   6.461  0.00  0.00     0.034 C 
ENDBRANCH  32  33
ENDBRANCH  30  32
ENDBRANCH  29  30
ENDBRANCH  27  29
ENDBRANCH  26  27
BRANCH  26  35
HETATM   35  C   UNK N   1      27.053  16.140   6.142  0.00  0.00     0.017 C 
HETATM   36  C   UNK N   1      27.357  17.354   7.035  0.00  0.00     0.007 C 
HETATM   37  C   UNK N   1      28.711  17.206   7.723  0.00  0.00     0.000 C 
HETATM   38  C   UNK N   1      29.863  17.084   6.712  0.00  0.00     0.000 C 
HETATM   39  C   UNK N   1      29.415  16.631   5.318  0.00  0.00     0.000 C 
HETATM   40  C   UNK N   1      28.302  15.597   5.418  0.00  0.00     0.007 C 
ENDBRANCH  26  35
ENDBRANCH   6  26
TORSDOF 13
ENDMDL
MODEL 6
REMARK VINA RESULT:      -6.7      3.943      9.938
REMARK  13 active torsions:
REMARK  status: ('A' for Active; 'I' for Inactive)
REMARK    1  A    between atoms: O_3  and  C_25 
REMARK    2  A    between atoms: O_3  and  C_30 
REMARK    3  A    between atoms: O_5  and  N_10 
REMARK       I    between atoms: N_6  and  C_22 
REMARK    4  A    between atoms: C_13  and  N_7 
REMARK    5  A    between atoms: N_7  and  C_24 
REMARK       I    between atoms: N_8  and  C_23 
REMARK    6  A    between atoms: N_8  and  C_26 
REMARK    7  A    between atoms: N_9  and  C_35 
REMARK    8  A    between atoms: C_12  and  C_13 
REMARK    9  A    between atoms: C_13  and  C_22 
REMARK   10  A    between atoms: C_18  and  C_23 
REMARK   11  A    between atoms: C_24  and  C_25 
REMARK   12  A    between atoms: C_26  and  C_27 
REMARK   13  A    between atoms: C_33  and  C_35 
ROOT
HETATM    1  O   UNK N   1      33.793  14.857  11.376  0.00  0.00    -0.271 OA
HETATM    2  N   UNK N   1      34.970  14.827   9.485  0.00  0.00    -0.337 N 
HETATM    3  C   UNK N   1      34.039  15.419   8.601  0.00  0.00     0.180 A 
HETATM    4  C   UNK N   1      36.046  14.630   8.591  0.00  0.00     0.129 A 
HETATM    5  C   UNK N   1      35.137  15.286   7.507  0.00  0.00     0.055 A 
HETATM    6  C   UNK N   1      34.835  14.559  10.815  0.00  0.00     0.243 C 
ENDROOT
BRANCH   3   7
HETATM    7  C   UNK N   1      33.752  16.861   8.960  0.00  0.00     0.240 C 
HETATM    8  O   UNK N   1      34.672  17.630   9.191  0.00  0.00    -0.271 OA
HETATM    9  N   UNK N   1      32.477  17.317   9.008  0.00  0.00    -0.355 N 
HETATM   10  H   UNK N   1      32.312  18.261   9.235  0.00  0.00     0.162 HD
BRANCH   9  11
HETATM   11  C   UNK N   1      31.356  16.452   8.733  0.00  0.00     0.161 C 
BRANCH  11  12
HETATM   12  C   UNK N   1      30.301  17.204   7.998  0.00  0.00    -0.040 A 
HETATM   13  C   UNK N   1      30.220  17.091   6.609  0.00  0.00     0.010 A 
HETATM   14  C   UNK N   1      29.239  17.792   5.904  0.00  0.00     0.016 A 
HETATM   15  C   UNK N   1      28.317  18.609   6.579  0.00  0.00     0.009 A 
HETATM   16  C   UNK N   1      28.406  18.712   7.978  0.00  0.00     0.016 A 
HETATM   17  C   UNK N   1      29.394  18.018   8.684  0.00  0.00     0.010 A 
BRANCH  15  18
HETATM   18  C   UNK N   1      27.244  19.365   5.860  0.00  0.00     0.129 C 
HETATM   19  N   UNK N   1      26.109  18.842   5.527  0.00  0.00    -0.253 N 
ATOM     20  HN  UNK N   1      25.427  19.427   5.043  1.00  0.00     0.196 HD
BRANCH  18  21
HETATM   21  N   UNK N   1      27.476  20.721   5.530  0.00  0.00    -0.383 N 
HETATM   22  H   UNK N   1      26.781  21.411   5.630  0.00  0.00     0.157 HD
HETATM   23  H   UNK N   1      28.362  20.982   5.191  0.00  0.00     0.157 HD
ENDBRANCH  18  21
BRANCH  19  24
HETATM   24  O   UNK N   1      25.794  17.589   5.782  0.00  0.00    -0.288 OA
HETATM   25  H   UNK N   1      25.607  17.294   6.651  0.00  0.00     0.244 HD
ENDBRANCH  19  24
ENDBRANCH  15  18
ENDBRANCH  11  12
ENDBRANCH   9  11
ENDBRANCH   3   7
BRANCH   6  26
HETATM   26  C   UNK N   1      35.925  13.886  11.643  0.00  0.00     0.174 C 
BRANCH  26  27
HETATM   27  N   UNK N   1      35.877  14.207  13.067  0.00  0.00    -0.400 N 
HETATM   28  H   UNK N   1      35.337  14.964  13.486  0.00  0.00     0.154 HD
BRANCH  27  29
HETATM   29  C   UNK N   1      36.723  13.270  13.789  0.00  0.00     0.226 C 
BRANCH  29  30
HETATM   30  C   UNK N   1      36.742  13.632  15.234  0.00  0.00     0.276 C 
HETATM   31  O   UNK N   1      37.393  14.597  15.608  0.00  0.00    -0.263 OA
BRANCH  30  32
HETATM   32  O   UNK N   1      36.045  12.877  16.117  0.00  0.00    -0.321 OA
BRANCH  32  33
HETATM   33  C   UNK N   1      34.901  13.325  16.734  0.00  0.00     0.174 C 
HETATM   34  C   UNK N   1      35.162  13.485  18.217  0.00  0.00     0.034 C 
ENDBRANCH  32  33
ENDBRANCH  30  32
ENDBRANCH  29  30
ENDBRANCH  27  29
ENDBRANCH  26  27
BRANCH  26  35
HETATM   35  C   UNK N   1      35.990  12.357  11.486  0.00  0.00     0.017 C 
HETATM   36  C   UNK N   1      37.200  11.995  10.609  0.00  0.00     0.007 C 
HETATM   37  C   UNK N   1      37.143  10.535  10.168  0.00  0.00     0.000 C 
HETATM   38  C   UNK N   1      35.879  10.228   9.350  0.00  0.00     0.000 C 
HETATM   39  C   UNK N   1      34.742  11.232   9.569  0.00  0.00     0.000 C 
HETATM   40  C   UNK N   1      34.686  11.674  11.025  0.00  0.00     0.007 C 
ENDBRANCH  26  35
ENDBRANCH   6  26
TORSDOF 13
ENDMDL
MODEL 7
REMARK VINA RESULT:      -6.7      2.053      3.224
REMARK  13 active torsions:
REMARK  status: ('A' for Active; 'I' for Inactive)
REMARK    1  A    between atoms: O_3  and  C_25 
REMARK    2  A    between atoms: O_3  and  C_30 
REMARK    3  A    between atoms: O_5  and  N_10 
REMARK       I    between atoms: N_6  and  C_22 
REMARK    4  A    between atoms: C_13  and  N_7 
REMARK    5  A    between atoms: N_7  and  C_24 
REMARK       I    between atoms: N_8  and  C_23 
REMARK    6  A    between atoms: N_8  and  C_26 
REMARK    7  A    between atoms: N_9  and  C_35 
REMARK    8  A    between atoms: C_12  and  C_13 
REMARK    9  A    between atoms: C_13  and  C_22 
REMARK   10  A    between atoms: C_18  and  C_23 
REMARK   11  A    between atoms: C_24  and  C_25 
REMARK   12  A    between atoms: C_26  and  C_27 
REMARK   13  A    between atoms: C_33  and  C_35 
ROOT
HETATM    1  O   UNK N   1      34.679  14.208  11.360  0.00  0.00    -0.271 OA
HETATM    2  N   UNK N   1      36.647  13.787  10.403  0.00  0.00    -0.337 N 
HETATM    3  C   UNK N   1      37.345  13.234  11.502  0.00  0.00     0.180 A 
HETATM    4  C   UNK N   1      37.649  13.683   9.414  0.00  0.00     0.129 A 
HETATM    5  C   UNK N   1      38.537  13.038  10.521  0.00  0.00     0.055 A 
HETATM    6  C   UNK N   1      35.366  14.255  10.353  0.00  0.00     0.243 C 
ENDROOT
BRANCH   3   7
HETATM    7  C   UNK N   1      36.745  11.921  11.954  0.00  0.00     0.240 C 
HETATM    8  O   UNK N   1      36.677  10.979  11.179  0.00  0.00    -0.271 OA
HETATM    9  N   UNK N   1      36.299  11.770  13.224  0.00  0.00    -0.355 N 
HETATM   10  H   UNK N   1      35.920  10.904  13.501  0.00  0.00     0.162 HD
BRANCH   9  11
HETATM   11  C   UNK N   1      36.366  12.848  14.180  0.00  0.00     0.161 C 
BRANCH  11  12
HETATM   12  C   UNK N   1      36.038  12.342  15.542  0.00  0.00    -0.040 A 
HETATM   13  C   UNK N   1      35.314  13.152  16.419  0.00  0.00     0.010 A 
HETATM   14  C   UNK N   1      35.000  12.693  17.700  0.00  0.00     0.016 A 
HETATM   15  C   UNK N   1      35.397  11.413  18.121  0.00  0.00     0.009 A 
HETATM   16  C   UNK N   1      36.122  10.605  17.228  0.00  0.00     0.016 A 
HETATM   17  C   UNK N   1      36.445  11.067  15.948  0.00  0.00     0.010 A 
BRANCH  15  18
HETATM   18  C   UNK N   1      35.068  10.882  19.481  0.00  0.00     0.129 C 
HETATM   19  N   UNK N   1      35.441  11.458  20.577  0.00  0.00    -0.253 N 
ATOM     20  HN  UNK N   1      35.171  11.033  21.465  1.00  0.00     0.196 HD
BRANCH  18  21
HETATM   21  N   UNK N   1      34.309   9.692  19.576  0.00  0.00    -0.383 N 
HETATM   22  H   UNK N   1      34.110   9.133  18.791  0.00  0.00     0.157 HD
HETATM   23  H   UNK N   1      33.969   9.414  20.457  0.00  0.00     0.157 HD
ENDBRANCH  18  21
BRANCH  19  24
HETATM   24  O   UNK N   1      36.153  12.564  20.600  0.00  0.00    -0.288 OA
HETATM   25  H   UNK N   1      36.639  12.824  21.357  0.00  0.00     0.244 HD
ENDBRANCH  19  24
ENDBRANCH  15  18
ENDBRANCH  11  12
ENDBRANCH   9  11
ENDBRANCH   3   7
BRANCH   6  26
HETATM   26  C   UNK N   1      34.748  14.854   9.094  0.00  0.00     0.174 C 
BRANCH  26  27
HETATM   27  N   UNK N   1      34.118  13.875   8.214  0.00  0.00    -0.400 N 
HETATM   28  H   UNK N   1      33.201  13.452   8.358  0.00  0.00     0.154 HD
BRANCH  27  29
HETATM   29  C   UNK N   1      35.011  13.601   7.099  0.00  0.00     0.226 C 
BRANCH  29  30
HETATM   30  C   UNK N   1      34.946  14.727   6.125  0.00  0.00     0.276 C 
HETATM   31  O   UNK N   1      35.962  15.350   5.851  0.00  0.00    -0.263 OA
BRANCH  30  32
HETATM   32  O   UNK N   1      33.757  15.053   5.565  0.00  0.00    -0.321 OA
BRANCH  32  33
HETATM   33  C   UNK N   1      33.644  15.491   4.266  0.00  0.00     0.174 C 
HETATM   34  C   UNK N   1      32.894  16.806   4.245  0.00  0.00     0.034 C 
ENDBRANCH  32  33
ENDBRANCH  30  32
ENDBRANCH  29  30
ENDBRANCH  27  29
ENDBRANCH  26  27
BRANCH  26  35
HETATM   35  C   UNK N   1      33.749  15.995   9.356  0.00  0.00     0.017 C 
HETATM   36  C   UNK N   1      32.385  15.611   8.761  0.00  0.00     0.007 C 
HETATM   37  C   UNK N   1      31.446  16.813   8.718  0.00  0.00     0.000 C 
HETATM   38  C   UNK N   1      32.011  17.958   7.861  0.00  0.00     0.000 C 
HETATM   39  C   UNK N   1      33.530  17.891   7.666  0.00  0.00     0.000 C 
HETATM   40  C   UNK N   1      34.216  17.404   8.935  0.00  0.00     0.007 C 
ENDBRANCH  26  35
ENDBRANCH   6  26
TORSDOF 13
ENDMDL
MODEL 8
REMARK VINA RESULT:      -6.7      9.778     13.723
REMARK  13 active torsions:
REMARK  status: ('A' for Active; 'I' for Inactive)
REMARK    1  A    between atoms: O_3  and  C_25 
REMARK    2  A    between atoms: O_3  and  C_30 
REMARK    3  A    between atoms: O_5  and  N_10 
REMARK       I    between atoms: N_6  and  C_22 
REMARK    4  A    between atoms: C_13  and  N_7 
REMARK    5  A    between atoms: N_7  and  C_24 
REMARK       I    between atoms: N_8  and  C_23 
REMARK    6  A    between atoms: N_8  and  C_26 
REMARK    7  A    between atoms: N_9  and  C_35 
REMARK    8  A    between atoms: C_12  and  C_13 
REMARK    9  A    between atoms: C_13  and  C_22 
REMARK   10  A    between atoms: C_18  and  C_23 
REMARK   11  A    between atoms: C_24  and  C_25 
REMARK   12  A    between atoms: C_26  and  C_27 
REMARK   13  A    between atoms: C_33  and  C_35 
ROOT
HETATM    1  O   UNK N   1      23.857  16.056   6.205  0.00  0.00    -0.271 OA
HETATM    2  N   UNK N   1      22.942  17.470   4.747  0.00  0.00    -0.337 N 
HETATM    3  C   UNK N   1      21.571  17.225   4.989  0.00  0.00     0.180 A 
HETATM    4  C   UNK N   1      22.829  18.471   3.758  0.00  0.00     0.129 A 
HETATM    5  C   UNK N   1      21.286  18.326   3.928  0.00  0.00     0.055 A 
HETATM    6  C   UNK N   1      24.030  16.895   5.337  0.00  0.00     0.243 C 
ENDROOT
BRANCH   3   7
HETATM    7  C   UNK N   1      21.155  17.643   6.383  0.00  0.00     0.240 C 
HETATM    8  O   UNK N   1      21.215  18.818   6.713  0.00  0.00    -0.271 OA
HETATM    9  N   UNK N   1      20.695  16.727   7.268  0.00  0.00    -0.355 N 
HETATM   10  H   UNK N   1      20.422  17.021   8.167  0.00  0.00     0.162 HD
BRANCH   9  11
HETATM   11  C   UNK N   1      20.596  15.330   6.923  0.00  0.00     0.161 C 
BRANCH  11  12
HETATM   12  C   UNK N   1      21.376  14.510   7.892  0.00  0.00    -0.040 A 
HETATM   13  C   UNK N   1      21.097  14.611   9.256  0.00  0.00     0.010 A 
HETATM   14  C   UNK N   1      21.822  13.851  10.177  0.00  0.00     0.016 A 
HETATM   15  C   UNK N   1      22.829  12.972   9.748  0.00  0.00     0.009 A 
HETATM   16  C   UNK N   1      23.098  12.876   8.371  0.00  0.00     0.016 A 
HETATM   17  C   UNK N   1      22.380  13.643   7.448  0.00  0.00     0.010 A 
BRANCH  15  18
HETATM   18  C   UNK N   1      23.618  12.132  10.704  0.00  0.00     0.129 C 
HETATM   19  N   UNK N   1      24.843  12.387  11.029  0.00  0.00    -0.253 N 
ATOM     20  HN  UNK N   1      25.309  11.768  11.692  1.00  0.00     0.196 HD
BRANCH  18  21
HETATM   21  N   UNK N   1      22.994  11.003  11.285  0.00  0.00    -0.383 N 
HETATM   22  H   UNK N   1      23.292  10.625  12.143  0.00  0.00     0.157 HD
HETATM   23  H   UNK N   1      22.237  10.584  10.816  0.00  0.00     0.157 HD
ENDBRANCH  18  21
BRANCH  19  24
HETATM   24  O   UNK N   1      25.516  13.409  10.543  0.00  0.00    -0.288 OA
HETATM   25  H   UNK N   1      26.361  13.303  10.151  0.00  0.00     0.244 HD
ENDBRANCH  19  24
ENDBRANCH  15  18
ENDBRANCH  11  12
ENDBRANCH   9  11
ENDBRANCH   3   7
BRANCH   6  26
HETATM   26  C   UNK N   1      25.465  17.242   4.953  0.00  0.00     0.174 C 
BRANCH  26  27
HETATM   27  N   UNK N   1      26.333  17.533   6.090  0.00  0.00    -0.400 N 
HETATM   28  H   UNK N   1      26.049  17.529   7.070  0.00  0.00     0.154 HD
BRANCH  27  29
HETATM   29  C   UNK N   1      27.669  17.831   5.597  0.00  0.00     0.226 C 
BRANCH  29  30
HETATM   30  C   UNK N   1      28.634  17.797   6.731  0.00  0.00     0.276 C 
HETATM   31  O   UNK N   1      29.529  16.963   6.741  0.00  0.00    -0.263 OA
BRANCH  30  32
HETATM   32  O   UNK N   1      28.499  18.685   7.745  0.00  0.00    -0.321 OA
BRANCH  32  33
HETATM   33  C   UNK N   1      28.275  18.297   9.045  0.00  0.00     0.174 C 
HETATM   34  C   UNK N   1      29.537  18.511   9.855  0.00  0.00     0.034 C 
ENDBRANCH  32  33
ENDBRANCH  30  32
ENDBRANCH  29  30
ENDBRANCH  27  29
ENDBRANCH  26  27
BRANCH  26  35
HETATM   35  C   UNK N   1      26.156  16.195   4.063  0.00  0.00     0.017 C 
HETATM   36  C   UNK N   1      25.782  16.461   2.595  0.00  0.00     0.007 C 
HETATM   37  C   UNK N   1      26.182  15.288   1.704  0.00  0.00     0.000 C 
HETATM   38  C   UNK N   1      25.487  13.982   2.121  0.00  0.00     0.000 C 
HETATM   39  C   UNK N   1      24.979  13.987   3.568  0.00  0.00     0.000 C 
HETATM   40  C   UNK N   1      25.953  14.723   4.479  0.00  0.00     0.007 C 
ENDBRANCH  26  35
ENDBRANCH   6  26
TORSDOF 13
ENDMDL
MODEL 9
REMARK VINA RESULT:      -6.6      3.114      9.604
REMARK  13 active torsions:
REMARK  status: ('A' for Active; 'I' for Inactive)
REMARK    1  A    between atoms: O_3  and  C_25 
REMARK    2  A    between atoms: O_3  and  C_30 
REMARK    3  A    between atoms: O_5  and  N_10 
REMARK       I    between atoms: N_6  and  C_22 
REMARK    4  A    between atoms: C_13  and  N_7 
REMARK    5  A    between atoms: N_7  and  C_24 
REMARK       I    between atoms: N_8  and  C_23 
REMARK    6  A    between atoms: N_8  and  C_26 
REMARK    7  A    between atoms: N_9  and  C_35 
REMARK    8  A    between atoms: C_12  and  C_13 
REMARK    9  A    between atoms: C_13  and  C_22 
REMARK   10  A    between atoms: C_18  and  C_23 
REMARK   11  A    between atoms: C_24  and  C_25 
REMARK   12  A    between atoms: C_26  and  C_27 
REMARK   13  A    between atoms: C_33  and  C_35 
ROOT
HETATM    1  O   UNK N   1      34.880  14.663  12.701  0.00  0.00    -0.271 OA
HETATM    2  N   UNK N   1      34.859  13.401  10.866  0.00  0.00    -0.337 N 
HETATM    3  C   UNK N   1      34.357  14.332   9.928  0.00  0.00     0.180 A 
HETATM    4  C   UNK N   1      35.043  12.289  10.014  0.00  0.00     0.129 A 
HETATM    5  C   UNK N   1      34.521  13.207   8.866  0.00  0.00     0.055 A 
HETATM    6  C   UNK N   1      35.100  13.574  12.197  0.00  0.00     0.243 C 
ENDROOT
BRANCH   3   7
HETATM    7  C   UNK N   1      35.312  15.484   9.703  0.00  0.00     0.240 C 
HETATM    8  O   UNK N   1      36.506  15.340   9.915  0.00  0.00    -0.271 OA
HETATM    9  N   UNK N   1      34.857  16.675   9.245  0.00  0.00    -0.355 N 
HETATM   10  H   UNK N   1      35.496  17.409   9.097  0.00  0.00     0.162 HD
BRANCH   9  11
HETATM   11  C   UNK N   1      33.458  16.893   8.969  0.00  0.00     0.161 C 
BRANCH  11  12
HETATM   12  C   UNK N   1      33.202  16.764   7.507  0.00  0.00    -0.040 A 
HETATM   13  C   UNK N   1      32.346  15.763   7.047  0.00  0.00     0.010 A 
HETATM   14  C   UNK N   1      32.098  15.627   5.678  0.00  0.00     0.016 A 
HETATM   15  C   UNK N   1      32.694  16.497   4.752  0.00  0.00     0.009 A 
HETATM   16  C   UNK N   1      33.551  17.504   5.228  0.00  0.00     0.016 A 
HETATM   17  C   UNK N   1      33.809  17.635   6.597  0.00  0.00     0.010 A 
BRANCH  15  18
HETATM   18  C   UNK N   1      32.443  16.391   3.280  0.00  0.00     0.129 C 
HETATM   19  N   UNK N   1      33.125  15.621   2.496  0.00  0.00    -0.253 N 
ATOM     20  HN  UNK N   1      32.887  15.603   1.504  1.00  0.00     0.196 HD
BRANCH  18  21
HETATM   21  N   UNK N   1      31.405  17.168   2.714  0.00  0.00    -0.383 N 
HETATM   22  H   UNK N   1      31.127  18.031   3.099  0.00  0.00     0.157 HD
HETATM   23  H   UNK N   1      30.947  16.836   1.909  0.00  0.00     0.157 HD
ENDBRANCH  18  21
BRANCH  19  24
HETATM   24  O   UNK N   1      34.114  14.862   2.920  0.00  0.00    -0.288 OA
HETATM   25  H   UNK N   1      34.045  13.928   2.941  0.00  0.00     0.244 HD
ENDBRANCH  19  24
ENDBRANCH  15  18
ENDBRANCH  11  12
ENDBRANCH   9  11
ENDBRANCH   3   7
BRANCH   6  26
HETATM   26  C   UNK N   1      35.622  12.461  13.100  0.00  0.00     0.174 C 
BRANCH  26  27
HETATM   27  N   UNK N   1      37.061  12.513  13.340  0.00  0.00    -0.400 N 
HETATM   28  H   UNK N   1      37.538  13.181  13.945  0.00  0.00     0.154 HD
BRANCH  27  29
HETATM   29  C   UNK N   1      37.704  11.454  12.575  0.00  0.00     0.226 C 
BRANCH  29  30
HETATM   30  C   UNK N   1      37.774  10.218  13.404  0.00  0.00     0.276 C 
HETATM   31  O   UNK N   1      38.284  10.261  14.514  0.00  0.00    -0.263 OA
BRANCH  30  32
HETATM   32  O   UNK N   1      37.280   9.058  12.909  0.00  0.00    -0.321 OA
BRANCH  32  33
HETATM   33  C   UNK N   1      36.331   9.021  11.915  0.00  0.00     0.174 C 
HETATM   34  C   UNK N   1      35.128   8.240  12.401  0.00  0.00     0.034 C 
ENDBRANCH  32  33
ENDBRANCH  30  32
ENDBRANCH  29  30
ENDBRANCH  27  29
ENDBRANCH  26  27
BRANCH  26  35
HETATM   35  C   UNK N   1      34.902  12.349  14.454  0.00  0.00     0.017 C 
HETATM   36  C   UNK N   1      35.904  12.649  15.580  0.00  0.00     0.007 C 
HETATM   37  C   UNK N   1      35.335  12.259  16.942  0.00  0.00     0.000 C 
HETATM   38  C   UNK N   1      34.997  10.762  17.019  0.00  0.00     0.000 C 
HETATM   39  C   UNK N   1      34.807  10.099  15.650  0.00  0.00     0.000 C 
HETATM   40  C   UNK N   1      34.107  11.047  14.685  0.00  0.00     0.007 C 
ENDBRANCH  26  35
ENDBRANCH   6  26
TORSDOF 13
ENDMDL
