REMARK  5 active torsions:
REMARK  status: ('A' for Active; 'I' for Inactive)
REMARK    1  A    between atoms: N_2  and  C_13 
REMARK       I    between atoms: N_3  and  C_19 
REMARK    2  A    between atoms: N_4  and  C_18 
REMARK    3  A    between atoms: C_13  and  C_16 
REMARK    4  A    between atoms: C_16  and  C_17 
REMARK    5  A    between atoms: C_17  and  C_18 
ROOT
HETATM    1  N   UNK N   1       1.456  -0.329   0.154  0.00  0.00     0.091 N 
HETATM    2  N   UNK N   1       1.944  -3.065   0.295  0.00  0.00    -0.214 N 
HETATM    3  N   UNK N   1       1.111  -5.333   0.262  0.00  0.00    -0.202 N 
ATOM      4  HN  UNK N   1       0.190  -4.980   0.525  1.00  0.00     0.183 HD
HETATM    5  N   UNK N   1       3.370  -4.927  -0.267  0.00  0.00    -0.202 N 
ATOM      6  HN  UNK N   1       4.138  -4.269  -0.405  1.00  0.00     0.183 HD
HETATM    7  C   UNK N   1       2.544  -0.920  -0.628  0.00  0.00     0.292 C 
HETATM    8  C   UNK N   1       0.318  -1.247   0.094  0.00  0.00     0.292 C 
HETATM    9  C   UNK N   1       3.047  -2.145   0.118  0.00  0.00     0.171 C 
HETATM   10  C   UNK N   1       0.681  -2.559   0.801  0.00  0.00     0.171 C 
HETATM   11  C   UNK N   1       2.139  -4.457   0.080  0.00  0.00     0.679 A 
HETATM   12  C   UNK N   1       1.296  -6.669   0.100  0.00  0.00     0.107 A 
HETATM   13  C   UNK N   1       3.593  -6.256  -0.433  0.00  0.00     0.107 A 
HETATM   14  C   UNK N   1       2.551  -7.162  -0.250  0.00  0.00     0.035 A 
ENDROOT
BRANCH   1  15
HETATM   15  C   UNK N   1       1.040   0.954  -0.412  0.00  0.00     0.272 C 
BRANCH  15  16
HETATM   16  C   UNK N   1       2.206   1.928  -0.598  0.00  0.00     0.032 C 
BRANCH  16  17
HETATM   17  C   UNK N   1       3.085   2.043   0.640  0.00  0.00     0.023 C 
BRANCH  17  18
HETATM   18  C   UNK N   1       4.463   2.533   0.217  0.00  0.00     0.148 C 
BRANCH  18  19
HETATM   19  N   UNK N   1       4.496   3.982   0.067  0.00  0.00    -0.302 N 
HETATM   20  N   UNK N   1       3.501   4.716  -0.410  0.00  0.00    -0.308 N 
HETATM   21  C   UNK N   1       3.896   6.003  -0.431  0.00  0.00     0.132 A 
ATOM     22  HN  UNK N   1       2.591   4.365  -0.709  1.00  0.00     0.186 HD
HETATM   23  C   UNK N   1       5.190   6.054   0.044  0.00  0.00     0.068 A 
HETATM   24 Cl   UNK N   1       6.185   7.485   0.205  0.00  0.00    -0.081 Cl
HETATM   25  C   UNK N   1       5.552   4.762   0.352  0.00  0.00     0.135 A 
ENDBRANCH  18  19
ENDBRANCH  17  18
ENDBRANCH  16  17
ENDBRANCH  15  16
ENDBRANCH   1  15
TORSDOF 5
