MODEL 1
REMARK VINA RESULT:      -8.3      0.000      0.000
REMARK  8 active torsions:
REMARK  status: ('A' for Active; 'I' for Inactive)
REMARK    1  A    between atoms: O_1  and  C_18 
REMARK    2  A    between atoms: O_2  and  C_19 
REMARK    3  A    between atoms: O_3  and  C_37 
REMARK    4  A    between atoms: N_6  and  C_14 
REMARK    5  A    between atoms: N_7  and  C_23 
REMARK       I    between atoms: N_7  and  C_32 
REMARK    6  A    between atoms: C_14  and  C_15 
REMARK    7  A    between atoms: C_15  and  C_20 
REMARK    8  A    between atoms: C_28  and  C_32 
ROOT
HETATM    1  C   UNK N   1      29.124  14.405   3.351  0.00  0.00    -0.056 A 
HETATM    2  C   UNK N   1      28.765  14.039   4.650  0.00  0.00     0.009 A 
HETATM    3  C   UNK N   1      28.191  15.033   2.518  0.00  0.00     0.009 A 
HETATM    4  C   UNK N   1      26.598  15.085   4.334  0.00  0.00     0.035 A 
HETATM    5  C   UNK N   1      27.511  14.368   5.134  0.00  0.00     0.030 A 
HETATM    6  C   UNK N   1      26.938  15.396   3.016  0.00  0.00     0.030 A 
ENDROOT
BRANCH   4   7
HETATM    7  N   UNK N   1      25.649  15.904   4.997  0.00  0.00    -0.323 N 
HETATM    8  C   UNK N   1      24.376  15.415   5.039  0.00  0.00     0.258 C 
HETATM    9  O   UNK N   1      24.161  14.271   4.648  0.00  0.00    -0.267 OA
HETATM   10  H   UNK N   1      25.892  16.768   5.401  0.00  0.00     0.169 HD
BRANCH   8  11
HETATM   11  C   UNK N   1      23.216  16.191   5.496  0.00  0.00     0.059 A 
HETATM   12  C   UNK N   1      22.533  15.721   6.633  0.00  0.00     0.062 A 
HETATM   13  N   UNK N   1      22.874  14.518   7.166  0.00  0.00    -0.352 N 
HETATM   14  C   UNK N   1      21.474  16.456   7.189  0.00  0.00     0.043 A 
HETATM   15  C   UNK N   1      22.241  13.973   8.225  0.00  0.00     0.080 A 
HETATM   16  H   UNK N   1      23.619  14.019   6.760  0.00  0.00     0.166 HD
HETATM   17  C   UNK N   1      21.192  14.681   8.843  0.00  0.00     0.044 A 
HETATM   18  C   UNK N   1      22.623  12.702   8.681  0.00  0.00     0.095 A 
HETATM   19  C   UNK N   1      20.809  15.939   8.323  0.00  0.00     0.197 A 
HETATM   20  C   UNK N   1      20.540  14.108   9.944  0.00  0.00     0.018 A 
HETATM   21  O   UNK N   1      19.897  16.566   8.836  0.00  0.00    -0.286 OA
HETATM   22  C   UNK N   1      20.922  12.845  10.410  0.00  0.00     0.004 A 
HETATM   23  C   UNK N   1      21.953  12.141   9.779  0.00  0.00     0.039 A 
HETATM   24  C   UNK N   1      21.103  17.670   6.591  0.00  0.00     0.018 A 
HETATM   25  C   UNK N   1      21.759  18.119   5.432  0.00  0.00     0.002 A 
HETATM   26  C   UNK N   1      22.810  17.375   4.877  0.00  0.00     0.019 A 
BRANCH  18  27
HETATM   27  O   UNK N   1      23.619  12.034   8.042  0.00  0.00    -0.354 OA
HETATM   28  C   UNK N   1      23.448  10.814   7.429  0.00  0.00     0.210 C 
ENDBRANCH  18  27
ENDBRANCH   8  11
ENDBRANCH   4   7
BRANCH   1  29
HETATM   29  C   UNK N   1      30.519  14.188   2.859  0.00  0.00     0.068 C 
BRANCH  29  30
HETATM   30  C   UNK N   1      31.595  14.411   3.921  0.00  0.00     0.277 C 
BRANCH  30  31
HETATM   31  N   UNK N   1      32.276  15.701   3.774  0.00  0.00     0.093 N 
HETATM   32  C   UNK N   1      33.149  15.946   4.920  0.00  0.00     0.277 C 
HETATM   33  C   UNK N   1      32.369  16.034   6.235  0.00  0.00     0.069 C 
HETATM   34  C   UNK N   1      31.086  16.796   6.090  0.00  0.00    -0.046 A 
HETATM   35  C   UNK N   1      30.590  17.164   4.828  0.00  0.00    -0.021 A 
HETATM   36  C   UNK N   1      30.380  17.147   7.237  0.00  0.00     0.047 A 
HETATM   37  C   UNK N   1      31.323  16.799   3.577  0.00  0.00     0.311 C 
HETATM   38  C   UNK N   1      29.402  17.888   4.729  0.00  0.00     0.049 A 
HETATM   39  C   UNK N   1      28.690  18.251   5.884  0.00  0.00     0.102 A 
HETATM   40  C   UNK N   1      29.182  17.878   7.145  0.00  0.00     0.102 A 
BRANCH  39  41
HETATM   41  O   UNK N   1      27.537  18.960   5.802  0.00  0.00    -0.353 OA
HETATM   42  C   UNK N   1      27.499  20.320   5.590  0.00  0.00     0.210 C 
ENDBRANCH  39  41
BRANCH  40  43
HETATM   43  O   UNK N   1      28.497  18.235   8.258  0.00  0.00    -0.353 OA
HETATM   44  C   UNK N   1      28.038  17.325   9.183  0.00  0.00     0.210 C 
ENDBRANCH  40  43
ENDBRANCH  30  31
ENDBRANCH  29  30
ENDBRANCH   1  29
TORSDOF 8
ENDMDL
MODEL 2
REMARK VINA RESULT:      -8.1      3.344      7.966
REMARK  8 active torsions:
REMARK  status: ('A' for Active; 'I' for Inactive)
REMARK    1  A    between atoms: O_1  and  C_18 
REMARK    2  A    between atoms: O_2  and  C_19 
REMARK    3  A    between atoms: O_3  and  C_37 
REMARK    4  A    between atoms: N_6  and  C_14 
REMARK    5  A    between atoms: N_7  and  C_23 
REMARK       I    between atoms: N_7  and  C_32 
REMARK    6  A    between atoms: C_14  and  C_15 
REMARK    7  A    between atoms: C_15  and  C_20 
REMARK    8  A    between atoms: C_28  and  C_32 
ROOT
HETATM    1  C   UNK N   1      23.060  11.537   5.837  0.00  0.00    -0.056 A 
HETATM    2  C   UNK N   1      21.695  11.821   5.904  0.00  0.00     0.009 A 
HETATM    3  C   UNK N   1      23.814  11.984   4.747  0.00  0.00     0.009 A 
HETATM    4  C   UNK N   1      21.881  13.142   3.876  0.00  0.00     0.035 A 
HETATM    5  C   UNK N   1      21.109  12.609   4.928  0.00  0.00     0.030 A 
HETATM    6  C   UNK N   1      23.233  12.807   3.780  0.00  0.00     0.030 A 
ENDROOT
BRANCH   4   7
HETATM    7  N   UNK N   1      21.445  14.361   3.297  0.00  0.00    -0.323 N 
HETATM    8  C   UNK N   1      21.819  15.494   3.958  0.00  0.00     0.258 C 
HETATM    9  O   UNK N   1      22.606  15.407   4.896  0.00  0.00    -0.267 OA
HETATM   10  H   UNK N   1      20.908  14.388   2.472  0.00  0.00     0.169 HD
BRANCH   8  11
HETATM   11  C   UNK N   1      21.307  16.833   3.640  0.00  0.00     0.059 A 
HETATM   12  C   UNK N   1      22.250  17.870   3.510  0.00  0.00     0.062 A 
HETATM   13  N   UNK N   1      23.552  17.630   3.818  0.00  0.00    -0.352 N 
HETATM   14  C   UNK N   1      21.851  19.156   3.115  0.00  0.00     0.043 A 
HETATM   15  C   UNK N   1      24.510  18.578   3.765  0.00  0.00     0.080 A 
HETATM   16  H   UNK N   1      23.808  16.721   4.093  0.00  0.00     0.166 HD
HETATM   17  C   UNK N   1      24.173  19.879   3.343  0.00  0.00     0.044 A 
HETATM   18  C   UNK N   1      25.821  18.259   4.149  0.00  0.00     0.095 A 
HETATM   19  C   UNK N   1      22.830  20.169   3.009  0.00  0.00     0.197 A 
HETATM   20  C   UNK N   1      25.175  20.858   3.290  0.00  0.00     0.018 A 
HETATM   21  O   UNK N   1      22.514  21.292   2.651  0.00  0.00    -0.286 OA
HETATM   22  C   UNK N   1      26.486  20.544   3.663  0.00  0.00     0.004 A 
HETATM   23  C   UNK N   1      26.809  19.254   4.097  0.00  0.00     0.039 A 
HETATM   24  C   UNK N   1      20.493  19.396   2.853  0.00  0.00     0.018 A 
HETATM   25  C   UNK N   1      19.547  18.371   3.023  0.00  0.00     0.002 A 
HETATM   26  C   UNK N   1      19.951  17.091   3.426  0.00  0.00     0.019 A 
BRANCH  18  27
HETATM   27  O   UNK N   1      26.104  17.001   4.579  0.00  0.00    -0.354 OA
HETATM   28  C   UNK N   1      27.044  16.718   5.543  0.00  0.00     0.210 C 
ENDBRANCH  18  27
ENDBRANCH   8  11
ENDBRANCH   4   7
BRANCH   1  29
HETATM   29  C   UNK N   1      23.741  10.812   6.954  0.00  0.00     0.068 C 
BRANCH  29  30
HETATM   30  C   UNK N   1      23.123  11.066   8.329  0.00  0.00     0.277 C 
BRANCH  30  31
HETATM   31  N   UNK N   1      23.834  12.102   9.084  0.00  0.00     0.093 N 
HETATM   32  C   UNK N   1      23.385  12.111  10.475  0.00  0.00     0.277 C 
HETATM   33  C   UNK N   1      21.897  12.449  10.603  0.00  0.00     0.069 C 
HETATM   34  C   UNK N   1      21.477  13.545   9.670  0.00  0.00    -0.046 A 
HETATM   35  C   UNK N   1      22.329  14.012   8.655  0.00  0.00    -0.021 A 
HETATM   36  C   UNK N   1      20.213  14.109   9.822  0.00  0.00     0.047 A 
HETATM   37  C   UNK N   1      23.690  13.424   8.462  0.00  0.00     0.311 C 
HETATM   38  C   UNK N   1      21.913  15.044   7.815  0.00  0.00     0.049 A 
HETATM   39  C   UNK N   1      20.643  15.622   7.970  0.00  0.00     0.102 A 
HETATM   40  C   UNK N   1      19.788  15.151   8.980  0.00  0.00     0.102 A 
BRANCH  39  41
HETATM   41  O   UNK N   1      20.228  16.630   7.164  0.00  0.00    -0.353 OA
HETATM   42  C   UNK N   1      20.927  17.806   7.004  0.00  0.00     0.210 C 
ENDBRANCH  39  41
BRANCH  40  43
HETATM   43  O   UNK N   1      18.565  15.715   9.133  0.00  0.00    -0.353 OA
HETATM   44  C   UNK N   1      18.384  17.033   9.486  0.00  0.00     0.210 C 
ENDBRANCH  40  43
ENDBRANCH  30  31
ENDBRANCH  29  30
ENDBRANCH   1  29
TORSDOF 8
ENDMDL
MODEL 3
REMARK VINA RESULT:      -8.1      4.475      6.641
REMARK  8 active torsions:
REMARK  status: ('A' for Active; 'I' for Inactive)
REMARK    1  A    between atoms: O_1  and  C_18 
REMARK    2  A    between atoms: O_2  and  C_19 
REMARK    3  A    between atoms: O_3  and  C_37 
REMARK    4  A    between atoms: N_6  and  C_14 
REMARK    5  A    between atoms: N_7  and  C_23 
REMARK       I    between atoms: N_7  and  C_32 
REMARK    6  A    between atoms: C_14  and  C_15 
REMARK    7  A    between atoms: C_15  and  C_20 
REMARK    8  A    between atoms: C_28  and  C_32 
ROOT
HETATM    1  C   UNK N   1      31.146  17.438   8.100  0.00  0.00    -0.056 A 
HETATM    2  C   UNK N   1      30.101  17.945   8.875  0.00  0.00     0.009 A 
HETATM    3  C   UNK N   1      30.943  17.171   6.742  0.00  0.00     0.009 A 
HETATM    4  C   UNK N   1      28.708  18.075   6.893  0.00  0.00     0.035 A 
HETATM    5  C   UNK N   1      28.891  18.253   8.279  0.00  0.00     0.030 A 
HETATM    6  C   UNK N   1      29.734  17.512   6.132  0.00  0.00     0.030 A 
ENDROOT
BRANCH   4   7
HETATM    7  N   UNK N   1      27.771  18.919   6.243  0.00  0.00    -0.323 N 
HETATM    8  C   UNK N   1      26.983  18.314   5.308  0.00  0.00     0.258 C 
HETATM    9  O   UNK N   1      27.023  17.092   5.193  0.00  0.00    -0.267 OA
HETATM   10  H   UNK N   1      27.695  19.878   6.452  0.00  0.00     0.169 HD
BRANCH   8  11
HETATM   11  C   UNK N   1      26.098  19.041   4.389  0.00  0.00     0.059 A 
HETATM   12  C   UNK N   1      24.725  18.739   4.440  0.00  0.00     0.062 A 
HETATM   13  N   UNK N   1      24.298  17.708   5.217  0.00  0.00    -0.352 N 
HETATM   14  C   UNK N   1      23.803  19.457   3.662  0.00  0.00     0.043 A 
HETATM   15  C   UNK N   1      23.007  17.323   5.288  0.00  0.00     0.080 A 
HETATM   16  H   UNK N   1      24.962  17.218   5.753  0.00  0.00     0.166 HD
HETATM   17  C   UNK N   1      22.034  18.028   4.554  0.00  0.00     0.044 A 
HETATM   18  C   UNK N   1      22.658  16.215   6.075  0.00  0.00     0.095 A 
HETATM   19  C   UNK N   1      22.435  19.110   3.737  0.00  0.00     0.197 A 
HETATM   20  C   UNK N   1      20.694  17.621   4.634  0.00  0.00     0.018 A 
HETATM   21  O   UNK N   1      21.611  19.729   3.085  0.00  0.00    -0.286 OA
HETATM   22  C   UNK N   1      20.338  16.523   5.424  0.00  0.00     0.004 A 
HETATM   23  C   UNK N   1      21.313  15.818   6.136  0.00  0.00     0.039 A 
HETATM   24  C   UNK N   1      24.272  20.482   2.827  0.00  0.00     0.018 A 
HETATM   25  C   UNK N   1      25.648  20.756   2.745  0.00  0.00     0.002 A 
HETATM   26  C   UNK N   1      26.564  20.029   3.519  0.00  0.00     0.019 A 
BRANCH  18  27
HETATM   27  O   UNK N   1      23.628  15.540   6.746  0.00  0.00    -0.354 OA
HETATM   28  C   UNK N   1      23.522  14.217   7.112  0.00  0.00     0.210 C 
ENDBRANCH  18  27
ENDBRANCH   8  11
ENDBRANCH   4   7
BRANCH   1  29
HETATM   29  C   UNK N   1      32.503  17.236   8.694  0.00  0.00     0.068 C 
BRANCH  29  30
HETATM   30  C   UNK N   1      33.203  15.959   8.230  0.00  0.00     0.277 C 
BRANCH  30  31
HETATM   31  N   UNK N   1      34.664  16.072   8.266  0.00  0.00     0.093 N 
HETATM   32  C   UNK N   1      35.275  14.967   7.528  0.00  0.00     0.277 C 
HETATM   33  C   UNK N   1      34.946  13.605   8.147  0.00  0.00     0.069 C 
HETATM   34  C   UNK N   1      34.998  13.629   9.645  0.00  0.00    -0.046 A 
HETATM   35  C   UNK N   1      35.109  14.835  10.356  0.00  0.00    -0.021 A 
HETATM   36  C   UNK N   1      34.939  12.423  10.339  0.00  0.00     0.047 A 
HETATM   37  C   UNK N   1      35.171  16.147   9.641  0.00  0.00     0.311 C 
HETATM   38  C   UNK N   1      35.172  14.821  11.749  0.00  0.00     0.049 A 
HETATM   39  C   UNK N   1      35.121  13.607  12.453  0.00  0.00     0.102 A 
HETATM   40  C   UNK N   1      35.003  12.401  11.743  0.00  0.00     0.102 A 
BRANCH  39  41
HETATM   41  O   UNK N   1      35.187  13.578  13.807  0.00  0.00    -0.353 OA
HETATM   42  C   UNK N   1      36.334  13.863  14.514  0.00  0.00     0.210 C 
ENDBRANCH  39  41
BRANCH  40  43
HETATM   43  O   UNK N   1      34.961  11.230  12.423  0.00  0.00    -0.353 OA
HETATM   44  C   UNK N   1      36.063  10.426  12.605  0.00  0.00     0.210 C 
ENDBRANCH  40  43
ENDBRANCH  30  31
ENDBRANCH  29  30
ENDBRANCH   1  29
TORSDOF 8
ENDMDL
MODEL 4
REMARK VINA RESULT:      -8.0      2.323      9.359
REMARK  8 active torsions:
REMARK  status: ('A' for Active; 'I' for Inactive)
REMARK    1  A    between atoms: O_1  and  C_18 
REMARK    2  A    between atoms: O_2  and  C_19 
REMARK    3  A    between atoms: O_3  and  C_37 
REMARK    4  A    between atoms: N_6  and  C_14 
REMARK    5  A    between atoms: N_7  and  C_23 
REMARK       I    between atoms: N_7  and  C_32 
REMARK    6  A    between atoms: C_14  and  C_15 
REMARK    7  A    between atoms: C_15  and  C_20 
REMARK    8  A    between atoms: C_28  and  C_32 
ROOT
HETATM    1  C   UNK N   1      23.829  14.181   4.377  0.00  0.00    -0.056 A 
HETATM    2  C   UNK N   1      23.449  15.340   5.057  0.00  0.00     0.009 A 
HETATM    3  C   UNK N   1      25.180  13.827   4.301  0.00  0.00     0.009 A 
HETATM    4  C   UNK N   1      25.755  15.692   5.725  0.00  0.00     0.035 A 
HETATM    5  C   UNK N   1      24.404  16.093   5.717  0.00  0.00     0.030 A 
HETATM    6  C   UNK N   1      26.140  14.566   4.995  0.00  0.00     0.030 A 
ENDROOT
BRANCH   4   7
HETATM    7  N   UNK N   1      26.546  16.077   6.837  0.00  0.00    -0.323 N 
HETATM    8  C   UNK N   1      27.420  17.100   6.612  0.00  0.00     0.258 C 
HETATM    9  O   UNK N   1      27.370  17.706   5.545  0.00  0.00    -0.267 OA
HETATM   10  H   UNK N   1      26.470  15.637   7.714  0.00  0.00     0.169 HD
BRANCH   8  11
HETATM   11  C   UNK N   1      28.460  17.513   7.563  0.00  0.00     0.059 A 
HETATM   12  C   UNK N   1      29.800  17.319   7.179  0.00  0.00     0.062 A 
HETATM   13  N   UNK N   1      30.073  16.641   6.032  0.00  0.00    -0.352 N 
HETATM   14  C   UNK N   1      30.852  17.773   7.989  0.00  0.00     0.043 A 
HETATM   15  C   UNK N   1      31.327  16.372   5.615  0.00  0.00     0.080 A 
HETATM   16  H   UNK N   1      29.320  16.331   5.480  0.00  0.00     0.166 HD
HETATM   17  C   UNK N   1      32.422  16.832   6.373  0.00  0.00     0.044 A 
HETATM   18  C   UNK N   1      31.521  15.621   4.446  0.00  0.00     0.095 A 
HETATM   19  C   UNK N   1      32.181  17.546   7.569  0.00  0.00     0.197 A 
HETATM   20  C   UNK N   1      33.722  16.548   5.931  0.00  0.00     0.018 A 
HETATM   21  O   UNK N   1      33.114  17.944   8.246  0.00  0.00    -0.286 OA
HETATM   22  C   UNK N   1      33.922  15.807   4.761  0.00  0.00     0.004 A 
HETATM   23  C   UNK N   1      32.830  15.340   4.024  0.00  0.00     0.039 A 
HETATM   24  C   UNK N   1      30.547  18.424   9.195  0.00  0.00     0.018 A 
HETATM   25  C   UNK N   1      29.211  18.581   9.598  0.00  0.00     0.002 A 
HETATM   26  C   UNK N   1      28.165  18.117   8.787  0.00  0.00     0.019 A 
BRANCH  18  27
HETATM   27  O   UNK N   1      30.441  15.168   3.756  0.00  0.00    -0.354 OA
HETATM   28  C   UNK N   1      30.066  13.845   3.712  0.00  0.00     0.210 C 
ENDBRANCH  18  27
ENDBRANCH   8  11
ENDBRANCH   4   7
BRANCH   1  29
HETATM   29  C   UNK N   1      22.797  13.278   3.781  0.00  0.00     0.068 C 
BRANCH  29  30
HETATM   30  C   UNK N   1      21.548  14.003   3.282  0.00  0.00     0.277 C 
BRANCH  30  31
HETATM   31  N   UNK N   1      20.307  13.376   3.749  0.00  0.00     0.093 N 
HETATM   32  C   UNK N   1      19.186  14.303   3.600  0.00  0.00     0.277 C 
HETATM   33  C   UNK N   1      19.360  15.566   4.449  0.00  0.00     0.069 C 
HETATM   34  C   UNK N   1      19.916  15.269   5.810  0.00  0.00    -0.046 A 
HETATM   35  C   UNK N   1      20.419  13.998   6.136  0.00  0.00    -0.021 A 
HETATM   36  C   UNK N   1      19.925  16.280   6.767  0.00  0.00     0.047 A 
HETATM   37  C   UNK N   1      20.428  12.893   5.129  0.00  0.00     0.311 C 
HETATM   38  C   UNK N   1      20.914  13.751   7.416  0.00  0.00     0.049 A 
HETATM   39  C   UNK N   1      20.917  14.766   8.387  0.00  0.00     0.102 A 
HETATM   40  C   UNK N   1      20.420  16.038   8.060  0.00  0.00     0.102 A 
BRANCH  39  41
HETATM   41  O   UNK N   1      21.389  14.537   9.637  0.00  0.00    -0.353 OA
HETATM   42  C   UNK N   1      22.185  13.461   9.959  0.00  0.00     0.210 C 
ENDBRANCH  39  41
BRANCH  40  43
HETATM   43  O   UNK N   1      20.418  17.013   9.000  0.00  0.00    -0.353 OA
HETATM   44  C   UNK N   1      19.523  18.059   8.997  0.00  0.00     0.210 C 
ENDBRANCH  40  43
ENDBRANCH  30  31
ENDBRANCH  29  30
ENDBRANCH   1  29
TORSDOF 8
ENDMDL
MODEL 5
REMARK VINA RESULT:      -7.9      9.188     12.711
REMARK  8 active torsions:
REMARK  status: ('A' for Active; 'I' for Inactive)
REMARK    1  A    between atoms: O_1  and  C_18 
REMARK    2  A    between atoms: O_2  and  C_19 
REMARK    3  A    between atoms: O_3  and  C_37 
REMARK    4  A    between atoms: N_6  and  C_14 
REMARK    5  A    between atoms: N_7  and  C_23 
REMARK       I    between atoms: N_7  and  C_32 
REMARK    6  A    between atoms: C_14  and  C_15 
REMARK    7  A    between atoms: C_15  and  C_20 
REMARK    8  A    between atoms: C_28  and  C_32 
ROOT
HETATM    1  C   UNK N   1      35.965  14.404  10.125  0.00  0.00    -0.056 A 
HETATM    2  C   UNK N   1      35.762  15.474  10.999  0.00  0.00     0.009 A 
HETATM    3  C   UNK N   1      36.221  13.126  10.633  0.00  0.00     0.009 A 
HETATM    4  C   UNK N   1      35.903  13.950  12.882  0.00  0.00     0.035 A 
HETATM    5  C   UNK N   1      35.740  15.251  12.364  0.00  0.00     0.030 A 
HETATM    6  C   UNK N   1      36.165  12.893  12.008  0.00  0.00     0.030 A 
ENDROOT
BRANCH   4   7
HETATM    7  N   UNK N   1      35.292  13.660  14.128  0.00  0.00    -0.323 N 
HETATM    8  C   UNK N   1      36.148  13.457  15.171  0.00  0.00     0.258 C 
HETATM    9  O   UNK N   1      37.346  13.675  15.012  0.00  0.00    -0.267 OA
HETATM   10  H   UNK N   1      34.315  13.609  14.235  0.00  0.00     0.169 HD
BRANCH   8  11
HETATM   11  C   UNK N   1      35.732  12.952  16.485  0.00  0.00     0.059 A 
HETATM   12  C   UNK N   1      35.710  11.556  16.664  0.00  0.00     0.062 A 
HETATM   13  N   UNK N   1      35.929  10.744  15.595  0.00  0.00    -0.352 N 
HETATM   14  C   UNK N   1      35.416  10.998  17.917  0.00  0.00     0.043 A 
HETATM   15  C   UNK N   1      35.881   9.399  15.669  0.00  0.00     0.080 A 
HETATM   16  H   UNK N   1      36.133  11.158  14.726  0.00  0.00     0.166 HD
HETATM   17  C   UNK N   1      35.622   8.782  16.909  0.00  0.00     0.044 A 
HETATM   18  C   UNK N   1      36.069   8.635  14.507  0.00  0.00     0.095 A 
HETATM   19  C   UNK N   1      35.393   9.591  18.046  0.00  0.00     0.197 A 
HETATM   20  C   UNK N   1      35.574   7.383  16.976  0.00  0.00     0.018 A 
HETATM   21  O   UNK N   1      35.157   9.079  19.128  0.00  0.00    -0.286 OA
HETATM   22  C   UNK N   1      35.769   6.615  15.823  0.00  0.00     0.004 A 
HETATM   23  C   UNK N   1      36.009   7.235  14.593  0.00  0.00     0.039 A 
HETATM   24  C   UNK N   1      35.140  11.854  18.995  0.00  0.00     0.018 A 
HETATM   25  C   UNK N   1      35.122  13.246  18.806  0.00  0.00     0.002 A 
HETATM   26  C   UNK N   1      35.408  13.797  17.549  0.00  0.00     0.019 A 
BRANCH  18  27
HETATM   27  O   UNK N   1      36.287   9.264  13.322  0.00  0.00    -0.354 OA
HETATM   28  C   UNK N   1      37.527   9.381  12.738  0.00  0.00     0.210 C 
ENDBRANCH  18  27
ENDBRANCH   8  11
ENDBRANCH   4   7
BRANCH   1  29
HETATM   29  C   UNK N   1      35.849  14.598   8.647  0.00  0.00     0.068 C 
BRANCH  29  30
HETATM   30  C   UNK N   1      34.493  15.138   8.194  0.00  0.00     0.277 C 
BRANCH  30  31
HETATM   31  N   UNK N   1      34.616  16.273   7.275  0.00  0.00     0.093 N 
HETATM   32  C   UNK N   1      34.548  17.533   8.014  0.00  0.00     0.277 C 
HETATM   33  C   UNK N   1      33.204  17.716   8.725  0.00  0.00     0.069 C 
HETATM   34  C   UNK N   1      32.045  17.275   7.882  0.00  0.00    -0.046 A 
HETATM   35  C   UNK N   1      32.237  16.568   6.683  0.00  0.00    -0.021 A 
HETATM   36  C   UNK N   1      30.754  17.582   8.302  0.00  0.00     0.047 A 
HETATM   37  C   UNK N   1      33.611  16.220   6.207  0.00  0.00     0.311 C 
HETATM   38  C   UNK N   1      31.138  16.187   5.914  0.00  0.00     0.049 A 
HETATM   39  C   UNK N   1      29.834  16.502   6.330  0.00  0.00     0.102 A 
HETATM   40  C   UNK N   1      29.641  17.202   7.531  0.00  0.00     0.102 A 
BRANCH  39  41
HETATM   41  O   UNK N   1      28.756  16.142   5.588  0.00  0.00    -0.353 OA
HETATM   42  C   UNK N   1      28.535  14.855   5.152  0.00  0.00     0.210 C 
ENDBRANCH  39  41
BRANCH  40  43
HETATM   43  O   UNK N   1      28.382  17.511   7.926  0.00  0.00    -0.353 OA
HETATM   44  C   UNK N   1      28.074  17.919   9.204  0.00  0.00     0.210 C 
ENDBRANCH  40  43
ENDBRANCH  30  31
ENDBRANCH  29  30
ENDBRANCH   1  29
TORSDOF 8
ENDMDL
MODEL 6
REMARK VINA RESULT:      -7.8      3.079      9.205
REMARK  8 active torsions:
REMARK  status: ('A' for Active; 'I' for Inactive)
REMARK    1  A    between atoms: O_1  and  C_18 
REMARK    2  A    between atoms: O_2  and  C_19 
REMARK    3  A    between atoms: O_3  and  C_37 
REMARK    4  A    between atoms: N_6  and  C_14 
REMARK    5  A    between atoms: N_7  and  C_23 
REMARK       I    between atoms: N_7  and  C_32 
REMARK    6  A    between atoms: C_14  and  C_15 
REMARK    7  A    between atoms: C_15  and  C_20 
REMARK    8  A    between atoms: C_28  and  C_32 
ROOT
HETATM    1  C   UNK N   1      25.367  14.981   2.644  0.00  0.00    -0.056 A 
HETATM    2  C   UNK N   1      24.892  16.075   3.372  0.00  0.00     0.009 A 
HETATM    3  C   UNK N   1      26.725  14.892   2.323  0.00  0.00     0.009 A 
HETATM    4  C   UNK N   1      27.164  16.896   3.599  0.00  0.00     0.035 A 
HETATM    5  C   UNK N   1      25.781  17.027   3.838  0.00  0.00     0.030 A 
HETATM    6  C   UNK N   1      27.628  15.834   2.821  0.00  0.00     0.030 A 
ENDROOT
BRANCH   4   7
HETATM    7  N   UNK N   1      28.049  17.478   4.542  0.00  0.00    -0.323 N 
HETATM    8  C   UNK N   1      28.293  16.734   5.659  0.00  0.00     0.258 C 
HETATM    9  O   UNK N   1      27.868  15.582   5.715  0.00  0.00    -0.267 OA
HETATM   10  H   UNK N   1      28.461  18.361   4.401  0.00  0.00     0.169 HD
BRANCH   8  11
HETATM   11  C   UNK N   1      29.012  17.235   6.837  0.00  0.00     0.059 A 
HETATM   12  C   UNK N   1      30.402  17.022   6.883  0.00  0.00     0.062 A 
HETATM   13  N   UNK N   1      30.991  16.252   5.930  0.00  0.00    -0.352 N 
HETATM   14  C   UNK N   1      31.175  17.554   7.928  0.00  0.00     0.043 A 
HETATM   15  C   UNK N   1      32.307  15.960   5.926  0.00  0.00     0.080 A 
HETATM   16  H   UNK N   1      30.429  15.889   5.208  0.00  0.00     0.166 HD
HETATM   17  C   UNK N   1      33.137  16.493   6.932  0.00  0.00     0.044 A 
HETATM   18  C   UNK N   1      32.826  15.114   4.934  0.00  0.00     0.095 A 
HETATM   19  C   UNK N   1      32.565  17.304   7.940  0.00  0.00     0.197 A 
HETATM   20  C   UNK N   1      34.504  16.185   6.920  0.00  0.00     0.018 A 
HETATM   21  O   UNK N   1      33.263  17.768   8.826  0.00  0.00    -0.286 OA
HETATM   22  C   UNK N   1      35.030  15.350   5.928  0.00  0.00     0.004 A 
HETATM   23  C   UNK N   1      34.196  14.811   4.943  0.00  0.00     0.039 A 
HETATM   24  C   UNK N   1      30.538  18.302   8.931  0.00  0.00     0.018 A 
HETATM   25  C   UNK N   1      29.145  18.480   8.906  0.00  0.00     0.002 A 
HETATM   26  C   UNK N   1      28.378  17.938   7.864  0.00  0.00     0.019 A 
BRANCH  18  27
HETATM   27  O   UNK N   1      31.990  14.594   3.996  0.00  0.00    -0.354 OA
HETATM   28  C   UNK N   1      32.423  14.049   2.809  0.00  0.00     0.210 C 
ENDBRANCH  18  27
ENDBRANCH   8  11
ENDBRANCH   4   7
BRANCH   1  29
HETATM   29  C   UNK N   1      24.445  13.869   2.258  0.00  0.00     0.068 C 
BRANCH  29  30
HETATM   30  C   UNK N   1      23.270  14.308   1.385  0.00  0.00     0.277 C 
BRANCH  30  31
HETATM   31  N   UNK N   1      21.985  13.791   1.866  0.00  0.00     0.093 N 
HETATM   32  C   UNK N   1      20.901  14.241   0.995  0.00  0.00     0.277 C 
HETATM   33  C   UNK N   1      20.759  15.766   0.986  0.00  0.00     0.069 C 
HETATM   34  C   UNK N   1      20.926  16.364   2.351  0.00  0.00    -0.046 A 
HETATM   35  C   UNK N   1      21.388  15.600   3.436  0.00  0.00    -0.021 A 
HETATM   36  C   UNK N   1      20.609  17.706   2.539  0.00  0.00     0.047 A 
HETATM   37  C   UNK N   1      21.741  14.157   3.266  0.00  0.00     0.311 C 
HETATM   38  C   UNK N   1      21.516  16.183   4.696  0.00  0.00     0.049 A 
HETATM   39  C   UNK N   1      21.189  17.535   4.892  0.00  0.00     0.102 A 
HETATM   40  C   UNK N   1      20.734  18.301   3.807  0.00  0.00     0.102 A 
BRANCH  39  41
HETATM   41  O   UNK N   1      21.304  18.113   6.114  0.00  0.00    -0.353 OA
HETATM   42  C   UNK N   1      20.713  17.603   7.249  0.00  0.00     0.210 C 
ENDBRANCH  39  41
BRANCH  40  43
HETATM   43  O   UNK N   1      20.413  19.603   4.000  0.00  0.00    -0.353 OA
HETATM   44  C   UNK N   1      20.685  20.589   3.079  0.00  0.00     0.210 C 
ENDBRANCH  40  43
ENDBRANCH  30  31
ENDBRANCH  29  30
ENDBRANCH   1  29
TORSDOF 8
ENDMDL
MODEL 7
REMARK VINA RESULT:      -7.5      4.262      6.158
REMARK  8 active torsions:
REMARK  status: ('A' for Active; 'I' for Inactive)
REMARK    1  A    between atoms: O_1  and  C_18 
REMARK    2  A    between atoms: O_2  and  C_19 
REMARK    3  A    between atoms: O_3  and  C_37 
REMARK    4  A    between atoms: N_6  and  C_14 
REMARK    5  A    between atoms: N_7  and  C_23 
REMARK       I    between atoms: N_7  and  C_32 
REMARK    6  A    between atoms: C_14  and  C_15 
REMARK    7  A    between atoms: C_15  and  C_20 
REMARK    8  A    between atoms: C_28  and  C_32 
ROOT
HETATM    1  C   UNK N   1      32.092  17.230   5.863  0.00  0.00    -0.056 A 
HETATM    2  C   UNK N   1      31.191  17.228   6.930  0.00  0.00     0.009 A 
HETATM    3  C   UNK N   1      31.622  17.361   4.552  0.00  0.00     0.009 A 
HETATM    4  C   UNK N   1      29.372  17.657   5.382  0.00  0.00     0.035 A 
HETATM    5  C   UNK N   1      29.843  17.431   6.691  0.00  0.00     0.030 A 
HETATM    6  C   UNK N   1      30.267  17.600   4.312  0.00  0.00     0.030 A 
ENDROOT
BRANCH   4   7
HETATM    7  N   UNK N   1      28.194  18.433   5.235  0.00  0.00    -0.323 N 
HETATM    8  C   UNK N   1      27.202  17.862   4.493  0.00  0.00     0.258 C 
HETATM    9  O   UNK N   1      27.320  16.694   4.134  0.00  0.00    -0.267 OA
HETATM   10  H   UNK N   1      28.098  19.324   5.642  0.00  0.00     0.169 HD
BRANCH   8  11
HETATM   11  C   UNK N   1      25.994  18.574   4.057  0.00  0.00     0.059 A 
HETATM   12  C   UNK N   1      24.761  18.126   4.567  0.00  0.00     0.062 A 
HETATM   13  N   UNK N   1      24.721  16.989   5.311  0.00  0.00    -0.352 N 
HETATM   14  C   UNK N   1      23.572  18.811   4.274  0.00  0.00     0.043 A 
HETATM   15  C   UNK N   1      23.578  16.465   5.799  0.00  0.00     0.080 A 
HETATM   16  H   UNK N   1      25.567  16.524   5.504  0.00  0.00     0.166 HD
HETATM   17  C   UNK N   1      22.358  17.129   5.563  0.00  0.00     0.044 A 
HETATM   18  C   UNK N   1      23.619  15.259   6.515  0.00  0.00     0.095 A 
HETATM   19  C   UNK N   1      22.356  18.318   4.798  0.00  0.00     0.197 A 
HETATM   20  C   UNK N   1      21.174  16.578   6.074  0.00  0.00     0.018 A 
HETATM   21  O   UNK N   1      21.310  18.903   4.573  0.00  0.00    -0.286 OA
HETATM   22  C   UNK N   1      21.209  15.380   6.797  0.00  0.00     0.004 A 
HETATM   23  C   UNK N   1      22.423  14.719   7.011  0.00  0.00     0.039 A 
HETATM   24  C   UNK N   1      23.629  19.953   3.459  0.00  0.00     0.018 A 
HETATM   25  C   UNK N   1      24.854  20.376   2.917  0.00  0.00     0.002 A 
HETATM   26  C   UNK N   1      26.037  19.681   3.207  0.00  0.00     0.019 A 
BRANCH  18  27
HETATM   27  O   UNK N   1      24.810  14.631   6.697  0.00  0.00    -0.354 OA
HETATM   28  C   UNK N   1      25.224  14.118   7.905  0.00  0.00     0.210 C 
ENDBRANCH  18  27
ENDBRANCH   8  11
ENDBRANCH   4   7
BRANCH   1  29
HETATM   29  C   UNK N   1      33.565  17.158   6.113  0.00  0.00     0.068 C 
BRANCH  29  30
HETATM   30  C   UNK N   1      33.950  16.322   7.333  0.00  0.00     0.277 C 
BRANCH  30  31
HETATM   31  N   UNK N   1      33.768  14.884   7.113  0.00  0.00     0.093 N 
HETATM   32  C   UNK N   1      32.746  14.359   8.017  0.00  0.00     0.277 C 
HETATM   33  C   UNK N   1      33.142  14.509   9.489  0.00  0.00     0.069 C 
HETATM   34  C   UNK N   1      34.589  14.197   9.727  0.00  0.00    -0.046 A 
HETATM   35  C   UNK N   1      35.487  14.022   8.661  0.00  0.00    -0.021 A 
HETATM   36  C   UNK N   1      35.043  14.076  11.037  0.00  0.00     0.047 A 
HETATM   37  C   UNK N   1      35.031  14.150   7.243  0.00  0.00     0.311 C 
HETATM   38  C   UNK N   1      36.823  13.716   8.916  0.00  0.00     0.049 A 
HETATM   39  C   UNK N   1      37.284  13.585  10.237  0.00  0.00     0.102 A 
HETATM   40  C   UNK N   1      36.389  13.767  11.303  0.00  0.00     0.102 A 
BRANCH  39  41
HETATM   41  O   UNK N   1      38.580  13.283  10.500  0.00  0.00    -0.353 OA
HETATM   42  C   UNK N   1      39.394  12.613   9.614  0.00  0.00     0.210 C 
ENDBRANCH  39  41
BRANCH  40  43
HETATM   43  O   UNK N   1      36.834  13.633  12.576  0.00  0.00    -0.353 OA
HETATM   44  C   UNK N   1      36.291  14.319  13.639  0.00  0.00     0.210 C 
ENDBRANCH  40  43
ENDBRANCH  30  31
ENDBRANCH  29  30
ENDBRANCH   1  29
TORSDOF 8
ENDMDL
MODEL 8
REMARK VINA RESULT:      -7.4      3.040      8.306
REMARK  8 active torsions:
REMARK  status: ('A' for Active; 'I' for Inactive)
REMARK    1  A    between atoms: O_1  and  C_18 
REMARK    2  A    between atoms: O_2  and  C_19 
REMARK    3  A    between atoms: O_3  and  C_37 
REMARK    4  A    between atoms: N_6  and  C_14 
REMARK    5  A    between atoms: N_7  and  C_23 
REMARK       I    between atoms: N_7  and  C_32 
REMARK    6  A    between atoms: C_14  and  C_15 
REMARK    7  A    between atoms: C_15  and  C_20 
REMARK    8  A    between atoms: C_28  and  C_32 
ROOT
HETATM    1  C   UNK N   1      24.107  13.069   0.841  0.00  0.00    -0.056 A 
HETATM    2  C   UNK N   1      24.200  14.441   1.083  0.00  0.00     0.009 A 
HETATM    3  C   UNK N   1      25.112  12.210   1.299  0.00  0.00     0.009 A 
HETATM    4  C   UNK N   1      26.213  14.066   2.386  0.00  0.00     0.035 A 
HETATM    5  C   UNK N   1      25.247  14.936   1.841  0.00  0.00     0.030 A 
HETATM    6  C   UNK N   1      26.150  12.702   2.092  0.00  0.00     0.030 A 
ENDROOT
BRANCH   4   7
HETATM    7  N   UNK N   1      26.856  14.469   3.584  0.00  0.00    -0.323 N 
HETATM    8  C   UNK N   1      28.049  15.111   3.424  0.00  0.00     0.258 C 
HETATM    9  O   UNK N   1      28.413  15.424   2.294  0.00  0.00    -0.267 OA
HETATM   10  H   UNK N   1      26.467  14.298   4.472  0.00  0.00     0.169 HD
BRANCH   8  11
HETATM   11  C   UNK N   1      28.962  15.428   4.530  0.00  0.00     0.059 A 
HETATM   12  C   UNK N   1      28.690  16.588   5.279  0.00  0.00     0.062 A 
HETATM   13  N   UNK N   1      27.703  17.428   4.871  0.00  0.00    -0.352 N 
HETATM   14  C   UNK N   1      29.459  16.908   6.409  0.00  0.00     0.043 A 
HETATM   15  C   UNK N   1      27.408  18.582   5.504  0.00  0.00     0.080 A 
HETATM   16  H   UNK N   1      27.178  17.184   4.076  0.00  0.00     0.166 HD
HETATM   17  C   UNK N   1      28.126  18.939   6.663  0.00  0.00     0.044 A 
HETATM   18  C   UNK N   1      26.407  19.419   4.987  0.00  0.00     0.095 A 
HETATM   19  C   UNK N   1      29.158  18.089   7.124  0.00  0.00     0.197 A 
HETATM   20  C   UNK N   1      27.812  20.140   7.314  0.00  0.00     0.018 A 
HETATM   21  O   UNK N   1      29.798  18.382   8.119  0.00  0.00    -0.286 OA
HETATM   22  C   UNK N   1      26.809  20.974   6.809  0.00  0.00     0.004 A 
HETATM   23  C   UNK N   1      26.114  20.621   5.649  0.00  0.00     0.039 A 
HETATM   24  C   UNK N   1      30.508  16.053   6.782  0.00  0.00     0.018 A 
HETATM   25  C   UNK N   1      30.805  14.917   6.010  0.00  0.00     0.002 A 
HETATM   26  C   UNK N   1      30.038  14.608   4.877  0.00  0.00     0.019 A 
BRANCH  18  27
HETATM   27  O   UNK N   1      25.756  19.058   3.850  0.00  0.00    -0.354 OA
HETATM   28  C   UNK N   1      24.393  18.882   3.775  0.00  0.00     0.210 C 
ENDBRANCH  18  27
ENDBRANCH   8  11
ENDBRANCH   4   7
BRANCH   1  29
HETATM   29  C   UNK N   1      22.910  12.499   0.151  0.00  0.00     0.068 C 
BRANCH  29  30
HETATM   30  C   UNK N   1      21.610  13.249   0.437  0.00  0.00     0.277 C 
BRANCH  30  31
HETATM   31  N   UNK N   1      20.770  12.566   1.426  0.00  0.00     0.093 N 
HETATM   32  C   UNK N   1      19.577  13.360   1.712  0.00  0.00     0.277 C 
HETATM   33  C   UNK N   1      19.920  14.721   2.325  0.00  0.00     0.069 C 
HETATM   34  C   UNK N   1      21.024  14.632   3.335  0.00  0.00    -0.046 A 
HETATM   35  C   UNK N   1      21.781  13.459   3.494  0.00  0.00    -0.021 A 
HETATM   36  C   UNK N   1      21.296  15.741   4.132  0.00  0.00     0.047 A 
HETATM   37  C   UNK N   1      21.516  12.253   2.651  0.00  0.00     0.311 C 
HETATM   38  C   UNK N   1      22.790  13.404   4.454  0.00  0.00     0.049 A 
HETATM   39  C   UNK N   1      23.062  14.517   5.266  0.00  0.00     0.102 A 
HETATM   40  C   UNK N   1      22.311  15.692   5.103  0.00  0.00     0.102 A 
BRANCH  39  41
HETATM   41  O   UNK N   1      24.037  14.476   6.208  0.00  0.00    -0.353 OA
HETATM   42  C   UNK N   1      23.898  13.821   7.412  0.00  0.00     0.210 C 
ENDBRANCH  39  41
BRANCH  40  43
HETATM   43  O   UNK N   1      22.571  16.763   5.893  0.00  0.00    -0.353 OA
HETATM   44  C   UNK N   1      21.690  17.807   6.057  0.00  0.00     0.210 C 
ENDBRANCH  40  43
ENDBRANCH  30  31
ENDBRANCH  29  30
ENDBRANCH   1  29
TORSDOF 8
ENDMDL
MODEL 9
REMARK VINA RESULT:      -7.4      2.543      8.956
REMARK  8 active torsions:
REMARK  status: ('A' for Active; 'I' for Inactive)
REMARK    1  A    between atoms: O_1  and  C_18 
REMARK    2  A    between atoms: O_2  and  C_19 
REMARK    3  A    between atoms: O_3  and  C_37 
REMARK    4  A    between atoms: N_6  and  C_14 
REMARK    5  A    between atoms: N_7  and  C_23 
REMARK       I    between atoms: N_7  and  C_32 
REMARK    6  A    between atoms: C_14  and  C_15 
REMARK    7  A    between atoms: C_15  and  C_20 
REMARK    8  A    between atoms: C_28  and  C_32 
ROOT
HETATM    1  C   UNK N   1      25.392  14.960   2.179  0.00  0.00    -0.056 A 
HETATM    2  C   UNK N   1      24.796  15.962   2.948  0.00  0.00     0.009 A 
HETATM    3  C   UNK N   1      26.744  14.650   2.362  0.00  0.00     0.009 A 
HETATM    4  C   UNK N   1      26.862  16.219   4.196  0.00  0.00     0.035 A 
HETATM    5  C   UNK N   1      25.526  16.591   3.941  0.00  0.00     0.030 A 
HETATM    6  C   UNK N   1      27.472  15.259   3.386  0.00  0.00     0.030 A 
ENDROOT
BRANCH   4   7
HETATM    7  N   UNK N   1      27.351  16.399   5.514  0.00  0.00    -0.323 N 
HETATM    8  C   UNK N   1      28.211  17.445   5.685  0.00  0.00     0.258 C 
HETATM    9  O   UNK N   1      28.389  18.230   4.758  0.00  0.00    -0.267 OA
HETATM   10  H   UNK N   1      27.089  15.810   6.257  0.00  0.00     0.169 HD
BRANCH   8  11
HETATM   11  C   UNK N   1      28.980  17.680   6.914  0.00  0.00     0.059 A 
HETATM   12  C   UNK N   1      30.347  17.347   6.894  0.00  0.00     0.062 A 
HETATM   13  N   UNK N   1      30.860  16.702   5.813  0.00  0.00    -0.352 N 
HETATM   14  C   UNK N   1      31.170  17.630   7.995  0.00  0.00     0.043 A 
HETATM   15  C   UNK N   1      32.147  16.307   5.732  0.00  0.00     0.080 A 
HETATM   16  H   UNK N   1      30.264  16.514   5.053  0.00  0.00     0.166 HD
HETATM   17  C   UNK N   1      33.027  16.593   6.794  0.00  0.00     0.044 A 
HETATM   18  C   UNK N   1      32.584  15.600   4.601  0.00  0.00     0.095 A 
HETATM   19  C   UNK N   1      32.534  17.267   7.936  0.00  0.00     0.197 A 
HETATM   20  C   UNK N   1      34.363  16.179   6.701  0.00  0.00     0.018 A 
HETATM   21  O   UNK N   1      33.275  17.516   8.871  0.00  0.00    -0.286 OA
HETATM   22  C   UNK N   1      34.807  15.482   5.572  0.00  0.00     0.004 A 
HETATM   23  C   UNK N   1      33.923  15.187   4.530  0.00  0.00     0.039 A 
HETATM   24  C   UNK N   1      30.607  18.248   9.123  0.00  0.00     0.018 A 
HETATM   25  C   UNK N   1      29.234  18.543   9.158  0.00  0.00     0.002 A 
HETATM   26  C   UNK N   1      28.416  18.250   8.058  0.00  0.00     0.019 A 
BRANCH  18  27
HETATM   27  O   UNK N   1      31.700  15.316   3.608  0.00  0.00    -0.354 OA
HETATM   28  C   UNK N   1      31.594  14.080   3.014  0.00  0.00     0.210 C 
ENDBRANCH  18  27
ENDBRANCH   8  11
ENDBRANCH   4   7
BRANCH   1  29
HETATM   29  C   UNK N   1      24.582  14.169   1.202  0.00  0.00     0.068 C 
BRANCH  29  30
HETATM   30  C   UNK N   1      23.091  14.504   1.214  0.00  0.00     0.277 C 
BRANCH  30  31
HETATM   31  N   UNK N   1      22.261  13.372   1.635  0.00  0.00     0.093 N 
HETATM   32  C   UNK N   1      20.865  13.788   1.763  0.00  0.00     0.277 C 
HETATM   33  C   UNK N   1      20.677  14.865   2.835  0.00  0.00     0.069 C 
HETATM   34  C   UNK N   1      21.499  14.602   4.061  0.00  0.00    -0.046 A 
HETATM   35  C   UNK N   1      22.485  13.602   4.083  0.00  0.00    -0.021 A 
HETATM   36  C   UNK N   1      21.270  15.369   5.201  0.00  0.00     0.047 A 
HETATM   37  C   UNK N   1      22.758  12.765   2.875  0.00  0.00     0.311 C 
HETATM   38  C   UNK N   1      23.221  13.372   5.246  0.00  0.00     0.049 A 
HETATM   39  C   UNK N   1      22.987  14.138   6.400  0.00  0.00     0.102 A 
HETATM   40  C   UNK N   1      22.006  15.142   6.376  0.00  0.00     0.102 A 
BRANCH  39  41
HETATM   41  O   UNK N   1      23.691  13.921   7.539  0.00  0.00    -0.353 OA
HETATM   42  C   UNK N   1      25.014  13.540   7.548  0.00  0.00     0.210 C 
ENDBRANCH  39  41
BRANCH  40  43
HETATM   43  O   UNK N   1      21.778  15.875   7.493  0.00  0.00    -0.353 OA
HETATM   44  C   UNK N   1      20.578  15.862   8.169  0.00  0.00     0.210 C 
ENDBRANCH  40  43
ENDBRANCH  30  31
ENDBRANCH  29  30
ENDBRANCH   1  29
TORSDOF 8
ENDMDL
