MODEL 1
REMARK VINA RESULT:      -5.9      0.000      0.000
REMARK  30 active torsions:
REMARK  status: ('A' for Active; 'I' for Inactive)
REMARK    1  A    between atoms: C_7  and  C_6 
REMARK    2  A    between atoms: C_20  and  C_6 
REMARK    3  A    between atoms: C_22  and  C_7 
REMARK    4  A    between atoms: C_12  and  C_8 
REMARK    5  A    between atoms: C_13  and  C_9 
REMARK    6  A    between atoms: C_14  and  C_10 
REMARK    7  A    between atoms: C_15  and  C_11 
REMARK    8  A    between atoms: N_36  and  C_12 
REMARK    9  A    between atoms: N_36  and  C_13 
REMARK   10  A    between atoms: N_37  and  C_14 
REMARK   11  A    between atoms: N_37  and  C_15 
REMARK   12  A    between atoms: C_17  and  C_16 
REMARK   13  A    between atoms: O_47  and  C_16 
REMARK   14  A    between atoms: S_49  and  C_17 
REMARK   15  A    between atoms: C_21  and  C_18 
REMARK   16  A    between atoms: S_49  and  C_18 
REMARK   17  A    between atoms: C_23  and  C_19 
REMARK   18  A    between atoms: C_25  and  C_20 
REMARK   19  A    between atoms: C_20  and  N_31 
REMARK   20  A    between atoms: C_24  and  C_21 
REMARK   21  A    between atoms: C_21  and  N_32 
REMARK   22  A    between atoms: C_22  and  O_38 
REMARK   23  A    between atoms: C_26  and  C_23 
REMARK   24  A    between atoms: C_23  and  N_34 
REMARK   25  A    between atoms: C_24  and  O_39 
REMARK   26  A    between atoms: O_41  and  C_25 
REMARK   27  A    between atoms: O_43  and  C_26 
REMARK   28  A    between atoms: P_48  and  N_36 
REMARK   29  A    between atoms: P_48  and  N_37 
REMARK   30  A    between atoms: P_48  and  O_47 
ROOT
HETATM    1  C   UNK N   1      21.336  17.923   4.396  0.00  0.00     0.171 C 
ENDROOT
BRANCH   1   2
HETATM    2  C   UNK N   1      21.724  16.798   5.385  0.00  0.00     0.173 C 
BRANCH   2   3
HETATM    3  S   UNK N   1      23.501  16.329   5.574  0.00  0.00     0.148 S 
HETATM    4  O   UNK N   1      23.262  15.483   4.318  0.00  0.00    -0.228 OA
HETATM    5  O   UNK N   1      22.756  15.407   6.531  0.00  0.00    -0.228 OA
BRANCH   3   6
HETATM    6  C   UNK N   1      24.662  15.039   6.235  0.00  0.00     0.167 C 
BRANCH   6   7
HETATM    7  C   UNK N   1      26.212  15.144   6.132  0.00  0.00     0.193 C 
BRANCH   7   8
HETATM    8  O   UNK N   1      26.741  16.423   5.857  0.00  0.00    -0.310 OA
BRANCH   8   9
HETATM    9  P   UNK N   1      27.959  16.346   4.593  0.00  0.00     0.347 P 
HETATM   10  O   UNK N   1      27.742  17.499   3.571  0.00  0.00    -0.254 OA
BRANCH   9  11
HETATM   11  N   UNK N   1      27.890  14.778   3.702  0.00  0.00    -0.225 NA
BRANCH  11  12
HETATM   12  C   UNK N   1      26.877  14.898   2.664  0.00  0.00     0.115 C 
BRANCH  12  13
HETATM   13  C   UNK N   1      26.440  13.532   2.181  0.00  0.00     0.129 C 
HETATM   14 Cl   UNK N   1      25.316  12.835   3.369  0.00  0.00    -0.129 Cl
ENDBRANCH  12  13
ENDBRANCH  11  12
BRANCH  11  15
HETATM   15  C   UNK N   1      29.161  14.592   3.024  0.00  0.00     0.115 C 
BRANCH  15  16
HETATM   16  C   UNK N   1      29.928  13.466   3.687  0.00  0.00     0.129 C 
HETATM   17 Cl   UNK N   1      28.815  12.497   4.676  0.00  0.00    -0.129 Cl
ENDBRANCH  15  16
ENDBRANCH  11  15
ENDBRANCH   9  11
BRANCH   9  18
HETATM   18  N   UNK N   1      29.576  16.604   5.367  0.00  0.00    -0.225 NA
BRANCH  18  19
HETATM   19  C   UNK N   1      29.492  16.769   6.819  0.00  0.00     0.115 C 
BRANCH  19  20
HETATM   20  C   UNK N   1      30.814  16.394   7.471  0.00  0.00     0.129 C 
HETATM   21 Cl   UNK N   1      31.511  17.798   8.305  0.00  0.00    -0.129 Cl
ENDBRANCH  19  20
ENDBRANCH  18  19
BRANCH  18  22
HETATM   22  C   UNK N   1      30.346  17.634   4.662  0.00  0.00     0.115 C 
BRANCH  22  23
HETATM   23  C   UNK N   1      31.578  17.095   3.953  0.00  0.00     0.129 C 
HETATM   24 Cl   UNK N   1      33.019  17.611   4.858  0.00  0.00    -0.129 Cl
ENDBRANCH  22  23
ENDBRANCH  18  22
ENDBRANCH   9  18
ENDBRANCH   8   9
ENDBRANCH   7   8
ENDBRANCH   6   7
ENDBRANCH   3   6
ENDBRANCH   2   3
ENDBRANCH   1   2
BRANCH   1  25
HETATM   25  C   UNK N   1      20.404  17.334   3.368  0.00  0.00     0.136 C 
HETATM   26  N   UNK N   1      20.878  16.524   2.484  0.00  0.00    -0.355 N 
ATOM     27  HN  UNK N   1      21.891  16.398   2.465  1.00  0.00     0.162 HD
BRANCH  26  28
HETATM   28  C   UNK N   1      20.104  15.779   1.517  0.00  0.00     0.215 C 
BRANCH  28  29
HETATM   29  C   UNK N   1      20.935  14.591   1.073  0.00  0.00    -0.025 A 
HETATM   30  C   UNK N   1      20.330  13.351   0.831  0.00  0.00     0.010 A 
HETATM   31  C   UNK N   1      21.110  12.241   0.492  0.00  0.00     0.001 A 
HETATM   32  C   UNK N   1      22.500  12.359   0.396  0.00  0.00     0.000 A 
HETATM   33  C   UNK N   1      23.113  13.589   0.633  0.00  0.00     0.001 A 
HETATM   34  C   UNK N   1      22.338  14.695   0.973  0.00  0.00     0.010 A 
ENDBRANCH  28  29
BRANCH  28  35
HETATM   35  C   UNK N   1      19.663  16.633   0.348  0.00  0.00     0.168 C 
HETATM   36  O   UNK N   1      20.436  17.427  -0.172  0.00  0.00    -0.648 OA
BRANCH  35  37
HETATM   37  O   UNK N   1      18.404  16.538  -0.118  0.00  0.00    -0.775 OA
HETATM   38  H   UNK N   1      17.792  15.921   0.232  0.00  0.00     0.167 HD
ENDBRANCH  35  37
ENDBRANCH  28  35
ENDBRANCH  26  28
BRANCH  25  39
HETATM   39  O   UNK N   1      19.082  17.593   3.424  0.00  0.00    -0.348 OA
HETATM   40  H   UNK N   1      18.621  18.174   3.996  0.00  0.00     0.219 HD
ENDBRANCH  25  39
ENDBRANCH   1  25
BRANCH   1  41
HETATM   41  N   UNK N   1      22.515  18.544   3.812  0.00  0.00    -0.362 N 
HETATM   42  C   UNK N   1      22.560  19.751   3.352  0.00  0.00     0.111 C 
ATOM     43  HN  UNK N   1      23.368  17.987   3.762  1.00  0.00     0.162 HD
BRANCH  42  44
HETATM   44  C   UNK N   1      23.831  20.256   2.763  0.00  0.00     0.086 C 
BRANCH  44  45
HETATM   45  C   UNK N   1      25.048  19.568   3.382  0.00  0.00     0.043 C 
BRANCH  45  46
HETATM   46  C   UNK N   1      26.070  20.513   4.021  0.00  0.00     0.173 C 
BRANCH  46  47
HETATM   47  C   UNK N   1      26.160  20.308   5.513  0.00  0.00     0.163 C 
HETATM   48  O   UNK N   1      26.217  21.270   6.262  0.00  0.00    -0.648 OA
BRANCH  47  49
HETATM   49  O   UNK N   1      26.198  19.064   6.030  0.00  0.00    -0.775 OA
HETATM   50  H   UNK N   1      26.196  18.311   5.473  0.00  0.00     0.167 HD
ENDBRANCH  47  49
ENDBRANCH  46  47
BRANCH  46  51
HETATM   51  N   UNK N   1      27.361  20.266   3.403  0.00  0.00    -0.418 N 
HETATM   52  H   UNK N   1      27.416  19.908   2.449  0.00  0.00     0.150 HD
HETATM   53  H   UNK N   1      28.218  20.451   3.925  0.00  0.00     0.150 HD
ENDBRANCH  46  51
ENDBRANCH  45  46
ENDBRANCH  44  45
ENDBRANCH  42  44
BRANCH  42  54
HETATM   54  O   UNK N   1      21.473  20.549   3.392  0.00  0.00    -0.350 OA
HETATM   55  H   UNK N   1      20.923  21.308   3.360  0.00  0.00     0.219 HD
ENDBRANCH  42  54
ENDBRANCH   1  41
TORSDOF 30
ENDMDL
MODEL 2
REMARK VINA RESULT:      -5.9      3.946      7.483
REMARK  30 active torsions:
REMARK  status: ('A' for Active; 'I' for Inactive)
REMARK    1  A    between atoms: C_7  and  C_6 
REMARK    2  A    between atoms: C_20  and  C_6 
REMARK    3  A    between atoms: C_22  and  C_7 
REMARK    4  A    between atoms: C_12  and  C_8 
REMARK    5  A    between atoms: C_13  and  C_9 
REMARK    6  A    between atoms: C_14  and  C_10 
REMARK    7  A    between atoms: C_15  and  C_11 
REMARK    8  A    between atoms: N_36  and  C_12 
REMARK    9  A    between atoms: N_36  and  C_13 
REMARK   10  A    between atoms: N_37  and  C_14 
REMARK   11  A    between atoms: N_37  and  C_15 
REMARK   12  A    between atoms: C_17  and  C_16 
REMARK   13  A    between atoms: O_47  and  C_16 
REMARK   14  A    between atoms: S_49  and  C_17 
REMARK   15  A    between atoms: C_21  and  C_18 
REMARK   16  A    between atoms: S_49  and  C_18 
REMARK   17  A    between atoms: C_23  and  C_19 
REMARK   18  A    between atoms: C_25  and  C_20 
REMARK   19  A    between atoms: C_20  and  N_31 
REMARK   20  A    between atoms: C_24  and  C_21 
REMARK   21  A    between atoms: C_21  and  N_32 
REMARK   22  A    between atoms: C_22  and  O_38 
REMARK   23  A    between atoms: C_26  and  C_23 
REMARK   24  A    between atoms: C_23  and  N_34 
REMARK   25  A    between atoms: C_24  and  O_39 
REMARK   26  A    between atoms: O_41  and  C_25 
REMARK   27  A    between atoms: O_43  and  C_26 
REMARK   28  A    between atoms: P_48  and  N_36 
REMARK   29  A    between atoms: P_48  and  N_37 
REMARK   30  A    between atoms: P_48  and  O_47 
ROOT
HETATM    1  C   UNK N   1      21.813  18.078   5.029  0.00  0.00     0.171 C 
ENDROOT
BRANCH   1   2
HETATM    2  C   UNK N   1      21.061  19.218   4.303  0.00  0.00     0.173 C 
BRANCH   2   3
HETATM    3  S   UNK N   1      20.298  18.894   2.651  0.00  0.00     0.148 S 
HETATM    4  O   UNK N   1      19.469  17.844   3.402  0.00  0.00    -0.228 OA
HETATM    5  O   UNK N   1      21.595  18.093   2.641  0.00  0.00    -0.228 OA
BRANCH   3   6
HETATM    6  C   UNK N   1      20.348  17.799   1.153  0.00  0.00     0.167 C 
BRANCH   6   7
HETATM    7  C   UNK N   1      20.037  16.273   1.192  0.00  0.00     0.193 C 
BRANCH   7   8
HETATM    8  O   UNK N   1      21.100  15.404   0.868  0.00  0.00    -0.310 OA
BRANCH   8   9
HETATM    9  P   UNK N   1      21.479  14.339   2.213  0.00  0.00     0.347 P 
HETATM   10  O   UNK N   1      20.999  14.975   3.550  0.00  0.00    -0.254 OA
BRANCH   9  11
HETATM   11  N   UNK N   1      23.254  14.033   2.335  0.00  0.00    -0.225 NA
BRANCH  11  12
HETATM   12  C   UNK N   1      23.440  12.723   2.943  0.00  0.00     0.115 C 
BRANCH  12  13
HETATM   13  C   UNK N   1      23.549  12.842   4.448  0.00  0.00     0.129 C 
HETATM   14 Cl   UNK N   1      23.527  11.212   5.157  0.00  0.00    -0.129 Cl
ENDBRANCH  12  13
ENDBRANCH  11  12
BRANCH  11  15
HETATM   15  C   UNK N   1      23.787  13.946   0.988  0.00  0.00     0.115 C 
BRANCH  15  16
HETATM   16  C   UNK N   1      24.369  12.565   0.762  0.00  0.00     0.129 C 
HETATM   17 Cl   UNK N   1      23.558  11.804  -0.623  0.00  0.00    -0.129 Cl
ENDBRANCH  15  16
ENDBRANCH  11  15
ENDBRANCH   9  11
BRANCH   9  18
HETATM   18  N   UNK N   1      20.550  12.802   1.980  0.00  0.00    -0.225 NA
BRANCH  18  19
HETATM   19  C   UNK N   1      20.186  12.564   0.582  0.00  0.00     0.115 C 
BRANCH  19  20
HETATM   20  C   UNK N   1      18.701  12.818   0.373  0.00  0.00     0.129 C 
HETATM   21 Cl   UNK N   1      17.930  11.399  -0.364  0.00  0.00    -0.129 Cl
ENDBRANCH  19  20
ENDBRANCH  18  19
BRANCH  18  22
HETATM   22  C   UNK N   1      19.449  12.693   2.942  0.00  0.00     0.115 C 
BRANCH  22  23
HETATM   23  C   UNK N   1      19.623  11.562   3.942  0.00  0.00     0.129 C 
HETATM   24 Cl   UNK N   1      20.079  12.263   5.511  0.00  0.00    -0.129 Cl
ENDBRANCH  22  23
ENDBRANCH  18  22
ENDBRANCH   9  18
ENDBRANCH   8   9
ENDBRANCH   7   8
ENDBRANCH   6   7
ENDBRANCH   3   6
ENDBRANCH   2   3
ENDBRANCH   1   2
BRANCH   1  25
HETATM   25  C   UNK N   1      21.213  17.931   6.405  0.00  0.00     0.136 C 
HETATM   26  N   UNK N   1      21.043  16.750   6.892  0.00  0.00    -0.355 N 
ATOM     27  HN  UNK N   1      21.235  15.961   6.273  1.00  0.00     0.162 HD
BRANCH  26  28
HETATM   28  C   UNK N   1      20.605  16.443   8.235  0.00  0.00     0.215 C 
BRANCH  28  29
HETATM   29  C   UNK N   1      21.043  15.027   8.553  0.00  0.00    -0.025 A 
HETATM   30  C   UNK N   1      20.519  14.353   9.664  0.00  0.00     0.010 A 
HETATM   31  C   UNK N   1      20.980  13.075   9.995  0.00  0.00     0.001 A 
HETATM   32  C   UNK N   1      21.970  12.461   9.222  0.00  0.00     0.000 A 
HETATM   33  C   UNK N   1      22.498  13.121   8.113  0.00  0.00     0.001 A 
HETATM   34  C   UNK N   1      22.042  14.396   7.783  0.00  0.00     0.010 A 
ENDBRANCH  28  29
BRANCH  28  35
HETATM   35  C   UNK N   1      19.113  16.631   8.413  0.00  0.00     0.168 C 
HETATM   36  O   UNK N   1      18.326  16.188   7.587  0.00  0.00    -0.648 OA
BRANCH  35  37
HETATM   37  O   UNK N   1      18.643  17.306   9.478  0.00  0.00    -0.775 OA
HETATM   38  H   UNK N   1      18.136  16.887  10.146  0.00  0.00     0.167 HD
ENDBRANCH  35  37
ENDBRANCH  28  35
ENDBRANCH  26  28
BRANCH  25  39
HETATM   39  O   UNK N   1      20.933  19.026   7.142  0.00  0.00    -0.348 OA
HETATM   40  H   UNK N   1      20.757  19.086   8.060  0.00  0.00     0.219 HD
ENDBRANCH  25  39
ENDBRANCH   1  25
BRANCH   1  41
HETATM   41  N   UNK N   1      23.247  18.320   5.053  0.00  0.00    -0.362 N 
HETATM   42  C   UNK N   1      24.137  17.517   4.571  0.00  0.00     0.111 C 
ATOM     43  HN  UNK N   1      23.574  19.186   5.480  1.00  0.00     0.162 HD
BRANCH  42  44
HETATM   44  C   UNK N   1      25.578  17.881   4.678  0.00  0.00     0.086 C 
BRANCH  44  45
HETATM   45  C   UNK N   1      25.757  19.353   5.048  0.00  0.00     0.043 C 
BRANCH  45  46
HETATM   46  C   UNK N   1      27.017  19.668   5.860  0.00  0.00     0.173 C 
BRANCH  46  47
HETATM   47  C   UNK N   1      26.824  20.876   6.742  0.00  0.00     0.163 C 
HETATM   48  O   UNK N   1      27.321  21.947   6.433  0.00  0.00    -0.648 OA
BRANCH  47  49
HETATM   49  O   UNK N   1      26.119  20.779   7.887  0.00  0.00    -0.775 OA
HETATM   50  H   UNK N   1      25.307  20.314   7.914  0.00  0.00     0.167 HD
ENDBRANCH  47  49
ENDBRANCH  46  47
BRANCH  46  51
HETATM   51  N   UNK N   1      27.336  18.503   6.668  0.00  0.00    -0.418 N 
HETATM   52  H   UNK N   1      27.610  18.613   7.644  0.00  0.00     0.150 HD
HETATM   53  H   UNK N   1      27.285  17.571   6.257  0.00  0.00     0.150 HD
ENDBRANCH  46  51
ENDBRANCH  45  46
ENDBRANCH  44  45
ENDBRANCH  42  44
BRANCH  42  54
HETATM   54  O   UNK N   1      23.779  16.355   3.984  0.00  0.00    -0.350 OA
HETATM   55  H   UNK N   1      23.459  15.735   3.358  0.00  0.00     0.219 HD
ENDBRANCH  42  54
ENDBRANCH   1  41
TORSDOF 30
ENDMDL
MODEL 3
REMARK VINA RESULT:      -5.8      2.856      5.148
REMARK  30 active torsions:
REMARK  status: ('A' for Active; 'I' for Inactive)
REMARK    1  A    between atoms: C_7  and  C_6 
REMARK    2  A    between atoms: C_20  and  C_6 
REMARK    3  A    between atoms: C_22  and  C_7 
REMARK    4  A    between atoms: C_12  and  C_8 
REMARK    5  A    between atoms: C_13  and  C_9 
REMARK    6  A    between atoms: C_14  and  C_10 
REMARK    7  A    between atoms: C_15  and  C_11 
REMARK    8  A    between atoms: N_36  and  C_12 
REMARK    9  A    between atoms: N_36  and  C_13 
REMARK   10  A    between atoms: N_37  and  C_14 
REMARK   11  A    between atoms: N_37  and  C_15 
REMARK   12  A    between atoms: C_17  and  C_16 
REMARK   13  A    between atoms: O_47  and  C_16 
REMARK   14  A    between atoms: S_49  and  C_17 
REMARK   15  A    between atoms: C_21  and  C_18 
REMARK   16  A    between atoms: S_49  and  C_18 
REMARK   17  A    between atoms: C_23  and  C_19 
REMARK   18  A    between atoms: C_25  and  C_20 
REMARK   19  A    between atoms: C_20  and  N_31 
REMARK   20  A    between atoms: C_24  and  C_21 
REMARK   21  A    between atoms: C_21  and  N_32 
REMARK   22  A    between atoms: C_22  and  O_38 
REMARK   23  A    between atoms: C_26  and  C_23 
REMARK   24  A    between atoms: C_23  and  N_34 
REMARK   25  A    between atoms: C_24  and  O_39 
REMARK   26  A    between atoms: O_41  and  C_25 
REMARK   27  A    between atoms: O_43  and  C_26 
REMARK   28  A    between atoms: P_48  and  N_36 
REMARK   29  A    between atoms: P_48  and  N_37 
REMARK   30  A    between atoms: P_48  and  O_47 
ROOT
HETATM    1  C   UNK N   1      20.956  17.028   5.351  0.00  0.00     0.171 C 
ENDROOT
BRANCH   1   2
HETATM    2  C   UNK N   1      21.576  18.443   5.260  0.00  0.00     0.173 C 
BRANCH   2   3
HETATM    3  S   UNK N   1      23.311  18.635   4.653  0.00  0.00     0.148 S 
HETATM    4  O   UNK N   1      22.649  19.012   3.322  0.00  0.00    -0.228 OA
HETATM    5  O   UNK N   1      23.030  17.141   4.551  0.00  0.00    -0.228 OA
BRANCH   3   6
HETATM    6  C   UNK N   1      24.694  17.797   3.741  0.00  0.00     0.167 C 
BRANCH   6   7
HETATM    7  C   UNK N   1      25.745  16.877   4.430  0.00  0.00     0.193 C 
BRANCH   7   8
HETATM    8  O   UNK N   1      27.066  16.953   3.940  0.00  0.00    -0.310 OA
BRANCH   8   9
HETATM    9  P   UNK N   1      28.228  16.504   5.180  0.00  0.00     0.347 P 
HETATM   10  O   UNK N   1      27.541  15.619   6.260  0.00  0.00    -0.254 OA
BRANCH   9  11
HETATM   11  N   UNK N   1      28.921  17.958   5.994  0.00  0.00    -0.225 NA
BRANCH  11  12
HETATM   12  C   UNK N   1      28.262  19.134   5.446  0.00  0.00     0.115 C 
BRANCH  12  13
HETATM   13  C   UNK N   1      27.414  19.814   6.500  0.00  0.00     0.129 C 
HETATM   14 Cl   UNK N   1      27.315  21.549   6.126  0.00  0.00    -0.129 Cl
ENDBRANCH  12  13
ENDBRANCH  11  12
BRANCH  11  15
HETATM   15  C   UNK N   1      28.562  17.898   7.400  0.00  0.00     0.115 C 
BRANCH  15  16
HETATM   16  C   UNK N   1      29.777  17.509   8.216  0.00  0.00     0.129 C 
HETATM   17 Cl   UNK N   1      30.167  18.818   9.352  0.00  0.00    -0.129 Cl
ENDBRANCH  15  16
ENDBRANCH  11  15
ENDBRANCH   9  11
BRANCH   9  18
HETATM   18  N   UNK N   1      29.515  15.502   4.394  0.00  0.00    -0.225 NA
BRANCH  18  19
HETATM   19  C   UNK N   1      30.462  16.301   3.614  0.00  0.00     0.115 C 
BRANCH  19  20
HETATM   20  C   UNK N   1      31.871  16.132   4.162  0.00  0.00     0.129 C 
HETATM   21 Cl   UNK N   1      32.718  17.692   4.177  0.00  0.00    -0.129 Cl
ENDBRANCH  19  20
ENDBRANCH  18  19
BRANCH  18  22
HETATM   22  C   UNK N   1      28.940  14.350   3.691  0.00  0.00     0.115 C 
BRANCH  22  23
HETATM   23  C   UNK N   1      28.951  14.492   2.178  0.00  0.00     0.129 C 
HETATM   24 Cl   UNK N   1      28.708  12.883   1.461  0.00  0.00    -0.129 Cl
ENDBRANCH  22  23
ENDBRANCH  18  22
ENDBRANCH   9  18
ENDBRANCH   8   9
ENDBRANCH   7   8
ENDBRANCH   6   7
ENDBRANCH   3   6
ENDBRANCH   2   3
ENDBRANCH   1   2
BRANCH   1  25
HETATM   25  C   UNK N   1      20.068  16.835   4.147  0.00  0.00     0.136 C 
HETATM   26  N   UNK N   1      20.586  16.909   2.969  0.00  0.00    -0.355 N 
ATOM     27  HN  UNK N   1      21.564  17.196   2.908  1.00  0.00     0.162 HD
BRANCH  26  28
HETATM   28  C   UNK N   1      19.905  16.623   1.726  0.00  0.00     0.215 C 
BRANCH  28  29
HETATM   29  C   UNK N   1      20.240  15.198   1.331  0.00  0.00    -0.025 A 
HETATM   30  C   UNK N   1      21.575  14.783   1.233  0.00  0.00     0.010 A 
HETATM   31  C   UNK N   1      21.880  13.489   0.799  0.00  0.00     0.001 A 
HETATM   32  C   UNK N   1      20.856  12.601   0.456  0.00  0.00     0.000 A 
HETATM   33  C   UNK N   1      19.524  13.002   0.552  0.00  0.00     0.001 A 
HETATM   34  C   UNK N   1      19.218  14.292   0.981  0.00  0.00     0.010 A 
ENDBRANCH  28  29
BRANCH  28  35
HETATM   35  C   UNK N   1      20.252  17.613   0.635  0.00  0.00     0.168 C 
HETATM   36  O   UNK N   1      20.292  17.262  -0.537  0.00  0.00    -0.648 OA
BRANCH  35  37
HETATM   37  O   UNK N   1      20.541  18.889   0.951  0.00  0.00    -0.775 OA
HETATM   38  H   UNK N   1      21.175  19.105   1.606  0.00  0.00     0.167 HD
ENDBRANCH  35  37
ENDBRANCH  28  35
ENDBRANCH  26  28
BRANCH  25  39
HETATM   39  O   UNK N   1      18.768  16.512   4.308  0.00  0.00    -0.348 OA
HETATM   40  H   UNK N   1      18.247  15.910   3.814  0.00  0.00     0.219 HD
ENDBRANCH  25  39
ENDBRANCH   1  25
BRANCH   1  41
HETATM   41  N   UNK N   1      20.258  16.836   6.613  0.00  0.00    -0.362 N 
HETATM   42  C   UNK N   1      20.678  16.088   7.579  0.00  0.00     0.111 C 
ATOM     43  HN  UNK N   1      19.374  17.327   6.745  1.00  0.00     0.162 HD
BRANCH  42  44
HETATM   44  C   UNK N   1      19.853  15.965   8.814  0.00  0.00     0.086 C 
BRANCH  44  45
HETATM   45  C   UNK N   1      18.616  16.862   8.752  0.00  0.00     0.043 C 
BRANCH  45  46
HETATM   46  C   UNK N   1      18.450  17.817   9.937  0.00  0.00     0.173 C 
BRANCH  46  47
HETATM   47  C   UNK N   1      19.376  19.002   9.832  0.00  0.00     0.163 C 
HETATM   48  O   UNK N   1      20.061  19.159   8.834  0.00  0.00    -0.648 OA
BRANCH  47  49
HETATM   49  O   UNK N   1      19.471  19.887  10.844  0.00  0.00    -0.775 OA
HETATM   50  H   UNK N   1      19.151  19.675  11.699  0.00  0.00     0.167 HD
ENDBRANCH  47  49
ENDBRANCH  46  47
BRANCH  46  51
HETATM   51  N   UNK N   1      17.067  18.263   9.966  0.00  0.00    -0.418 N 
HETATM   52  H   UNK N   1      16.530  18.332   9.101  0.00  0.00     0.150 HD
HETATM   53  H   UNK N   1      16.631  18.510  10.855  0.00  0.00     0.150 HD
ENDBRANCH  46  51
ENDBRANCH  45  46
ENDBRANCH  44  45
ENDBRANCH  42  44
BRANCH  42  54
HETATM   54  O   UNK N   1      21.843  15.413   7.478  0.00  0.00    -0.350 OA
HETATM   55  H   UNK N   1      22.567  14.934   7.125  0.00  0.00     0.219 HD
ENDBRANCH  42  54
ENDBRANCH   1  41
TORSDOF 30
ENDMDL
MODEL 4
REMARK VINA RESULT:      -5.7      6.612     10.265
REMARK  30 active torsions:
REMARK  status: ('A' for Active; 'I' for Inactive)
REMARK    1  A    between atoms: C_7  and  C_6 
REMARK    2  A    between atoms: C_20  and  C_6 
REMARK    3  A    between atoms: C_22  and  C_7 
REMARK    4  A    between atoms: C_12  and  C_8 
REMARK    5  A    between atoms: C_13  and  C_9 
REMARK    6  A    between atoms: C_14  and  C_10 
REMARK    7  A    between atoms: C_15  and  C_11 
REMARK    8  A    between atoms: N_36  and  C_12 
REMARK    9  A    between atoms: N_36  and  C_13 
REMARK   10  A    between atoms: N_37  and  C_14 
REMARK   11  A    between atoms: N_37  and  C_15 
REMARK   12  A    between atoms: C_17  and  C_16 
REMARK   13  A    between atoms: O_47  and  C_16 
REMARK   14  A    between atoms: S_49  and  C_17 
REMARK   15  A    between atoms: C_21  and  C_18 
REMARK   16  A    between atoms: S_49  and  C_18 
REMARK   17  A    between atoms: C_23  and  C_19 
REMARK   18  A    between atoms: C_25  and  C_20 
REMARK   19  A    between atoms: C_20  and  N_31 
REMARK   20  A    between atoms: C_24  and  C_21 
REMARK   21  A    between atoms: C_21  and  N_32 
REMARK   22  A    between atoms: C_22  and  O_38 
REMARK   23  A    between atoms: C_26  and  C_23 
REMARK   24  A    between atoms: C_23  and  N_34 
REMARK   25  A    between atoms: C_24  and  O_39 
REMARK   26  A    between atoms: O_41  and  C_25 
REMARK   27  A    between atoms: O_43  and  C_26 
REMARK   28  A    between atoms: P_48  and  N_36 
REMARK   29  A    between atoms: P_48  and  N_37 
REMARK   30  A    between atoms: P_48  and  O_47 
ROOT
HETATM    1  C   UNK N   1      31.024  15.553   6.572  0.00  0.00     0.171 C 
ENDROOT
BRANCH   1   2
HETATM    2  C   UNK N   1      32.444  15.307   6.010  0.00  0.00     0.173 C 
BRANCH   2   3
HETATM    3  S   UNK N   1      33.570  14.125   6.876  0.00  0.00     0.148 S 
HETATM    4  O   UNK N   1      32.351  13.839   7.762  0.00  0.00    -0.228 OA
HETATM    5  O   UNK N   1      33.893  15.483   7.486  0.00  0.00    -0.228 OA
BRANCH   3   6
HETATM    6  C   UNK N   1      34.695  13.905   8.336  0.00  0.00     0.167 C 
BRANCH   6   7
HETATM    7  C   UNK N   1      34.194  13.862   9.810  0.00  0.00     0.193 C 
BRANCH   7   8
HETATM    8  O   UNK N   1      35.093  14.322  10.795  0.00  0.00    -0.310 OA
BRANCH   8   9
HETATM    9  P   UNK N   1      35.506  13.040  11.923  0.00  0.00     0.347 P 
HETATM   10  O   UNK N   1      34.576  11.812  11.700  0.00  0.00    -0.254 OA
BRANCH   9  11
HETATM   11  N   UNK N   1      35.330  13.582  13.635  0.00  0.00    -0.225 NA
BRANCH  11  12
HETATM   12  C   UNK N   1      35.513  12.420  14.492  0.00  0.00     0.115 C 
BRANCH  12  13
HETATM   13  C   UNK N   1      34.248  12.125  15.271  0.00  0.00     0.129 C 
HETATM   14 Cl   UNK N   1      33.523  10.628  14.644  0.00  0.00    -0.129 Cl
ENDBRANCH  12  13
ENDBRANCH  11  12
BRANCH  11  15
HETATM   15  C   UNK N   1      36.421  14.493  13.931  0.00  0.00     0.115 C 
BRANCH  15  16
HETATM   16  C   UNK N   1      36.814  14.356  15.388  0.00  0.00     0.129 C 
HETATM   17 Cl   UNK N   1      37.529  15.881  15.951  0.00  0.00    -0.129 Cl
ENDBRANCH  15  16
ENDBRANCH  11  15
ENDBRANCH   9  11
BRANCH   9  18
HETATM   18  N   UNK N   1      37.200  12.510  11.561  0.00  0.00    -0.225 NA
BRANCH  18  19
HETATM   19  C   UNK N   1      37.861  13.357  10.567  0.00  0.00     0.115 C 
BRANCH  19  20
HETATM   20  C   UNK N   1      38.072  12.586   9.273  0.00  0.00     0.129 C 
HETATM   21 Cl   UNK N   1      38.335  13.707   7.922  0.00  0.00    -0.129 Cl
ENDBRANCH  19  20
ENDBRANCH  18  19
BRANCH  18  22
HETATM   22  C   UNK N   1      37.263  11.069  11.298  0.00  0.00     0.115 C 
BRANCH  22  23
HETATM   23  C   UNK N   1      37.705  10.250  12.499  0.00  0.00     0.129 C 
HETATM   24 Cl   UNK N   1      36.374   9.165  12.962  0.00  0.00    -0.129 Cl
ENDBRANCH  22  23
ENDBRANCH  18  22
ENDBRANCH   9  18
ENDBRANCH   8   9
ENDBRANCH   7   8
ENDBRANCH   6   7
ENDBRANCH   3   6
ENDBRANCH   2   3
ENDBRANCH   1   2
BRANCH   1  25
HETATM   25  C   UNK N   1      30.040  15.356   5.445  0.00  0.00     0.136 C 
HETATM   26  N   UNK N   1      28.983  16.092   5.401  0.00  0.00    -0.355 N 
ATOM     27  HN  UNK N   1      28.814  16.711   6.196  1.00  0.00     0.162 HD
BRANCH  26  28
HETATM   28  C   UNK N   1      28.014  16.118   4.328  0.00  0.00     0.215 C 
BRANCH  28  29
HETATM   29  C   UNK N   1      27.550  17.551   4.158  0.00  0.00    -0.025 A 
HETATM   30  C   UNK N   1      28.291  18.608   4.703  0.00  0.00     0.010 A 
HETATM   31  C   UNK N   1      27.820  19.922   4.606  0.00  0.00     0.001 A 
HETATM   32  C   UNK N   1      26.607  20.190   3.967  0.00  0.00     0.000 A 
HETATM   33  C   UNK N   1      25.861  19.147   3.418  0.00  0.00     0.001 A 
HETATM   34  C   UNK N   1      26.327  17.837   3.517  0.00  0.00     0.010 A 
ENDBRANCH  28  29
BRANCH  28  35
HETATM   35  C   UNK N   1      26.859  15.170   4.569  0.00  0.00     0.168 C 
HETATM   36  O   UNK N   1      26.094  15.345   5.508  0.00  0.00    -0.648 OA
BRANCH  35  37
HETATM   37  O   UNK N   1      26.677  14.112   3.757  0.00  0.00    -0.775 OA
HETATM   38  H   UNK N   1      27.361  13.495   3.587  0.00  0.00     0.167 HD
ENDBRANCH  35  37
ENDBRANCH  28  35
ENDBRANCH  26  28
BRANCH  25  39
HETATM   39  O   UNK N   1      30.307  14.476   4.459  0.00  0.00    -0.348 OA
HETATM   40  H   UNK N   1      30.162  14.565   3.537  0.00  0.00     0.219 HD
ENDBRANCH  25  39
ENDBRANCH   1  25
BRANCH   1  41
HETATM   41  N   UNK N   1      30.922  16.862   7.198  0.00  0.00    -0.362 N 
HETATM   42  C   UNK N   1      31.071  17.087   8.461  0.00  0.00     0.111 C 
ATOM     43  HN  UNK N   1      30.718  17.661   6.596  1.00  0.00     0.162 HD
BRANCH  42  44
HETATM   44  C   UNK N   1      30.922  18.478   8.974  0.00  0.00     0.086 C 
BRANCH  44  45
HETATM   45  C   UNK N   1      29.489  18.758   9.427  0.00  0.00     0.043 C 
BRANCH  45  46
HETATM   46  C   UNK N   1      28.407  18.421   8.396  0.00  0.00     0.173 C 
BRANCH  46  47
HETATM   47  C   UNK N   1      27.654  17.168   8.768  0.00  0.00     0.163 C 
HETATM   48  O   UNK N   1      27.686  16.751   9.915  0.00  0.00    -0.648 OA
BRANCH  47  49
HETATM   49  O   UNK N   1      26.957  16.489   7.836  0.00  0.00    -0.775 OA
HETATM   50  H   UNK N   1      27.371  16.184   7.053  0.00  0.00     0.167 HD
ENDBRANCH  47  49
ENDBRANCH  46  47
BRANCH  46  51
HETATM   51  N   UNK N   1      27.495  19.548   8.315  0.00  0.00    -0.418 N 
HETATM   52  H   UNK N   1      27.528  20.182   7.516  0.00  0.00     0.150 HD
HETATM   53  H   UNK N   1      26.817  19.708   9.060  0.00  0.00     0.150 HD
ENDBRANCH  46  51
ENDBRANCH  45  46
ENDBRANCH  44  45
ENDBRANCH  42  44
BRANCH  42  54
HETATM   54  O   UNK N   1      31.349  16.082   9.317  0.00  0.00    -0.350 OA
HETATM   55  H   UNK N   1      31.765  15.565   9.980  0.00  0.00     0.219 HD
ENDBRANCH  42  54
ENDBRANCH   1  41
TORSDOF 30
ENDMDL
MODEL 5
REMARK VINA RESULT:      -5.7      8.228     12.719
REMARK  30 active torsions:
REMARK  status: ('A' for Active; 'I' for Inactive)
REMARK    1  A    between atoms: C_7  and  C_6 
REMARK    2  A    between atoms: C_20  and  C_6 
REMARK    3  A    between atoms: C_22  and  C_7 
REMARK    4  A    between atoms: C_12  and  C_8 
REMARK    5  A    between atoms: C_13  and  C_9 
REMARK    6  A    between atoms: C_14  and  C_10 
REMARK    7  A    between atoms: C_15  and  C_11 
REMARK    8  A    between atoms: N_36  and  C_12 
REMARK    9  A    between atoms: N_36  and  C_13 
REMARK   10  A    between atoms: N_37  and  C_14 
REMARK   11  A    between atoms: N_37  and  C_15 
REMARK   12  A    between atoms: C_17  and  C_16 
REMARK   13  A    between atoms: O_47  and  C_16 
REMARK   14  A    between atoms: S_49  and  C_17 
REMARK   15  A    between atoms: C_21  and  C_18 
REMARK   16  A    between atoms: S_49  and  C_18 
REMARK   17  A    between atoms: C_23  and  C_19 
REMARK   18  A    between atoms: C_25  and  C_20 
REMARK   19  A    between atoms: C_20  and  N_31 
REMARK   20  A    between atoms: C_24  and  C_21 
REMARK   21  A    between atoms: C_21  and  N_32 
REMARK   22  A    between atoms: C_22  and  O_38 
REMARK   23  A    between atoms: C_26  and  C_23 
REMARK   24  A    between atoms: C_23  and  N_34 
REMARK   25  A    between atoms: C_24  and  O_39 
REMARK   26  A    between atoms: O_41  and  C_25 
REMARK   27  A    between atoms: O_43  and  C_26 
REMARK   28  A    between atoms: P_48  and  N_36 
REMARK   29  A    between atoms: P_48  and  N_37 
REMARK   30  A    between atoms: P_48  and  O_47 
ROOT
HETATM    1  C   UNK N   1      35.132  14.804  10.740  0.00  0.00     0.171 C 
ENDROOT
BRANCH   1   2
HETATM    2  C   UNK N   1      35.890  14.024   9.639  0.00  0.00     0.173 C 
BRANCH   2   3
HETATM    3  S   UNK N   1      34.936  12.991   8.441  0.00  0.00     0.148 S 
HETATM    4  O   UNK N   1      33.765  13.210   9.406  0.00  0.00    -0.228 OA
HETATM    5  O   UNK N   1      35.675  11.985   9.315  0.00  0.00    -0.228 OA
BRANCH   3   6
HETATM    6  C   UNK N   1      34.328  11.275   8.075  0.00  0.00     0.167 C 
BRANCH   6   7
HETATM    7  C   UNK N   1      33.391  10.932   6.879  0.00  0.00     0.193 C 
BRANCH   7   8
HETATM    8  O   UNK N   1      32.519  11.953   6.448  0.00  0.00    -0.310 OA
BRANCH   8   9
HETATM    9  P   UNK N   1      32.967  12.537   4.853  0.00  0.00     0.347 P 
HETATM   10  O   UNK N   1      34.273  11.838   4.375  0.00  0.00    -0.254 OA
BRANCH   9  11
HETATM   11  N   UNK N   1      33.246  14.321   4.855  0.00  0.00    -0.225 NA
BRANCH  11  12
HETATM   12  C   UNK N   1      34.617  14.558   4.428  0.00  0.00     0.115 C 
BRANCH  12  13
HETATM   13  C   UNK N   1      35.483  14.955   5.605  0.00  0.00     0.129 C 
HETATM   14 Cl   UNK N   1      37.079  14.194   5.426  0.00  0.00    -0.129 Cl
ENDBRANCH  12  13
ENDBRANCH  11  12
BRANCH  11  15
HETATM   15  C   UNK N   1      32.387  14.910   3.843  0.00  0.00     0.115 C 
BRANCH  15  16
HETATM   16  C   UNK N   1      33.079  16.109   3.228  0.00  0.00     0.129 C 
HETATM   17 Cl   UNK N   1      32.391  17.599   3.908  0.00  0.00    -0.129 Cl
ENDBRANCH  15  16
ENDBRANCH  11  15
ENDBRANCH   9  11
BRANCH   9  18
HETATM   18  N   UNK N   1      31.648  12.069   3.703  0.00  0.00    -0.225 NA
BRANCH  18  19
HETATM   19  C   UNK N   1      30.594  11.276   4.338  0.00  0.00     0.115 C 
BRANCH  19  20
HETATM   20  C   UNK N   1      29.237  11.925   4.111  0.00  0.00     0.129 C 
HETATM   21 Cl   UNK N   1      29.200  13.548   4.829  0.00  0.00    -0.129 Cl
ENDBRANCH  19  20
ENDBRANCH  18  19
BRANCH  18  22
HETATM   22  C   UNK N   1      32.196  11.506   2.464  0.00  0.00     0.115 C 
BRANCH  22  23
HETATM   23  C   UNK N   1      31.657  12.165   1.205  0.00  0.00     0.129 C 
HETATM   24 Cl   UNK N   1      32.893  12.043  -0.067  0.00  0.00    -0.129 Cl
ENDBRANCH  22  23
ENDBRANCH  18  22
ENDBRANCH   9  18
ENDBRANCH   8   9
ENDBRANCH   7   8
ENDBRANCH   6   7
ENDBRANCH   3   6
ENDBRANCH   2   3
ENDBRANCH   1   2
BRANCH   1  25
HETATM   25  C   UNK N   1      34.862  16.193  10.220  0.00  0.00     0.136 C 
HETATM   26  N   UNK N   1      33.861  16.383   9.430  0.00  0.00    -0.355 N 
ATOM     27  HN  UNK N   1      33.355  15.555   9.115  1.00  0.00     0.162 HD
BRANCH  26  28
HETATM   28  C   UNK N   1      33.393  17.664   8.951  0.00  0.00     0.215 C 
BRANCH  28  29
HETATM   29  C   UNK N   1      32.020  17.457   8.342  0.00  0.00    -0.025 A 
HETATM   30  C   UNK N   1      31.814  16.467   7.372  0.00  0.00     0.010 A 
HETATM   31  C   UNK N   1      30.563  16.328   6.762  0.00  0.00     0.001 A 
HETATM   32  C   UNK N   1      29.509  17.177   7.113  0.00  0.00     0.000 A 
HETATM   33  C   UNK N   1      29.702  18.165   8.079  0.00  0.00     0.001 A 
HETATM   34  C   UNK N   1      30.948  18.306   8.686  0.00  0.00     0.010 A 
ENDBRANCH  28  29
BRANCH  28  35
HETATM   35  C   UNK N   1      34.357  18.303   7.975  0.00  0.00     0.168 C 
HETATM   36  O   UNK N   1      34.346  17.992   6.791  0.00  0.00    -0.648 OA
BRANCH  35  37
HETATM   37  O   UNK N   1      35.251  19.211   8.409  0.00  0.00    -0.775 OA
HETATM   38  H   UNK N   1      34.990  20.060   8.708  0.00  0.00     0.167 HD
ENDBRANCH  35  37
ENDBRANCH  28  35
ENDBRANCH  26  28
BRANCH  25  39
HETATM   39  O   UNK N   1      35.613  17.232  10.641  0.00  0.00    -0.348 OA
HETATM   40  H   UNK N   1      35.352  17.980  11.141  0.00  0.00     0.219 HD
ENDBRANCH  25  39
ENDBRANCH   1  25
BRANCH   1  41
HETATM   41  N   UNK N   1      35.867  14.796  11.996  0.00  0.00    -0.362 N 
HETATM   42  C   UNK N   1      35.585  14.044  13.008  0.00  0.00     0.111 C 
ATOM     43  HN  UNK N   1      36.662  15.429  12.084  1.00  0.00     0.162 HD
BRANCH  42  44
HETATM   44  C   UNK N   1      36.412  14.149  14.243  0.00  0.00     0.086 C 
BRANCH  44  45
HETATM   45  C   UNK N   1      36.911  12.779  14.702  0.00  0.00     0.043 C 
BRANCH  45  46
HETATM   46  C   UNK N   1      36.051  12.104  15.775  0.00  0.00     0.173 C 
BRANCH  46  47
HETATM   47  C   UNK N   1      35.105  13.080  16.427  0.00  0.00     0.163 C 
HETATM   48  O   UNK N   1      33.970  13.215  15.997  0.00  0.00    -0.648 OA
BRANCH  47  49
HETATM   49  O   UNK N   1      35.508  13.826  17.474  0.00  0.00    -0.775 OA
HETATM   50  H   UNK N   1      36.413  13.875  17.710  0.00  0.00     0.167 HD
ENDBRANCH  47  49
ENDBRANCH  46  47
BRANCH  46  51
HETATM   51  N   UNK N   1      35.305  11.029  15.144  0.00  0.00    -0.418 N 
HETATM   52  H   UNK N   1      34.513  10.601  15.623  0.00  0.00     0.150 HD
HETATM   53  H   UNK N   1      35.575  10.699  14.217  0.00  0.00     0.150 HD
ENDBRANCH  46  51
ENDBRANCH  45  46
ENDBRANCH  44  45
ENDBRANCH  42  44
BRANCH  42  54
HETATM   54  O   UNK N   1      34.552  13.176  12.962  0.00  0.00    -0.350 OA
HETATM   55  H   UNK N   1      33.856  12.605  13.224  0.00  0.00     0.219 HD
ENDBRANCH  42  54
ENDBRANCH   1  41
TORSDOF 30
ENDMDL
MODEL 6
REMARK VINA RESULT:      -5.7      2.978      5.656
REMARK  30 active torsions:
REMARK  status: ('A' for Active; 'I' for Inactive)
REMARK    1  A    between atoms: C_7  and  C_6 
REMARK    2  A    between atoms: C_20  and  C_6 
REMARK    3  A    between atoms: C_22  and  C_7 
REMARK    4  A    between atoms: C_12  and  C_8 
REMARK    5  A    between atoms: C_13  and  C_9 
REMARK    6  A    between atoms: C_14  and  C_10 
REMARK    7  A    between atoms: C_15  and  C_11 
REMARK    8  A    between atoms: N_36  and  C_12 
REMARK    9  A    between atoms: N_36  and  C_13 
REMARK   10  A    between atoms: N_37  and  C_14 
REMARK   11  A    between atoms: N_37  and  C_15 
REMARK   12  A    between atoms: C_17  and  C_16 
REMARK   13  A    between atoms: O_47  and  C_16 
REMARK   14  A    between atoms: S_49  and  C_17 
REMARK   15  A    between atoms: C_21  and  C_18 
REMARK   16  A    between atoms: S_49  and  C_18 
REMARK   17  A    between atoms: C_23  and  C_19 
REMARK   18  A    between atoms: C_25  and  C_20 
REMARK   19  A    between atoms: C_20  and  N_31 
REMARK   20  A    between atoms: C_24  and  C_21 
REMARK   21  A    between atoms: C_21  and  N_32 
REMARK   22  A    between atoms: C_22  and  O_38 
REMARK   23  A    between atoms: C_26  and  C_23 
REMARK   24  A    between atoms: C_23  and  N_34 
REMARK   25  A    between atoms: C_24  and  O_39 
REMARK   26  A    between atoms: O_41  and  C_25 
REMARK   27  A    between atoms: O_43  and  C_26 
REMARK   28  A    between atoms: P_48  and  N_36 
REMARK   29  A    between atoms: P_48  and  N_37 
REMARK   30  A    between atoms: P_48  and  O_47 
ROOT
HETATM    1  C   UNK N   1      23.549  16.301   4.876  0.00  0.00     0.171 C 
ENDROOT
BRANCH   1   2
HETATM    2  C   UNK N   1      23.587  14.968   4.093  0.00  0.00     0.173 C 
BRANCH   2   3
HETATM    3  S   UNK N   1      25.211  14.142   3.786  0.00  0.00     0.148 S 
HETATM    4  O   UNK N   1      25.134  13.762   5.270  0.00  0.00    -0.228 OA
HETATM    5  O   UNK N   1      25.561  15.607   4.016  0.00  0.00    -0.228 OA
BRANCH   3   6
HETATM    6  C   UNK N   1      27.053  14.334   3.920  0.00  0.00     0.167 C 
BRANCH   6   7
HETATM    7  C   UNK N   1      27.825  14.294   5.272  0.00  0.00     0.193 C 
BRANCH   7   8
HETATM    8  O   UNK N   1      29.206  14.579   5.217  0.00  0.00    -0.310 OA
BRANCH   8   9
HETATM    9  P   UNK N   1      29.540  16.207   5.787  0.00  0.00     0.347 P 
HETATM   10  O   UNK N   1      28.465  16.640   6.827  0.00  0.00    -0.254 OA
BRANCH   9  11
HETATM   11  N   UNK N   1      29.530  17.398   4.431  0.00  0.00    -0.225 NA
BRANCH  11  12
HETATM   12  C   UNK N   1      29.839  16.680   3.204  0.00  0.00     0.115 C 
BRANCH  12  13
HETATM   13  C   UNK N   1      31.329  16.447   3.079  0.00  0.00     0.129 C 
HETATM   14 Cl   UNK N   1      32.188  17.815   3.822  0.00  0.00    -0.129 Cl
ENDBRANCH  12  13
ENDBRANCH  11  12
BRANCH  11  15
HETATM   15  C   UNK N   1      28.177  17.904   4.289  0.00  0.00     0.115 C 
BRANCH  15  16
HETATM   16  C   UNK N   1      28.141  19.369   4.670  0.00  0.00     0.129 C 
HETATM   17 Cl   UNK N   1      27.000  20.226   3.613  0.00  0.00    -0.129 Cl
ENDBRANCH  15  16
ENDBRANCH  11  15
ENDBRANCH   9  11
BRANCH   9  18
HETATM   18  N   UNK N   1      31.139  16.177   6.639  0.00  0.00    -0.225 NA
BRANCH  18  19
HETATM   19  C   UNK N   1      31.659  14.822   6.824  0.00  0.00     0.115 C 
BRANCH  19  20
HETATM   20  C   UNK N   1      32.830  14.574   5.886  0.00  0.00     0.129 C 
HETATM   21 Cl   UNK N   1      34.343  14.445   6.807  0.00  0.00    -0.129 Cl
ENDBRANCH  19  20
ENDBRANCH  18  19
BRANCH  18  22
HETATM   22  C   UNK N   1      31.115  17.011   7.845  0.00  0.00     0.115 C 
BRANCH  22  23
HETATM   23  C   UNK N   1      32.432  17.023   8.603  0.00  0.00     0.129 C 
HETATM   24 Cl   UNK N   1      33.500  18.233   7.856  0.00  0.00    -0.129 Cl
ENDBRANCH  22  23
ENDBRANCH  18  22
ENDBRANCH   9  18
ENDBRANCH   8   9
ENDBRANCH   7   8
ENDBRANCH   6   7
ENDBRANCH   3   6
ENDBRANCH   2   3
ENDBRANCH   1   2
BRANCH   1  25
HETATM   25  C   UNK N   1      22.547  16.153   5.994  0.00  0.00     0.136 C 
HETATM   26  N   UNK N   1      22.622  15.126   6.770  0.00  0.00    -0.355 N 
ATOM     27  HN  UNK N   1      23.304  14.407   6.525  1.00  0.00     0.162 HD
BRANCH  26  28
HETATM   28  C   UNK N   1      21.826  14.902   7.956  0.00  0.00     0.215 C 
BRANCH  28  29
HETATM   29  C   UNK N   1      22.524  13.845   8.789  0.00  0.00    -0.025 A 
HETATM   30  C   UNK N   1      22.006  13.465  10.034  0.00  0.00     0.010 A 
HETATM   31  C   UNK N   1      22.692  12.542  10.830  0.00  0.00     0.001 A 
HETATM   32  C   UNK N   1      23.901  11.994  10.392  0.00  0.00     0.000 A 
HETATM   33  C   UNK N   1      24.425  12.363   9.153  0.00  0.00     0.001 A 
HETATM   34  C   UNK N   1      23.744  13.284   8.360  0.00  0.00     0.010 A 
ENDBRANCH  28  29
BRANCH  28  35
HETATM   35  C   UNK N   1      20.398  14.519   7.630  0.00  0.00     0.168 C 
HETATM   36  O   UNK N   1      19.470  15.257   7.933  0.00  0.00    -0.648 OA
BRANCH  35  37
HETATM   37  O   UNK N   1      20.138  13.349   7.018  0.00  0.00    -0.775 OA
HETATM   38  H   UNK N   1      19.387  12.833   7.235  0.00  0.00     0.167 HD
ENDBRANCH  35  37
ENDBRANCH  28  35
ENDBRANCH  26  28
BRANCH  25  39
HETATM   39  O   UNK N   1      21.636  17.122   6.221  0.00  0.00    -0.348 OA
HETATM   40  H   UNK N   1      21.164  17.641   5.600  0.00  0.00     0.219 HD
ENDBRANCH  25  39
ENDBRANCH   1  25
BRANCH   1  41
HETATM   41  N   UNK N   1      23.263  17.424   3.997  0.00  0.00    -0.362 N 
HETATM   42  C   UNK N   1      23.606  18.648   4.231  0.00  0.00     0.111 C 
ATOM     43  HN  UNK N   1      22.756  17.232   3.133  1.00  0.00     0.162 HD
BRANCH  42  44
HETATM   44  C   UNK N   1      23.232  19.706   3.251  0.00  0.00     0.086 C 
BRANCH  44  45
HETATM   45  C   UNK N   1      21.736  20.015   3.303  0.00  0.00     0.043 C 
BRANCH  45  46
HETATM   46  C   UNK N   1      20.892  19.307   2.239  0.00  0.00     0.173 C 
BRANCH  46  47
HETATM   47  C   UNK N   1      19.811  18.458   2.860  0.00  0.00     0.163 C 
HETATM   48  O   UNK N   1      20.089  17.653   3.734  0.00  0.00    -0.648 OA
BRANCH  47  49
HETATM   49  O   UNK N   1      18.534  18.566   2.442  0.00  0.00    -0.775 OA
HETATM   50  H   UNK N   1      18.119  19.403   2.375  0.00  0.00     0.167 HD
ENDBRANCH  47  49
ENDBRANCH  46  47
BRANCH  46  51
HETATM   51  N   UNK N   1      20.302  20.322   1.383  0.00  0.00    -0.418 N 
HETATM   52  H   UNK N   1      19.428  20.136   0.890  0.00  0.00     0.150 HD
HETATM   53  H   UNK N   1      20.764  21.225   1.273  0.00  0.00     0.150 HD
ENDBRANCH  46  51
ENDBRANCH  45  46
ENDBRANCH  44  45
ENDBRANCH  42  44
BRANCH  42  54
HETATM   54  O   UNK N   1      24.285  18.977   5.350  0.00  0.00    -0.350 OA
HETATM   55  H   UNK N   1      24.871  19.406   5.942  0.00  0.00     0.219 HD
ENDBRANCH  42  54
ENDBRANCH   1  41
TORSDOF 30
ENDMDL
MODEL 7
REMARK VINA RESULT:      -5.7      2.855      5.403
REMARK  30 active torsions:
REMARK  status: ('A' for Active; 'I' for Inactive)
REMARK    1  A    between atoms: C_7  and  C_6 
REMARK    2  A    between atoms: C_20  and  C_6 
REMARK    3  A    between atoms: C_22  and  C_7 
REMARK    4  A    between atoms: C_12  and  C_8 
REMARK    5  A    between atoms: C_13  and  C_9 
REMARK    6  A    between atoms: C_14  and  C_10 
REMARK    7  A    between atoms: C_15  and  C_11 
REMARK    8  A    between atoms: N_36  and  C_12 
REMARK    9  A    between atoms: N_36  and  C_13 
REMARK   10  A    between atoms: N_37  and  C_14 
REMARK   11  A    between atoms: N_37  and  C_15 
REMARK   12  A    between atoms: C_17  and  C_16 
REMARK   13  A    between atoms: O_47  and  C_16 
REMARK   14  A    between atoms: S_49  and  C_17 
REMARK   15  A    between atoms: C_21  and  C_18 
REMARK   16  A    between atoms: S_49  and  C_18 
REMARK   17  A    between atoms: C_23  and  C_19 
REMARK   18  A    between atoms: C_25  and  C_20 
REMARK   19  A    between atoms: C_20  and  N_31 
REMARK   20  A    between atoms: C_24  and  C_21 
REMARK   21  A    between atoms: C_21  and  N_32 
REMARK   22  A    between atoms: C_22  and  O_38 
REMARK   23  A    between atoms: C_26  and  C_23 
REMARK   24  A    between atoms: C_23  and  N_34 
REMARK   25  A    between atoms: C_24  and  O_39 
REMARK   26  A    between atoms: O_41  and  C_25 
REMARK   27  A    between atoms: O_43  and  C_26 
REMARK   28  A    between atoms: P_48  and  N_36 
REMARK   29  A    between atoms: P_48  and  N_37 
REMARK   30  A    between atoms: P_48  and  O_47 
ROOT
HETATM    1  C   UNK N   1      21.188  16.738   5.335  0.00  0.00     0.171 C 
ENDROOT
BRANCH   1   2
HETATM    2  C   UNK N   1      21.612  18.220   5.469  0.00  0.00     0.173 C 
BRANCH   2   3
HETATM    3  S   UNK N   1      23.247  18.760   4.800  0.00  0.00     0.148 S 
HETATM    4  O   UNK N   1      22.490  18.920   3.476  0.00  0.00    -0.228 OA
HETATM    5  O   UNK N   1      23.301  17.238   4.768  0.00  0.00    -0.228 OA
BRANCH   3   6
HETATM    6  C   UNK N   1      24.761  18.204   3.879  0.00  0.00     0.167 C 
BRANCH   6   7
HETATM    7  C   UNK N   1      25.708  17.075   4.384  0.00  0.00     0.193 C 
BRANCH   7   8
HETATM    8  O   UNK N   1      27.043  17.123   3.930  0.00  0.00    -0.310 OA
BRANCH   8   9
HETATM    9  P   UNK N   1      28.163  16.687   5.212  0.00  0.00     0.347 P 
HETATM   10  O   UNK N   1      27.460  15.754   6.241  0.00  0.00    -0.254 OA
BRANCH   9  11
HETATM   11  N   UNK N   1      28.766  18.146   6.088  0.00  0.00    -0.225 NA
BRANCH  11  12
HETATM   12  C   UNK N   1      28.068  19.306   5.557  0.00  0.00     0.115 C 
BRANCH  12  13
HETATM   13  C   UNK N   1      27.596  20.208   6.678  0.00  0.00     0.129 C 
HETATM   14 Cl   UNK N   1      26.343  21.300   6.049  0.00  0.00    -0.129 Cl
ENDBRANCH  12  13
ENDBRANCH  11  12
BRANCH  11  15
HETATM   15  C   UNK N   1      28.373  18.025   7.481  0.00  0.00     0.115 C 
BRANCH  15  16
HETATM   16  C   UNK N   1      29.571  17.610   8.310  0.00  0.00     0.129 C 
HETATM   17 Cl   UNK N   1      29.643  18.604   9.781  0.00  0.00    -0.129 Cl
ENDBRANCH  15  16
ENDBRANCH  11  15
ENDBRANCH   9  11
BRANCH   9  18
HETATM   18  N   UNK N   1      29.520  15.748   4.465  0.00  0.00    -0.225 NA
BRANCH  18  19
HETATM   19  C   UNK N   1      30.833  16.137   4.982  0.00  0.00     0.115 C 
BRANCH  19  20
HETATM   20  C   UNK N   1      31.568  16.994   3.963  0.00  0.00     0.129 C 
HETATM   21 Cl   UNK N   1      33.047  17.669   4.677  0.00  0.00    -0.129 Cl
ENDBRANCH  19  20
ENDBRANCH  18  19
BRANCH  18  22
HETATM   22  C   UNK N   1      29.405  15.717   3.003  0.00  0.00     0.115 C 
BRANCH  22  23
HETATM   23  C   UNK N   1      29.122  14.333   2.444  0.00  0.00     0.129 C 
HETATM   24 Cl   UNK N   1      27.408  14.256   1.975  0.00  0.00    -0.129 Cl
ENDBRANCH  22  23
ENDBRANCH  18  22
ENDBRANCH   9  18
ENDBRANCH   8   9
ENDBRANCH   7   8
ENDBRANCH   6   7
ENDBRANCH   3   6
ENDBRANCH   2   3
ENDBRANCH   1   2
BRANCH   1  25
HETATM   25  C   UNK N   1      20.210  16.638   4.191  0.00  0.00     0.136 C 
HETATM   26  N   UNK N   1      20.656  16.665   2.982  0.00  0.00    -0.355 N 
ATOM     27  HN  UNK N   1      21.651  16.854   2.858  1.00  0.00     0.162 HD
BRANCH  26  28
HETATM   28  C   UNK N   1      19.872  16.453   1.786  0.00  0.00     0.215 C 
BRANCH  28  29
HETATM   29  C   UNK N   1      20.103  15.027   1.328  0.00  0.00    -0.025 A 
HETATM   30  C   UNK N   1      21.403  14.514   1.228  0.00  0.00     0.010 A 
HETATM   31  C   UNK N   1      21.614  13.222   0.736  0.00  0.00     0.001 A 
HETATM   32  C   UNK N   1      20.531  12.433   0.337  0.00  0.00     0.000 A 
HETATM   33  C   UNK N   1      19.232  12.932   0.434  0.00  0.00     0.001 A 
HETATM   34  C   UNK N   1      19.020  14.220   0.922  0.00  0.00     0.010 A 
ENDBRANCH  28  29
BRANCH  28  35
HETATM   35  C   UNK N   1      20.189  17.458   0.700  0.00  0.00     0.168 C 
HETATM   36  O   UNK N   1      20.272  17.108  -0.470  0.00  0.00    -0.648 OA
BRANCH  35  37
HETATM   37  O   UNK N   1      20.404  18.748   1.019  0.00  0.00    -0.775 OA
HETATM   38  H   UNK N   1      19.702  19.366   1.083  0.00  0.00     0.167 HD
ENDBRANCH  35  37
ENDBRANCH  28  35
ENDBRANCH  26  28
BRANCH  25  39
HETATM   39  O   UNK N   1      18.898  16.445   4.436  0.00  0.00    -0.348 OA
HETATM   40  H   UNK N   1      18.315  15.818   4.054  0.00  0.00     0.219 HD
ENDBRANCH  25  39
ENDBRANCH   1  25
BRANCH   1  41
HETATM   41  N   UNK N   1      20.657  16.224   6.588  0.00  0.00    -0.362 N 
HETATM   42  C   UNK N   1      21.332  15.527   7.442  0.00  0.00     0.111 C 
ATOM     43  HN  UNK N   1      19.683  16.428   6.809  1.00  0.00     0.162 HD
BRANCH  42  44
HETATM   44  C   UNK N   1      20.658  15.046   8.681  0.00  0.00     0.086 C 
BRANCH  44  45
HETATM   45  C   UNK N   1      21.016  13.592   8.985  0.00  0.00     0.043 C 
BRANCH  45  46
HETATM   46  C   UNK N   1      22.070  13.400  10.080  0.00  0.00     0.173 C 
BRANCH  46  47
HETATM   47  C   UNK N   1      21.756  12.210  10.952  0.00  0.00     0.163 C 
HETATM   48  O   UNK N   1      20.681  12.136  11.525  0.00  0.00    -0.648 OA
BRANCH  47  49
HETATM   49  O   UNK N   1      22.666  11.230  11.121  0.00  0.00    -0.775 OA
HETATM   50  H   UNK N   1      22.857  10.626  10.432  0.00  0.00     0.167 HD
ENDBRANCH  47  49
ENDBRANCH  46  47
BRANCH  46  51
HETATM   51  N   UNK N   1      23.361  13.225   9.439  0.00  0.00    -0.418 N 
HETATM   52  H   UNK N   1      24.208  13.588   9.877  0.00  0.00     0.150 HD
HETATM   53  H   UNK N   1      23.422  12.736   8.545  0.00  0.00     0.150 HD
ENDBRANCH  46  51
ENDBRANCH  45  46
ENDBRANCH  44  45
ENDBRANCH  42  44
BRANCH  42  54
HETATM   54  O   UNK N   1      22.628  15.223   7.220  0.00  0.00    -0.350 OA
HETATM   55  H   UNK N   1      23.431  15.008   6.787  0.00  0.00     0.219 HD
ENDBRANCH  42  54
ENDBRANCH   1  41
TORSDOF 30
ENDMDL
MODEL 8
REMARK VINA RESULT:      -5.6      4.199      9.459
REMARK  30 active torsions:
REMARK  status: ('A' for Active; 'I' for Inactive)
REMARK    1  A    between atoms: C_7  and  C_6 
REMARK    2  A    between atoms: C_20  and  C_6 
REMARK    3  A    between atoms: C_22  and  C_7 
REMARK    4  A    between atoms: C_12  and  C_8 
REMARK    5  A    between atoms: C_13  and  C_9 
REMARK    6  A    between atoms: C_14  and  C_10 
REMARK    7  A    between atoms: C_15  and  C_11 
REMARK    8  A    between atoms: N_36  and  C_12 
REMARK    9  A    between atoms: N_36  and  C_13 
REMARK   10  A    between atoms: N_37  and  C_14 
REMARK   11  A    between atoms: N_37  and  C_15 
REMARK   12  A    between atoms: C_17  and  C_16 
REMARK   13  A    between atoms: O_47  and  C_16 
REMARK   14  A    between atoms: S_49  and  C_17 
REMARK   15  A    between atoms: C_21  and  C_18 
REMARK   16  A    between atoms: S_49  and  C_18 
REMARK   17  A    between atoms: C_23  and  C_19 
REMARK   18  A    between atoms: C_25  and  C_20 
REMARK   19  A    between atoms: C_20  and  N_31 
REMARK   20  A    between atoms: C_24  and  C_21 
REMARK   21  A    between atoms: C_21  and  N_32 
REMARK   22  A    between atoms: C_22  and  O_38 
REMARK   23  A    between atoms: C_26  and  C_23 
REMARK   24  A    between atoms: C_23  and  N_34 
REMARK   25  A    between atoms: C_24  and  O_39 
REMARK   26  A    between atoms: O_41  and  C_25 
REMARK   27  A    between atoms: O_43  and  C_26 
REMARK   28  A    between atoms: P_48  and  N_36 
REMARK   29  A    between atoms: P_48  and  N_37 
REMARK   30  A    between atoms: P_48  and  O_47 
ROOT
HETATM    1  C   UNK N   1      27.640  18.090   4.809  0.00  0.00     0.171 C 
ENDROOT
BRANCH   1   2
HETATM    2  C   UNK N   1      27.199  19.326   3.989  0.00  0.00     0.173 C 
BRANCH   2   3
HETATM    3  S   UNK N   1      25.405  19.585   3.632  0.00  0.00     0.148 S 
HETATM    4  O   UNK N   1      25.410  20.392   4.937  0.00  0.00    -0.228 OA
HETATM    5  O   UNK N   1      25.472  18.214   4.293  0.00  0.00    -0.228 OA
BRANCH   3   6
HETATM    6  C   UNK N   1      23.689  18.981   4.000  0.00  0.00     0.167 C 
BRANCH   6   7
HETATM    7  C   UNK N   1      23.343  18.055   5.204  0.00  0.00     0.193 C 
BRANCH   7   8
HETATM    8  O   UNK N   1      22.014  18.105   5.676  0.00  0.00    -0.310 OA
BRANCH   8   9
HETATM    9  P   UNK N   1      21.327  16.493   5.803  0.00  0.00     0.347 P 
HETATM   10  O   UNK N   1      22.375  15.429   5.367  0.00  0.00    -0.254 OA
BRANCH   9  11
HETATM   11  N   UNK N   1      19.866  16.313   4.758  0.00  0.00    -0.225 NA
BRANCH  11  12
HETATM   12  C   UNK N   1      19.943  17.316   3.707  0.00  0.00     0.115 C 
BRANCH  12  13
HETATM   13  C   UNK N   1      20.777  16.813   2.548  0.00  0.00     0.129 C 
HETATM   14 Cl   UNK N   1      20.019  17.335   1.026  0.00  0.00    -0.129 Cl
ENDBRANCH  12  13
ENDBRANCH  11  12
BRANCH  11  15
HETATM   15  C   UNK N   1      19.940  15.018   4.105  0.00  0.00     0.115 C 
BRANCH  15  16
HETATM   16  C   UNK N   1      19.036  14.037   4.823  0.00  0.00     0.129 C 
HETATM   17 Cl   UNK N   1      19.998  12.652   5.383  0.00  0.00    -0.129 Cl
ENDBRANCH  15  16
ENDBRANCH  11  15
ENDBRANCH   9  11
BRANCH   9  18
HETATM   18  N   UNK N   1      20.941  16.192   7.548  0.00  0.00    -0.225 NA
BRANCH  18  19
HETATM   19  C   UNK N   1      21.358  14.864   8.001  0.00  0.00     0.115 C 
BRANCH  19  20
HETATM   20  C   UNK N   1      20.858  14.608   9.414  0.00  0.00     0.129 C 
HETATM   21 Cl   UNK N   1      21.596  13.134  10.072  0.00  0.00    -0.129 Cl
ENDBRANCH  19  20
ENDBRANCH  18  19
BRANCH  18  22
HETATM   22  C   UNK N   1      19.554  16.554   7.857  0.00  0.00     0.115 C 
BRANCH  22  23
HETATM   23  C   UNK N   1      19.429  17.769   8.762  0.00  0.00     0.129 C 
HETATM   24 Cl   UNK N   1      17.910  17.635   9.676  0.00  0.00    -0.129 Cl
ENDBRANCH  22  23
ENDBRANCH  18  22
ENDBRANCH   9  18
ENDBRANCH   8   9
ENDBRANCH   7   8
ENDBRANCH   6   7
ENDBRANCH   3   6
ENDBRANCH   2   3
ENDBRANCH   1   2
BRANCH   1  25
HETATM   25  C   UNK N   1      28.207  18.581   6.117  0.00  0.00     0.136 C 
HETATM   26  N   UNK N   1      29.002  17.814   6.782  0.00  0.00    -0.355 N 
ATOM     27  HN  UNK N   1      29.130  16.863   6.433  1.00  0.00     0.162 HD
BRANCH  26  28
HETATM   28  C   UNK N   1      29.727  18.180   7.978  0.00  0.00     0.215 C 
BRANCH  28  29
HETATM   29  C   UNK N   1      31.063  17.465   7.947  0.00  0.00    -0.025 A 
HETATM   30  C   UNK N   1      31.144  16.127   7.539  0.00  0.00     0.010 A 
HETATM   31  C   UNK N   1      32.368  15.450   7.581  0.00  0.00     0.001 A 
HETATM   32  C   UNK N   1      33.519  16.103   8.033  0.00  0.00     0.000 A 
HETATM   33  C   UNK N   1      33.451  17.436   8.438  0.00  0.00     0.001 A 
HETATM   34  C   UNK N   1      32.232  18.110   8.400  0.00  0.00     0.010 A 
ENDBRANCH  28  29
BRANCH  28  35
HETATM   35  C   UNK N   1      28.949  17.877   9.241  0.00  0.00     0.168 C 
HETATM   36  O   UNK N   1      27.865  17.312   9.186  0.00  0.00    -0.648 OA
BRANCH  35  37
HETATM   37  O   UNK N   1      29.439  18.248  10.438  0.00  0.00    -0.775 OA
HETATM   38  H   UNK N   1      29.920  17.656  10.981  0.00  0.00     0.167 HD
ENDBRANCH  35  37
ENDBRANCH  28  35
ENDBRANCH  26  28
BRANCH  25  39
HETATM   39  O   UNK N   1      27.947  19.834   6.541  0.00  0.00    -0.348 OA
HETATM   40  H   UNK N   1      28.541  20.549   6.660  0.00  0.00     0.219 HD
ENDBRANCH  25  39
ENDBRANCH   1  25
BRANCH   1  41
HETATM   41  N   UNK N   1      28.568  17.260   4.057  0.00  0.00    -0.362 N 
HETATM   42  C   UNK N   1      28.225  16.271   3.300  0.00  0.00     0.111 C 
ATOM     43  HN  UNK N   1      29.563  17.474   4.133  1.00  0.00     0.162 HD
BRANCH  42  44
HETATM   44  C   UNK N   1      29.283  15.491   2.599  0.00  0.00     0.086 C 
BRANCH  44  45
HETATM   45  C   UNK N   1      30.532  15.337   3.467  0.00  0.00     0.043 C 
BRANCH  45  46
HETATM   46  C   UNK N   1      31.737  16.171   3.021  0.00  0.00     0.173 C 
BRANCH  46  47
HETATM   47  C   UNK N   1      32.126  17.190   4.063  0.00  0.00     0.163 C 
HETATM   48  O   UNK N   1      33.227  17.141   4.588  0.00  0.00    -0.648 OA
BRANCH  47  49
HETATM   49  O   UNK N   1      31.257  18.150   4.436  0.00  0.00    -0.775 OA
HETATM   50  H   UNK N   1      31.264  18.991   4.026  0.00  0.00     0.167 HD
ENDBRANCH  47  49
ENDBRANCH  46  47
BRANCH  46  51
HETATM   51  N   UNK N   1      32.844  15.265   2.768  0.00  0.00    -0.418 N 
HETATM   52  H   UNK N   1      33.801  15.618   2.734  0.00  0.00     0.150 HD
HETATM   53  H   UNK N   1      32.664  14.271   2.624  0.00  0.00     0.150 HD
ENDBRANCH  46  51
ENDBRANCH  45  46
ENDBRANCH  44  45
ENDBRANCH  42  44
BRANCH  42  54
HETATM   54  O   UNK N   1      26.927  15.934   3.145  0.00  0.00    -0.350 OA
HETATM   55  H   UNK N   1      25.993  15.926   3.226  0.00  0.00     0.219 HD
ENDBRANCH  42  54
ENDBRANCH   1  41
TORSDOF 30
ENDMDL
MODEL 9
REMARK VINA RESULT:      -5.6      2.894      4.783
REMARK  30 active torsions:
REMARK  status: ('A' for Active; 'I' for Inactive)
REMARK    1  A    between atoms: C_7  and  C_6 
REMARK    2  A    between atoms: C_20  and  C_6 
REMARK    3  A    between atoms: C_22  and  C_7 
REMARK    4  A    between atoms: C_12  and  C_8 
REMARK    5  A    between atoms: C_13  and  C_9 
REMARK    6  A    between atoms: C_14  and  C_10 
REMARK    7  A    between atoms: C_15  and  C_11 
REMARK    8  A    between atoms: N_36  and  C_12 
REMARK    9  A    between atoms: N_36  and  C_13 
REMARK   10  A    between atoms: N_37  and  C_14 
REMARK   11  A    between atoms: N_37  and  C_15 
REMARK   12  A    between atoms: C_17  and  C_16 
REMARK   13  A    between atoms: O_47  and  C_16 
REMARK   14  A    between atoms: S_49  and  C_17 
REMARK   15  A    between atoms: C_21  and  C_18 
REMARK   16  A    between atoms: S_49  and  C_18 
REMARK   17  A    between atoms: C_23  and  C_19 
REMARK   18  A    between atoms: C_25  and  C_20 
REMARK   19  A    between atoms: C_20  and  N_31 
REMARK   20  A    between atoms: C_24  and  C_21 
REMARK   21  A    between atoms: C_21  and  N_32 
REMARK   22  A    between atoms: C_22  and  O_38 
REMARK   23  A    between atoms: C_26  and  C_23 
REMARK   24  A    between atoms: C_23  and  N_34 
REMARK   25  A    between atoms: C_24  and  O_39 
REMARK   26  A    between atoms: O_41  and  C_25 
REMARK   27  A    between atoms: O_43  and  C_26 
REMARK   28  A    between atoms: P_48  and  N_36 
REMARK   29  A    between atoms: P_48  and  N_37 
REMARK   30  A    between atoms: P_48  and  O_47 
ROOT
HETATM    1  C   UNK N   1      21.338  18.891   3.923  0.00  0.00     0.171 C 
ENDROOT
BRANCH   1   2
HETATM    2  C   UNK N   1      21.031  18.560   5.403  0.00  0.00     0.173 C 
BRANCH   2   3
HETATM    3  S   UNK N   1      21.444  16.885   6.062  0.00  0.00     0.148 S 
HETATM    4  O   UNK N   1      19.982  16.555   5.739  0.00  0.00    -0.228 OA
HETATM    5  O   UNK N   1      21.148  17.723   7.299  0.00  0.00    -0.228 OA
BRANCH   3   6
HETATM    6  C   UNK N   1      21.371  15.790   7.560  0.00  0.00     0.167 C 
BRANCH   6   7
HETATM    7  C   UNK N   1      22.279  14.540   7.757  0.00  0.00     0.193 C 
BRANCH   7   8
HETATM    8  O   UNK N   1      22.860  13.994   6.593  0.00  0.00    -0.310 OA
BRANCH   8   9
HETATM    9  P   UNK N   1      24.408  13.244   6.950  0.00  0.00     0.347 P 
HETATM   10  O   UNK N   1      25.213  14.128   7.947  0.00  0.00    -0.254 OA
BRANCH   9  11
HETATM   11  N   UNK N   1      25.399  13.027   5.457  0.00  0.00    -0.225 NA
BRANCH  11  12
HETATM   12  C   UNK N   1      24.489  12.776   4.350  0.00  0.00     0.115 C 
BRANCH  12  13
HETATM   13  C   UNK N   1      24.910  11.544   3.579  0.00  0.00     0.129 C 
HETATM   14 Cl   UNK N   1      26.048  12.026   2.301  0.00  0.00    -0.129 Cl
ENDBRANCH  12  13
ENDBRANCH  11  12
BRANCH  11  15
HETATM   15  C   UNK N   1      26.063  14.287   5.173  0.00  0.00     0.115 C 
BRANCH  15  16
HETATM   16  C   UNK N   1      25.174  15.140   4.291  0.00  0.00     0.129 C 
HETATM   17 Cl   UNK N   1      26.111  15.727   2.901  0.00  0.00    -0.129 Cl
ENDBRANCH  15  16
ENDBRANCH  11  15
ENDBRANCH   9  11
BRANCH   9  18
HETATM   18  N   UNK N   1      24.081  11.662   7.770  0.00  0.00    -0.225 NA
BRANCH  18  19
HETATM   19  C   UNK N   1      22.860  11.015   7.289  0.00  0.00     0.115 C 
BRANCH  19  20
HETATM   20  C   UNK N   1      23.205   9.828   6.402  0.00  0.00     0.129 C 
HETATM   21 Cl   UNK N   1      24.207   8.664   7.293  0.00  0.00    -0.129 Cl
ENDBRANCH  19  20
ENDBRANCH  18  19
BRANCH  18  22
HETATM   22  C   UNK N   1      24.195  11.783   9.227  0.00  0.00     0.115 C 
BRANCH  22  23
HETATM   23  C   UNK N   1      22.895  11.507   9.964  0.00  0.00     0.129 C 
HETATM   24 Cl   UNK N   1      23.123  11.919  11.679  0.00  0.00    -0.129 Cl
ENDBRANCH  22  23
ENDBRANCH  18  22
ENDBRANCH   9  18
ENDBRANCH   8   9
ENDBRANCH   7   8
ENDBRANCH   6   7
ENDBRANCH   3   6
ENDBRANCH   2   3
ENDBRANCH   1   2
BRANCH   1  25
HETATM   25  C   UNK N   1      20.431  18.047   3.063  0.00  0.00     0.136 C 
HETATM   26  N   UNK N   1      20.946  17.120   2.331  0.00  0.00    -0.355 N 
ATOM     27  HN  UNK N   1      21.965  17.068   2.296  1.00  0.00     0.162 HD
BRANCH  26  28
HETATM   28  C   UNK N   1      20.210  16.148   1.554  0.00  0.00     0.215 C 
BRANCH  28  29
HETATM   29  C   UNK N   1      21.136  14.979   1.278  0.00  0.00    -0.025 A 
HETATM   30  C   UNK N   1      22.525  15.136   1.365  0.00  0.00     0.010 A 
HETATM   31  C   UNK N   1      23.376  14.075   1.039  0.00  0.00     0.001 A 
HETATM   32  C   UNK N   1      22.847  12.851   0.621  0.00  0.00     0.000 A 
HETATM   33  C   UNK N   1      21.466  12.681   0.532  0.00  0.00     0.001 A 
HETATM   34  C   UNK N   1      20.617  13.738   0.854  0.00  0.00     0.010 A 
ENDBRANCH  28  29
BRANCH  28  35
HETATM   35  C   UNK N   1      19.640  16.736   0.281  0.00  0.00     0.168 C 
HETATM   36  O   UNK N   1      20.338  17.417  -0.458  0.00  0.00    -0.648 OA
BRANCH  35  37
HETATM   37  O   UNK N   1      18.349  16.527  -0.037  0.00  0.00    -0.775 OA
HETATM   38  H   UNK N   1      18.092  16.209  -0.880  0.00  0.00     0.167 HD
ENDBRANCH  35  37
ENDBRANCH  28  35
ENDBRANCH  26  28
BRANCH  25  39
HETATM   39  O   UNK N   1      19.094  18.214   3.121  0.00  0.00    -0.348 OA
HETATM   40  H   UNK N   1      18.534  18.684   2.535  0.00  0.00     0.219 HD
ENDBRANCH  25  39
ENDBRANCH   1  25
BRANCH   1  41
HETATM   41  N   UNK N   1      22.749  18.706   3.621  0.00  0.00    -0.362 N 
HETATM   42  C   UNK N   1      23.549  19.645   3.240  0.00  0.00     0.111 C 
ATOM     43  HN  UNK N   1      23.134  17.766   3.716  1.00  0.00     0.162 HD
BRANCH  42  44
HETATM   44  C   UNK N   1      24.972  19.312   2.945  0.00  0.00     0.086 C 
BRANCH  44  45
HETATM   45  C   UNK N   1      25.874  20.538   3.086  0.00  0.00     0.043 C 
BRANCH  45  46
HETATM   46  C   UNK N   1      27.045  20.371   4.060  0.00  0.00     0.173 C 
BRANCH  46  47
HETATM   47  C   UNK N   1      26.598  20.498   5.495  0.00  0.00     0.163 C 
HETATM   48  O   UNK N   1      26.639  21.580   6.057  0.00  0.00    -0.648 OA
BRANCH  47  49
HETATM   49  O   UNK N   1      26.169  19.415   6.174  0.00  0.00    -0.775 OA
HETATM   50  H   UNK N   1      26.660  18.618   6.168  0.00  0.00     0.167 HD
ENDBRANCH  47  49
ENDBRANCH  46  47
BRANCH  46  51
HETATM   51  N   UNK N   1      27.637  19.064   3.833  0.00  0.00    -0.418 N 
HETATM   52  H   UNK N   1      27.115  18.341   3.337  0.00  0.00     0.150 HD
HETATM   53  H   UNK N   1      28.579  18.867   4.172  0.00  0.00     0.150 HD
ENDBRANCH  46  51
ENDBRANCH  45  46
ENDBRANCH  44  45
ENDBRANCH  42  44
BRANCH  42  54
HETATM   54  O   UNK N   1      23.113  20.914   3.098  0.00  0.00    -0.350 OA
HETATM   55  H   UNK N   1      22.554  21.653   2.954  0.00  0.00     0.219 HD
ENDBRANCH  42  54
ENDBRANCH   1  41
TORSDOF 30
ENDMDL
