REMARK  1 active torsions:
REMARK  status: ('A' for Active; 'I' for Inactive)
REMARK    1  A    between atoms: N_5  and  C_8 
ROOT
HETATM    1  O   UNK N   1       2.167   2.415   0.000  0.00  0.00    -0.247 OA
HETATM    2  N   UNK N   1       3.776   0.819  -0.000  0.00  0.00    -0.318 N 
HETATM    3  N   UNK N   1       1.644   0.242  -0.000  0.00  0.00    -0.297 N 
ATOM      4  HN  UNK N   1       0.627   0.309  -0.000  1.00  0.00     0.172 HD
HETATM    5  C   UNK N   1       3.816  -0.623   0.000  0.00  0.00     0.174 A 
HETATM    6  C   UNK N   1       5.077   0.363   0.000  0.00  0.00     0.161 A 
HETATM    7  C   UNK N   1       2.341  -0.825  -0.000  0.00  0.00     0.103 A 
HETATM    8  C   UNK N   1       2.501   1.240   0.000  0.00  0.00     0.324 A 
ENDROOT
BRANCH   7   9
HETATM    9  N   UNK N   1       1.793  -2.111  -0.000  0.00  0.00    -0.387 N 
HETATM   10  H   UNK N   1       0.815  -2.229   0.000  0.00  0.00     0.157 HD
HETATM   11  H   UNK N   1       2.384  -2.898  -0.000  0.00  0.00     0.157 HD
ENDBRANCH   7   9
TORSDOF 1
