REMARK  11 active torsions:
REMARK  status: ('A' for Active; 'I' for Inactive)
REMARK    1  A    between atoms: C_2  and  N_1 
REMARK    2  A    between atoms: C_5  and  O_20 
REMARK    3  A    between atoms: C_12  and  O_21 
REMARK    4  A    between atoms: C_13  and  C_16 
REMARK    5  A    between atoms: C_14  and  N_19 
REMARK    6  A    between atoms: C_15  and  C_26 
REMARK       I    between atoms: C_16  and  N_22 
REMARK    7  A    between atoms: N_22  and  C_24 
REMARK    8  A    between atoms: C_27  and  C_28 
REMARK    9  A    between atoms: C_29  and  C_28 
REMARK   10  A    between atoms: C_32  and  C_35 
REMARK   11  A    between atoms: C_35  and  O_36 
ROOT
HETATM    1  N   UNK N   1      -3.213   1.054   0.028  0.00  0.00    -0.297 N 
HETATM    2  C   UNK N   1      -2.085   1.465  -0.506  0.00  0.00     0.143 C 
HETATM    3  C   UNK N   1      -3.840   2.185   0.438  0.00  0.00     0.188 C 
HETATM    4  C   UNK N   1      -1.930   2.774  -0.314  0.00  0.00     0.122 C 
HETATM    5  N   UNK N   1      -1.115   0.659  -0.883  0.00  0.00    -0.319 N 
ATOM      6  HN  UNK N   1      -1.321  -0.305  -1.145  1.00  0.00     0.169 HD
HETATM    7  N   UNK N   1      -3.061   3.287   0.208  0.00  0.00    -0.346 N 
ATOM      8  HN  UNK N   1      -3.283   4.266   0.389  1.00  0.00     0.167 HD
HETATM    9  C   UNK N   1      -0.654   3.321  -0.447  0.00  0.00     0.132 C 
HETATM   10  C   UNK N   1       0.127   1.107  -0.917  0.00  0.00     0.164 C 
HETATM   11  N   UNK N   1       0.389   2.445  -0.685  0.00  0.00    -0.320 N 
ATOM     12  HN  UNK N   1       1.350   2.785  -0.689  1.00  0.00     0.169 HD
ENDROOT
BRANCH   1  13
HETATM   13  C   UNK N   1      -3.463  -0.334   0.462  0.00  0.00     0.263 C 
HETATM   14  C   UNK N   1      -2.245  -1.279   0.393  0.00  0.00     0.199 C 
HETATM   15  C   UNK N   1      -2.888  -2.604   0.290  0.00  0.00     0.189 C 
HETATM   16  C   UNK N   1      -4.025  -2.220  -0.636  0.00  0.00     0.247 C 
HETATM   17  O   UNK N   1      -4.412  -0.886  -0.370  0.00  0.00    -0.346 OA
BRANCH  14  18
HETATM   18  O   UNK N   1      -1.367  -1.176   1.475  0.00  0.00    -0.388 OA
HETATM   19  H   UNK N   1      -1.000  -1.668   2.227  0.00  0.00     0.210 HD
ENDBRANCH  14  18
BRANCH  15  20
HETATM   20  O   UNK N   1      -2.033  -3.517  -0.334  0.00  0.00    -0.390 OA
HETATM   21  H   UNK N   1      -2.284  -4.347  -0.768  0.00  0.00     0.210 HD
ENDBRANCH  15  20
BRANCH  16  22
HETATM   22  C   UNK N   1      -5.273  -2.975  -0.424  0.00  0.00     0.249 C 
HETATM   23  N   UNK N   1      -6.367  -2.413  -0.977  0.00  0.00    -0.359 N 
HETATM   24  H   UNK N   1      -6.275  -1.961  -1.847  0.00  0.00     0.162 HD
HETATM   25  O   UNK N   1      -5.362  -3.846   0.432  0.00  0.00    -0.271 OA
BRANCH  23  26
HETATM   26  C   UNK N   1      -7.651  -2.444  -0.359  0.00  0.00     0.118 C 
HETATM   27  C   UNK N   1      -7.936  -1.008   0.067  0.00  0.00     0.026 C 
ENDBRANCH  23  26
ENDBRANCH  16  22
ENDBRANCH   1  13
BRANCH   9  28
HETATM   28  N   UNK N   1      -0.398   4.650  -0.054  0.00  0.00    -0.383 N 
HETATM   29  H   UNK N   1       0.495   4.960   0.220  0.00  0.00     0.157 HD
HETATM   30  H   UNK N   1      -1.143   5.295  -0.054  0.00  0.00     0.157 HD
ENDBRANCH   9  28
BRANCH  10  31
HETATM   31  C   UNK N   1       1.002   0.098  -0.496  0.00  0.00    -0.030 C 
HETATM   32  C   UNK N   1       1.602  -0.884  -0.181  0.00  0.00    -0.098 C 
BRANCH  32  33
HETATM   33  C   UNK N   1       2.513  -1.884   0.329  0.00  0.00     0.099 C 
BRANCH  33  34
HETATM   34  C   UNK N   1       3.607  -1.191   1.170  0.00  0.00    -0.003 C 
HETATM   35  C   UNK N   1       4.881  -1.173   0.368  0.00  0.00     0.006 C 
HETATM   36  C   UNK N   1       4.691  -0.274  -0.852  0.00  0.00     0.015 C 
HETATM   37  C   UNK N   1       4.435   1.182  -0.438  0.00  0.00     0.085 C 
HETATM   38  C   UNK N   1       3.293   1.305   0.579  0.00  0.00     0.015 C 
HETATM   39  C   UNK N   1       3.329   0.246   1.701  0.00  0.00     0.006 C 
BRANCH  37  40
HETATM   40  C   UNK N   1       5.611   2.001   0.040  0.00  0.00     0.262 C 
HETATM   41  O   UNK N   1       5.401   3.173   0.307  0.00  0.00    -0.265 OA
BRANCH  40  42
HETATM   42  O   UNK N   1       6.879   1.531   0.187  0.00  0.00    -0.326 OA
HETATM   43  C   UNK N   1       7.373   0.352  -0.316  0.00  0.00     0.213 C 
ENDBRANCH  40  42
ENDBRANCH  37  40
ENDBRANCH  33  34
ENDBRANCH  32  33
ENDBRANCH  10  31
TORSDOF 11
