MODEL 1
REMARK VINA RESULT:      -7.9      0.000      0.000
REMARK  11 active torsions:
REMARK  status: ('A' for Active; 'I' for Inactive)
REMARK    1  A    between atoms: C_2  and  N_1 
REMARK    2  A    between atoms: C_5  and  O_20 
REMARK    3  A    between atoms: C_12  and  O_21 
REMARK    4  A    between atoms: C_13  and  C_16 
REMARK    5  A    between atoms: C_14  and  N_19 
REMARK    6  A    between atoms: C_15  and  C_26 
REMARK       I    between atoms: C_16  and  N_22 
REMARK    7  A    between atoms: N_22  and  C_24 
REMARK    8  A    between atoms: C_27  and  C_28 
REMARK    9  A    between atoms: C_29  and  C_28 
REMARK   10  A    between atoms: C_32  and  C_35 
REMARK   11  A    between atoms: C_35  and  O_36 
ROOT
HETATM    1  N   UNK N   1      21.070  18.694   2.850  0.00  0.00    -0.297 N 
HETATM    2  C   UNK N   1      20.527  17.549   3.198  0.00  0.00     0.143 C 
HETATM    3  C   UNK N   1      20.656  18.906   1.575  0.00  0.00     0.188 C 
HETATM    4  C   UNK N   1      19.921  16.986   2.154  0.00  0.00     0.122 C 
HETATM    5  N   UNK N   1      20.812  16.910   4.313  0.00  0.00    -0.319 N 
ATOM      6  HN  UNK N   1      21.152  17.424   5.126  1.00  0.00     0.169 HD
HETATM    7  N   UNK N   1      19.906  17.854   1.123  0.00  0.00    -0.346 N 
ATOM      8  HN  UNK N   1      19.445  17.749   0.219  1.00  0.00     0.167 HD
HETATM    9  C   UNK N   1      19.633  15.623   2.206  0.00  0.00     0.132 C 
HETATM   10  C   UNK N   1      20.659  15.600   4.369  0.00  0.00     0.164 C 
HETATM   11  N   UNK N   1      20.079  14.923   3.312  0.00  0.00    -0.320 N 
ATOM     12  HN  UNK N   1      19.982  13.909   3.347  1.00  0.00     0.169 HD
ENDROOT
BRANCH   1  13
HETATM   13  C   UNK N   1      22.211  19.313   3.551  0.00  0.00     0.263 C 
HETATM   14  C   UNK N   1      22.942  20.427   2.772  0.00  0.00     0.199 C 
HETATM   15  C   UNK N   1      24.280  20.412   3.395  0.00  0.00     0.189 C 
HETATM   16  C   UNK N   1      24.429  18.911   3.551  0.00  0.00     0.247 C 
HETATM   17  O   UNK N   1      23.157  18.339   3.787  0.00  0.00    -0.346 OA
BRANCH  14  18
HETATM   18  O   UNK N   1      22.323  21.678   2.828  0.00  0.00    -0.388 OA
HETATM   19  H   UNK N   1      21.668  22.199   3.319  0.00  0.00     0.210 HD
ENDBRANCH  14  18
BRANCH  15  20
HETATM   20  O   UNK N   1      25.240  20.911   2.510  0.00  0.00    -0.390 OA
HETATM   21  H   UNK N   1      25.185  21.730   1.993  0.00  0.00     0.210 HD
ENDBRANCH  15  20
BRANCH  16  22
HETATM   22  C   UNK N   1      25.206  18.488   4.730  0.00  0.00     0.249 C 
HETATM   23  N   UNK N   1      25.884  19.482   5.338  0.00  0.00    -0.359 N 
HETATM   24  H   UNK N   1      25.469  20.374   5.388  0.00  0.00     0.162 HD
HETATM   25  O   UNK N   1      25.465  17.311   4.943  0.00  0.00    -0.271 OA
BRANCH  23  26
HETATM   26  C   UNK N   1      27.176  19.301   5.911  0.00  0.00     0.118 C 
HETATM   27  C   UNK N   1      28.163  19.820   4.871  0.00  0.00     0.026 C 
ENDBRANCH  23  26
ENDBRANCH  16  22
ENDBRANCH   1  13
BRANCH   9  28
HETATM   28  N   UNK N   1      19.187  14.939   1.057  0.00  0.00    -0.383 N 
HETATM   29  H   UNK N   1      18.918  13.992   1.074  0.00  0.00     0.157 HD
HETATM   30  H   UNK N   1      19.142  15.428   0.203  0.00  0.00     0.157 HD
ENDBRANCH   9  28
BRANCH  10  31
HETATM   31  C   UNK N   1      21.691  15.038   5.131  0.00  0.00    -0.030 C 
HETATM   32  C   UNK N   1      22.464  14.396   5.774  0.00  0.00    -0.098 C 
BRANCH  32  33
HETATM   33  C   UNK N   1      23.518  13.880   6.618  0.00  0.00     0.099 C 
BRANCH  33  34
HETATM   34  C   UNK N   1      23.029  12.586   7.305  0.00  0.00    -0.003 C 
HETATM   35  C   UNK N   1      23.950  12.283   8.456  0.00  0.00     0.006 C 
HETATM   36  C   UNK N   1      23.802  13.374   9.515  0.00  0.00     0.015 C 
HETATM   37  C   UNK N   1      22.385  13.390  10.105  0.00  0.00     0.085 C 
HETATM   38  C   UNK N   1      21.304  13.461   9.019  0.00  0.00     0.015 C 
HETATM   39  C   UNK N   1      21.558  12.532   7.813  0.00  0.00     0.006 C 
BRANCH  37  40
HETATM   40  C   UNK N   1      22.017  12.312  11.098  0.00  0.00     0.262 C 
HETATM   41  O   UNK N   1      20.829  12.085  11.258  0.00  0.00    -0.265 OA
BRANCH  40  42
HETATM   42  O   UNK N   1      22.909  11.585  11.824  0.00  0.00    -0.326 OA
HETATM   43  C   UNK N   1      23.347  11.871  13.094  0.00  0.00     0.213 C 
ENDBRANCH  40  42
ENDBRANCH  37  40
ENDBRANCH  33  34
ENDBRANCH  32  33
ENDBRANCH  10  31
TORSDOF 11
ENDMDL
MODEL 2
REMARK VINA RESULT:      -7.4      2.120      5.294
REMARK  11 active torsions:
REMARK  status: ('A' for Active; 'I' for Inactive)
REMARK    1  A    between atoms: C_2  and  N_1 
REMARK    2  A    between atoms: C_5  and  O_20 
REMARK    3  A    between atoms: C_12  and  O_21 
REMARK    4  A    between atoms: C_13  and  C_16 
REMARK    5  A    between atoms: C_14  and  N_19 
REMARK    6  A    between atoms: C_15  and  C_26 
REMARK       I    between atoms: C_16  and  N_22 
REMARK    7  A    between atoms: N_22  and  C_24 
REMARK    8  A    between atoms: C_27  and  C_28 
REMARK    9  A    between atoms: C_29  and  C_28 
REMARK   10  A    between atoms: C_32  and  C_35 
REMARK   11  A    between atoms: C_35  and  O_36 
ROOT
HETATM    1  N   UNK N   1      26.498  19.585   4.813  0.00  0.00    -0.297 N 
HETATM    2  C   UNK N   1      27.128  18.664   5.505  0.00  0.00     0.143 C 
HETATM    3  C   UNK N   1      26.765  20.750   5.453  0.00  0.00     0.188 C 
HETATM    4  C   UNK N   1      27.648  19.189   6.613  0.00  0.00     0.122 C 
HETATM    5  N   UNK N   1      26.991  17.370   5.301  0.00  0.00    -0.319 N 
ATOM      6  HN  UNK N   1      26.714  17.022   4.383  1.00  0.00     0.169 HD
HETATM    7  N   UNK N   1      27.513  20.529   6.579  0.00  0.00    -0.346 N 
ATOM      8  HN  UNK N   1      27.882  21.216   7.237  1.00  0.00     0.167 HD
HETATM    9  C   UNK N   1      28.004  18.332   7.654  0.00  0.00     0.132 C 
HETATM   10  C   UNK N   1      27.213  16.528   6.294  0.00  0.00     0.164 C 
HETATM   11  N   UNK N   1      27.710  16.990   7.498  0.00  0.00    -0.320 N 
ATOM     12  HN  UNK N   1      27.859  16.343   8.271  1.00  0.00     0.169 HD
ENDROOT
BRANCH   1  13
HETATM   13  C   UNK N   1      25.408  19.300   3.860  0.00  0.00     0.263 C 
HETATM   14  C   UNK N   1      24.721  20.539   3.249  0.00  0.00     0.199 C 
HETATM   15  C   UNK N   1      23.398  20.004   2.870  0.00  0.00     0.189 C 
HETATM   16  C   UNK N   1      23.172  19.115   4.077  0.00  0.00     0.247 C 
HETATM   17  O   UNK N   1      24.416  18.613   4.525  0.00  0.00    -0.346 OA
BRANCH  14  18
HETATM   18  O   UNK N   1      25.408  21.116   2.178  0.00  0.00    -0.388 OA
HETATM   19  H   UNK N   1      25.814  20.918   1.319  0.00  0.00     0.210 HD
ENDBRANCH  14  18
BRANCH  15  20
HETATM   20  O   UNK N   1      22.447  21.028   2.829  0.00  0.00    -0.390 OA
HETATM   21  H   UNK N   1      22.561  21.940   3.138  0.00  0.00     0.210 HD
ENDBRANCH  15  20
BRANCH  16  22
HETATM   22  C   UNK N   1      22.400  17.890   3.804  0.00  0.00     0.249 C 
HETATM   23  N   UNK N   1      23.045  16.744   4.105  0.00  0.00    -0.359 N 
HETATM   24  H   UNK N   1      23.622  16.725   4.903  0.00  0.00     0.162 HD
HETATM   25  O   UNK N   1      21.411  17.899   3.082  0.00  0.00    -0.271 OA
BRANCH  23  26
HETATM   26  C   UNK N   1      22.927  15.559   3.322  0.00  0.00     0.118 C 
HETATM   27  C   UNK N   1      24.340  15.244   2.841  0.00  0.00     0.026 C 
ENDBRANCH  23  26
ENDBRANCH  16  22
ENDBRANCH   1  13
BRANCH   9  28
HETATM   28  N   UNK N   1      28.360  18.846   8.917  0.00  0.00    -0.383 N 
HETATM   29  H   UNK N   1      28.194  19.781   9.176  0.00  0.00     0.157 HD
HETATM   30  H   UNK N   1      28.793  18.245   9.567  0.00  0.00     0.157 HD
ENDBRANCH   9  28
BRANCH  10  31
HETATM   31  C   UNK N   1      26.294  15.473   6.228  0.00  0.00    -0.030 C 
HETATM   32  C   UNK N   1      25.567  14.536   6.356  0.00  0.00    -0.098 C 
BRANCH  32  33
HETATM   33  C   UNK N   1      24.660  13.419   6.218  0.00  0.00     0.099 C 
BRANCH  33  34
HETATM   34  C   UNK N   1      24.565  12.674   7.567  0.00  0.00    -0.003 C 
HETATM   35  C   UNK N   1      24.185  13.667   8.632  0.00  0.00     0.006 C 
HETATM   36  C   UNK N   1      22.770  14.174   8.360  0.00  0.00     0.015 C 
HETATM   37  C   UNK N   1      21.742  13.038   8.459  0.00  0.00     0.085 C 
HETATM   38  C   UNK N   1      22.122  11.832   7.591  0.00  0.00     0.015 C 
HETATM   39  C   UNK N   1      23.614  11.445   7.666  0.00  0.00     0.006 C 
BRANCH  37  40
HETATM   40  C   UNK N   1      21.352  12.552   9.835  0.00  0.00     0.262 C 
HETATM   41  O   UNK N   1      20.300  12.964  10.294  0.00  0.00    -0.265 OA
BRANCH  40  42
HETATM   42  O   UNK N   1      22.088  11.698  10.596  0.00  0.00    -0.326 OA
HETATM   43  C   UNK N   1      22.911  12.042  11.641  0.00  0.00     0.213 C 
ENDBRANCH  40  42
ENDBRANCH  37  40
ENDBRANCH  33  34
ENDBRANCH  32  33
ENDBRANCH  10  31
TORSDOF 11
ENDMDL
MODEL 3
REMARK VINA RESULT:      -7.2      4.274      5.282
REMARK  11 active torsions:
REMARK  status: ('A' for Active; 'I' for Inactive)
REMARK    1  A    between atoms: C_2  and  N_1 
REMARK    2  A    between atoms: C_5  and  O_20 
REMARK    3  A    between atoms: C_12  and  O_21 
REMARK    4  A    between atoms: C_13  and  C_16 
REMARK    5  A    between atoms: C_14  and  N_19 
REMARK    6  A    between atoms: C_15  and  C_26 
REMARK       I    between atoms: C_16  and  N_22 
REMARK    7  A    between atoms: N_22  and  C_24 
REMARK    8  A    between atoms: C_27  and  C_28 
REMARK    9  A    between atoms: C_29  and  C_28 
REMARK   10  A    between atoms: C_32  and  C_35 
REMARK   11  A    between atoms: C_35  and  O_36 
ROOT
HETATM    1  N   UNK N   1      20.946  18.545   3.514  0.00  0.00    -0.297 N 
HETATM    2  C   UNK N   1      21.060  17.244   3.372  0.00  0.00     0.143 C 
HETATM    3  C   UNK N   1      19.766  18.861   2.924  0.00  0.00     0.188 C 
HETATM    4  C   UNK N   1      20.081  16.773   2.602  0.00  0.00     0.122 C 
HETATM    5  N   UNK N   1      22.148  16.566   3.672  0.00  0.00    -0.319 N 
ATOM      6  HN  UNK N   1      22.798  16.922   4.373  1.00  0.00     0.169 HD
HETATM    7  N   UNK N   1      19.188  17.753   2.364  0.00  0.00    -0.346 N 
ATOM      8  HN  UNK N   1      18.292  17.685   1.880  1.00  0.00     0.167 HD
HETATM    9  C   UNK N   1      20.239  15.518   2.016  0.00  0.00     0.132 C 
HETATM   10  C   UNK N   1      22.392  15.422   3.058  0.00  0.00     0.164 C 
HETATM   11  N   UNK N   1      21.450  14.878   2.204  0.00  0.00    -0.320 N 
ATOM     12  HN  UNK N   1      21.649  14.008   1.713  1.00  0.00     0.169 HD
ENDROOT
BRANCH   1  13
HETATM   13  C   UNK N   1      22.073  19.443   3.833  0.00  0.00     0.263 C 
HETATM   14  C   UNK N   1      22.550  20.343   2.675  0.00  0.00     0.199 C 
HETATM   15  C   UNK N   1      23.945  20.632   3.064  0.00  0.00     0.189 C 
HETATM   16  C   UNK N   1      24.307  19.262   3.601  0.00  0.00     0.247 C 
HETATM   17  O   UNK N   1      23.160  18.671   4.179  0.00  0.00    -0.346 OA
BRANCH  14  18
HETATM   18  O   UNK N   1      21.784  21.495   2.479  0.00  0.00    -0.388 OA
HETATM   19  H   UNK N   1      21.146  21.910   1.876  0.00  0.00     0.210 HD
ENDBRANCH  14  18
BRANCH  15  20
HETATM   20  O   UNK N   1      24.715  20.937   1.938  0.00  0.00    -0.390 OA
HETATM   21  H   UNK N   1      25.568  21.400   1.923  0.00  0.00     0.210 HD
ENDBRANCH  15  20
BRANCH  16  22
HETATM   22  C   UNK N   1      25.271  19.273   4.717  0.00  0.00     0.249 C 
HETATM   23  N   UNK N   1      25.997  20.405   4.816  0.00  0.00    -0.359 N 
HETATM   24  H   UNK N   1      25.562  21.264   4.609  0.00  0.00     0.162 HD
HETATM   25  O   UNK N   1      25.602  18.245   5.292  0.00  0.00    -0.271 OA
BRANCH  23  26
HETATM   26  C   UNK N   1      27.368  20.415   5.207  0.00  0.00     0.118 C 
HETATM   27  C   UNK N   1      27.437  21.312   6.437  0.00  0.00     0.026 C 
ENDBRANCH  23  26
ENDBRANCH  16  22
ENDBRANCH   1  13
BRANCH   9  28
HETATM   28  N   UNK N   1      19.335  15.065   1.033  0.00  0.00    -0.383 N 
HETATM   29  H   UNK N   1      18.528  15.569   0.782  0.00  0.00     0.157 HD
HETATM   30  H   UNK N   1      19.519  14.210   0.580  0.00  0.00     0.157 HD
ENDBRANCH   9  28
BRANCH  10  31
HETATM   31  C   UNK N   1      23.766  15.303   2.818  0.00  0.00    -0.030 C 
HETATM   32  C   UNK N   1      24.952  15.370   2.708  0.00  0.00    -0.098 C 
BRANCH  32  33
HETATM   33  C   UNK N   1      26.353  15.239   2.376  0.00  0.00     0.099 C 
BRANCH  33  34
HETATM   34  C   UNK N   1      27.198  15.964   3.446  0.00  0.00    -0.003 C 
HETATM   35  C   UNK N   1      27.281  15.081   4.662  0.00  0.00     0.006 C 
HETATM   36  C   UNK N   1      28.077  13.825   4.314  0.00  0.00     0.015 C 
HETATM   37  C   UNK N   1      29.527  14.168   3.944  0.00  0.00     0.085 C 
HETATM   38  C   UNK N   1      29.610  15.248   2.858  0.00  0.00     0.015 C 
HETATM   39  C   UNK N   1      28.634  16.426   3.062  0.00  0.00     0.006 C 
BRANCH  37  40
HETATM   40  C   UNK N   1      30.481  14.519   5.062  0.00  0.00     0.262 C 
HETATM   41  O   UNK N   1      30.970  13.592   5.688  0.00  0.00    -0.265 OA
BRANCH  40  42
HETATM   42  O   UNK N   1      30.827  15.784   5.422  0.00  0.00    -0.326 OA
HETATM   43  C   UNK N   1      30.298  16.506   6.464  0.00  0.00     0.213 C 
ENDBRANCH  40  42
ENDBRANCH  37  40
ENDBRANCH  33  34
ENDBRANCH  32  33
ENDBRANCH  10  31
TORSDOF 11
ENDMDL
MODEL 4
REMARK VINA RESULT:      -7.0      1.704      2.587
REMARK  11 active torsions:
REMARK  status: ('A' for Active; 'I' for Inactive)
REMARK    1  A    between atoms: C_2  and  N_1 
REMARK    2  A    between atoms: C_5  and  O_20 
REMARK    3  A    between atoms: C_12  and  O_21 
REMARK    4  A    between atoms: C_13  and  C_16 
REMARK    5  A    between atoms: C_14  and  N_19 
REMARK    6  A    between atoms: C_15  and  C_26 
REMARK       I    between atoms: C_16  and  N_22 
REMARK    7  A    between atoms: N_22  and  C_24 
REMARK    8  A    between atoms: C_27  and  C_28 
REMARK    9  A    between atoms: C_29  and  C_28 
REMARK   10  A    between atoms: C_32  and  C_35 
REMARK   11  A    between atoms: C_35  and  O_36 
ROOT
HETATM    1  N   UNK N   1      23.335  19.194   4.191  0.00  0.00    -0.297 N 
HETATM    2  C   UNK N   1      22.250  18.479   4.383  0.00  0.00     0.143 C 
HETATM    3  C   UNK N   1      23.024  20.039   3.176  0.00  0.00     0.188 C 
HETATM    4  C   UNK N   1      21.344  18.747   3.445  0.00  0.00     0.122 C 
HETATM    5  N   UNK N   1      22.193  17.432   5.180  0.00  0.00    -0.319 N 
ATOM      6  HN  UNK N   1      22.837  17.350   5.966  1.00  0.00     0.169 HD
HETATM    7  N   UNK N   1      21.761  19.794   2.706  0.00  0.00    -0.346 N 
ATOM      8  HN  UNK N   1      21.255  20.287   1.971  1.00  0.00     0.167 HD
HETATM    9  C   UNK N   1      20.309  17.836   3.237  0.00  0.00     0.132 C 
HETATM   10  C   UNK N   1      21.297  16.489   4.952  0.00  0.00     0.164 C 
HETATM   11  N   UNK N   1      20.343  16.662   3.965  0.00  0.00    -0.320 N 
ATOM     12  HN  UNK N   1      19.667  15.923   3.775  1.00  0.00     0.169 HD
ENDROOT
BRANCH   1  13
HETATM   13  C   UNK N   1      24.675  18.809   4.675  0.00  0.00     0.263 C 
HETATM   14  C   UNK N   1      25.808  19.805   4.353  0.00  0.00     0.199 C 
HETATM   15  C   UNK N   1      27.003  18.939   4.396  0.00  0.00     0.189 C 
HETATM   16  C   UNK N   1      26.405  17.715   3.732  0.00  0.00     0.247 C 
HETATM   17  O   UNK N   1      25.034  17.625   4.068  0.00  0.00    -0.346 OA
BRANCH  14  18
HETATM   18  O   UNK N   1      25.887  20.896   5.222  0.00  0.00    -0.388 OA
HETATM   19  H   UNK N   1      26.409  21.689   5.428  0.00  0.00     0.210 HD
ENDBRANCH  14  18
BRANCH  15  20
HETATM   20  O   UNK N   1      28.026  19.475   3.609  0.00  0.00    -0.390 OA
HETATM   21  H   UNK N   1      28.622  20.203   3.845  0.00  0.00     0.210 HD
ENDBRANCH  15  20
BRANCH  16  22
HETATM   22  C   UNK N   1      26.946  16.429   4.210  0.00  0.00     0.249 C 
HETATM   23  N   UNK N   1      26.011  15.507   4.515  0.00  0.00    -0.359 N 
HETATM   24  H   UNK N   1      25.200  15.457   3.957  0.00  0.00     0.162 HD
HETATM   25  O   UNK N   1      28.104  16.320   4.594  0.00  0.00    -0.271 OA
BRANCH  23  26
HETATM   26  C   UNK N   1      26.142  14.601   5.607  0.00  0.00     0.118 C 
HETATM   27  C   UNK N   1      25.434  15.269   6.781  0.00  0.00     0.026 C 
ENDBRANCH  23  26
ENDBRANCH  16  22
ENDBRANCH   1  13
BRANCH   9  28
HETATM   28  N   UNK N   1      19.450  17.966   2.127  0.00  0.00    -0.383 N 
HETATM   29  H   UNK N   1      18.650  17.406   2.006  0.00  0.00     0.157 HD
HETATM   30  H   UNK N   1      19.659  18.646   1.444  0.00  0.00     0.157 HD
ENDBRANCH   9  28
BRANCH  10  31
HETATM   31  C   UNK N   1      21.853  15.235   5.232  0.00  0.00    -0.030 C 
HETATM   32  C   UNK N   1      22.143  14.106   5.485  0.00  0.00    -0.098 C 
BRANCH  32  33
HETATM   33  C   UNK N   1      22.762  12.848   5.838  0.00  0.00     0.099 C 
BRANCH  33  34
HETATM   34  C   UNK N   1      21.931  12.169   6.949  0.00  0.00    -0.003 C 
HETATM   35  C   UNK N   1      22.824  11.210   7.690  0.00  0.00     0.006 C 
HETATM   36  C   UNK N   1      23.903  11.999   8.428  0.00  0.00     0.015 C 
HETATM   37  C   UNK N   1      23.290  12.914   9.499  0.00  0.00     0.085 C 
HETATM   38  C   UNK N   1      22.177  13.806   8.934  0.00  0.00     0.015 C 
HETATM   39  C   UNK N   1      21.204  13.076   7.984  0.00  0.00     0.006 C 
BRANCH  37  40
HETATM   40  C   UNK N   1      22.810  12.280  10.783  0.00  0.00     0.262 C 
HETATM   41  O   UNK N   1      21.608  12.103  10.900  0.00  0.00    -0.265 OA
BRANCH  40  42
HETATM   42  O   UNK N   1      23.613  11.901  11.813  0.00  0.00    -0.326 OA
HETATM   43  C   UNK N   1      23.281  11.899  13.146  0.00  0.00     0.213 C 
ENDBRANCH  40  42
ENDBRANCH  37  40
ENDBRANCH  33  34
ENDBRANCH  32  33
ENDBRANCH  10  31
TORSDOF 11
ENDMDL
MODEL 5
REMARK VINA RESULT:      -7.0      8.968     13.445
REMARK  11 active torsions:
REMARK  status: ('A' for Active; 'I' for Inactive)
REMARK    1  A    between atoms: C_2  and  N_1 
REMARK    2  A    between atoms: C_5  and  O_20 
REMARK    3  A    between atoms: C_12  and  O_21 
REMARK    4  A    between atoms: C_13  and  C_16 
REMARK    5  A    between atoms: C_14  and  N_19 
REMARK    6  A    between atoms: C_15  and  C_26 
REMARK       I    between atoms: C_16  and  N_22 
REMARK    7  A    between atoms: N_22  and  C_24 
REMARK    8  A    between atoms: C_27  and  C_28 
REMARK    9  A    between atoms: C_29  and  C_28 
REMARK   10  A    between atoms: C_32  and  C_35 
REMARK   11  A    between atoms: C_35  and  O_36 
ROOT
HETATM    1  N   UNK N   1      35.573  14.537   8.837  0.00  0.00    -0.297 N 
HETATM    2  C   UNK N   1      35.223  15.430   7.939  0.00  0.00     0.143 C 
HETATM    3  C   UNK N   1      36.051  13.488   8.121  0.00  0.00     0.188 C 
HETATM    4  C   UNK N   1      35.332  14.924   6.712  0.00  0.00     0.122 C 
HETATM    5  N   UNK N   1      34.564  16.534   8.221  0.00  0.00    -0.319 N 
ATOM      6  HN  UNK N   1      34.627  16.947   9.152  1.00  0.00     0.169 HD
HETATM    7  N   UNK N   1      35.935  13.721   6.776  0.00  0.00    -0.346 N 
ATOM      8  HN  UNK N   1      36.233  13.124   6.005  1.00  0.00     0.167 HD
HETATM    9  C   UNK N   1      34.652  15.551   5.669  0.00  0.00     0.132 C 
HETATM   10  C   UNK N   1      33.818  17.102   7.291  0.00  0.00     0.164 C 
HETATM   11  N   UNK N   1      33.832  16.615   5.997  0.00  0.00    -0.320 N 
ATOM     12  HN  UNK N   1      33.239  17.040   5.285  1.00  0.00     0.169 HD
ENDROOT
BRANCH   1  13
HETATM   13  C   UNK N   1      35.104  14.545  10.236  0.00  0.00     0.263 C 
HETATM   14  C   UNK N   1      35.819  15.546  11.168  0.00  0.00     0.199 C 
HETATM   15  C   UNK N   1      35.602  14.939  12.496  0.00  0.00     0.189 C 
HETATM   16  C   UNK N   1      35.791  13.487  12.103  0.00  0.00     0.247 C 
HETATM   17  O   UNK N   1      35.332  13.300  10.779  0.00  0.00    -0.346 OA
BRANCH  14  18
HETATM   18  O   UNK N   1      35.351  16.859  11.080  0.00  0.00    -0.388 OA
HETATM   19  H   UNK N   1      35.078  17.624  11.612  0.00  0.00     0.210 HD
ENDBRANCH  14  18
BRANCH  15  20
HETATM   20  O   UNK N   1      36.601  15.341  13.388  0.00  0.00    -0.390 OA
HETATM   21  H   UNK N   1      37.157  16.133  13.321  0.00  0.00     0.210 HD
ENDBRANCH  15  20
BRANCH  16  22
HETATM   22  C   UNK N   1      34.978  12.530  12.874  0.00  0.00     0.249 C 
HETATM   23  N   UNK N   1      34.901  12.797  14.194  0.00  0.00    -0.359 N 
HETATM   24  H   UNK N   1      34.855  13.738  14.482  0.00  0.00     0.162 HD
HETATM   25  O   UNK N   1      34.671  11.434  12.422  0.00  0.00    -0.271 OA
BRANCH  23  26
HETATM   26  C   UNK N   1      34.885  11.779  15.191  0.00  0.00     0.118 C 
HETATM   27  C   UNK N   1      36.320  11.677  15.697  0.00  0.00     0.026 C 
ENDBRANCH  23  26
ENDBRANCH  16  22
ENDBRANCH   1  13
BRANCH   9  28
HETATM   28  N   UNK N   1      34.564  14.943   4.401  0.00  0.00    -0.383 N 
HETATM   29  H   UNK N   1      33.769  14.443   4.106  0.00  0.00     0.157 HD
HETATM   30  H   UNK N   1      35.329  15.022   3.784  0.00  0.00     0.157 HD
ENDBRANCH   9  28
BRANCH  10  31
HETATM   31  C   UNK N   1      32.655  17.621   7.873  0.00  0.00    -0.030 C 
HETATM   32  C   UNK N   1      31.588  17.886   8.337  0.00  0.00    -0.098 C 
BRANCH  32  33
HETATM   33  C   UNK N   1      30.389  18.485   8.880  0.00  0.00     0.099 C 
BRANCH  33  34
HETATM   34  C   UNK N   1      29.168  17.629   8.479  0.00  0.00    -0.003 C 
HETATM   35  C   UNK N   1      27.946  18.507   8.500  0.00  0.00     0.006 C 
HETATM   36  C   UNK N   1      28.068  19.560   7.401  0.00  0.00     0.015 C 
HETATM   37  C   UNK N   1      28.097  18.914   6.009  0.00  0.00     0.085 C 
HETATM   38  C   UNK N   1      29.158  17.811   5.901  0.00  0.00     0.015 C 
HETATM   39  C   UNK N   1      29.215  16.868   7.122  0.00  0.00     0.006 C 
BRANCH  37  40
HETATM   40  C   UNK N   1      26.795  18.402   5.437  0.00  0.00     0.262 C 
HETATM   41  O   UNK N   1      25.870  19.194   5.363  0.00  0.00    -0.265 OA
BRANCH  40  42
HETATM   42  O   UNK N   1      26.580  17.129   5.009  0.00  0.00    -0.326 OA
HETATM   43  C   UNK N   1      25.723  16.215   5.573  0.00  0.00     0.213 C 
ENDBRANCH  40  42
ENDBRANCH  37  40
ENDBRANCH  33  34
ENDBRANCH  32  33
ENDBRANCH  10  31
TORSDOF 11
ENDMDL
MODEL 6
REMARK VINA RESULT:      -6.9      5.146      8.118
REMARK  11 active torsions:
REMARK  status: ('A' for Active; 'I' for Inactive)
REMARK    1  A    between atoms: C_2  and  N_1 
REMARK    2  A    between atoms: C_5  and  O_20 
REMARK    3  A    between atoms: C_12  and  O_21 
REMARK    4  A    between atoms: C_13  and  C_16 
REMARK    5  A    between atoms: C_14  and  N_19 
REMARK    6  A    between atoms: C_15  and  C_26 
REMARK       I    between atoms: C_16  and  N_22 
REMARK    7  A    between atoms: N_22  and  C_24 
REMARK    8  A    between atoms: C_27  and  C_28 
REMARK    9  A    between atoms: C_29  and  C_28 
REMARK   10  A    between atoms: C_32  and  C_35 
REMARK   11  A    between atoms: C_35  and  O_36 
ROOT
HETATM    1  N   UNK N   1      30.912  16.319   6.592  0.00  0.00    -0.297 N 
HETATM    2  C   UNK N   1      30.599  15.660   5.500  0.00  0.00     0.143 C 
HETATM    3  C   UNK N   1      31.635  15.444   7.335  0.00  0.00     0.188 C 
HETATM    4  C   UNK N   1      30.972  14.385   5.603  0.00  0.00     0.122 C 
HETATM    5  N   UNK N   1      29.763  16.107   4.587  0.00  0.00    -0.319 N 
ATOM      6  HN  UNK N   1      29.619  17.110   4.470  1.00  0.00     0.169 HD
HETATM    7  N   UNK N   1      31.710  14.224   6.719  0.00  0.00    -0.346 N 
ATOM      8  HN  UNK N   1      32.206  13.389   7.030  1.00  0.00     0.167 HD
HETATM    9  C   UNK N   1      30.395  13.449   4.745  0.00  0.00     0.132 C 
HETATM   10  C   UNK N   1      29.110  15.248   3.825  0.00  0.00     0.164 C 
HETATM   11  N   UNK N   1      29.400  13.898   3.896  0.00  0.00    -0.320 N 
ATOM     12  HN  UNK N   1      28.880  13.233   3.324  1.00  0.00     0.169 HD
ENDROOT
BRANCH   1  13
HETATM   13  C   UNK N   1      30.224  17.544   7.042  0.00  0.00     0.263 C 
HETATM   14  C   UNK N   1      29.594  17.471   8.449  0.00  0.00     0.199 C 
HETATM   15  C   UNK N   1      28.544  18.506   8.371  0.00  0.00     0.189 C 
HETATM   16  C   UNK N   1      28.082  18.237   6.952  0.00  0.00     0.247 C 
HETATM   17  O   UNK N   1      29.182  17.801   6.179  0.00  0.00    -0.346 OA
BRANCH  14  18
HETATM   18  O   UNK N   1      30.491  17.676   9.500  0.00  0.00    -0.388 OA
HETATM   19  H   UNK N   1      31.132  17.226  10.073  0.00  0.00     0.210 HD
ENDBRANCH  14  18
BRANCH  15  20
HETATM   20  O   UNK N   1      27.519  18.235   9.281  0.00  0.00    -0.390 OA
HETATM   21  H   UNK N   1      26.875  17.511   9.235  0.00  0.00     0.210 HD
ENDBRANCH  15  20
BRANCH  16  22
HETATM   22  C   UNK N   1      27.614  19.428   6.221  0.00  0.00     0.249 C 
HETATM   23  N   UNK N   1      27.341  20.492   7.002  0.00  0.00    -0.359 N 
HETATM   24  H   UNK N   1      27.913  20.660   7.786  0.00  0.00     0.162 HD
HETATM   25  O   UNK N   1      27.211  19.359   5.067  0.00  0.00    -0.271 OA
BRANCH  23  26
HETATM   26  C   UNK N   1      26.260  21.386   6.745  0.00  0.00     0.118 C 
HETATM   27  C   UNK N   1      25.704  21.762   8.115  0.00  0.00     0.026 C 
ENDBRANCH  23  26
ENDBRANCH  16  22
ENDBRANCH   1  13
BRANCH   9  28
HETATM   28  N   UNK N   1      30.596  12.069   4.948  0.00  0.00    -0.383 N 
HETATM   29  H   UNK N   1      30.199  11.581   5.704  0.00  0.00     0.157 HD
HETATM   30  H   UNK N   1      31.156  11.574   4.307  0.00  0.00     0.157 HD
ENDBRANCH   9  28
BRANCH  10  31
HETATM   31  C   UNK N   1      27.810  15.715   3.598  0.00  0.00    -0.030 C 
HETATM   32  C   UNK N   1      26.662  15.929   3.352  0.00  0.00    -0.098 C 
BRANCH  32  33
HETATM   33  C   UNK N   1      25.353  16.471   3.065  0.00  0.00     0.099 C 
BRANCH  33  34
HETATM   34  C   UNK N   1      24.317  15.819   4.006  0.00  0.00    -0.003 C 
HETATM   35  C   UNK N   1      24.442  16.457   5.364  0.00  0.00     0.006 C 
HETATM   36  C   UNK N   1      24.022  17.923   5.268  0.00  0.00     0.015 C 
HETATM   37  C   UNK N   1      22.543  18.055   4.876  0.00  0.00     0.085 C 
HETATM   38  C   UNK N   1      22.202  17.251   3.615  0.00  0.00     0.015 C 
HETATM   39  C   UNK N   1      22.820  15.837   3.580  0.00  0.00     0.006 C 
BRANCH  37  40
HETATM   40  C   UNK N   1      21.502  17.777   5.935  0.00  0.00     0.262 C 
HETATM   41  O   UNK N   1      21.335  18.633   6.789  0.00  0.00    -0.265 OA
BRANCH  40  42
HETATM   42  O   UNK N   1      20.747  16.648   6.008  0.00  0.00    -0.326 OA
HETATM   43  C   UNK N   1      19.837  16.339   6.990  0.00  0.00     0.213 C 
ENDBRANCH  40  42
ENDBRANCH  37  40
ENDBRANCH  33  34
ENDBRANCH  32  33
ENDBRANCH  10  31
TORSDOF 11
ENDMDL
MODEL 7
REMARK VINA RESULT:      -6.8      2.693      6.171
REMARK  11 active torsions:
REMARK  status: ('A' for Active; 'I' for Inactive)
REMARK    1  A    between atoms: C_2  and  N_1 
REMARK    2  A    between atoms: C_5  and  O_20 
REMARK    3  A    between atoms: C_12  and  O_21 
REMARK    4  A    between atoms: C_13  and  C_16 
REMARK    5  A    between atoms: C_14  and  N_19 
REMARK    6  A    between atoms: C_15  and  C_26 
REMARK       I    between atoms: C_16  and  N_22 
REMARK    7  A    between atoms: N_22  and  C_24 
REMARK    8  A    between atoms: C_27  and  C_28 
REMARK    9  A    between atoms: C_29  and  C_28 
REMARK   10  A    between atoms: C_32  and  C_35 
REMARK   11  A    between atoms: C_35  and  O_36 
ROOT
HETATM    1  N   UNK N   1      26.351  19.424   4.606  0.00  0.00    -0.297 N 
HETATM    2  C   UNK N   1      26.967  18.513   5.325  0.00  0.00     0.143 C 
HETATM    3  C   UNK N   1      26.805  20.611   5.079  0.00  0.00     0.188 C 
HETATM    4  C   UNK N   1      27.665  19.088   6.304  0.00  0.00     0.122 C 
HETATM    5  N   UNK N   1      26.682  17.229   5.285  0.00  0.00    -0.319 N 
ATOM      6  HN  UNK N   1      26.264  16.822   4.448  1.00  0.00     0.169 HD
HETATM    7  N   UNK N   1      27.658  20.424   6.133  0.00  0.00    -0.346 N 
ATOM      8  HN  UNK N   1      28.168  21.129   6.666  1.00  0.00     0.167 HD
HETATM    9  C   UNK N   1      28.059  18.306   7.390  0.00  0.00     0.132 C 
HETATM   10  C   UNK N   1      26.938  16.471   6.336  0.00  0.00     0.164 C 
HETATM   11  N   UNK N   1      27.619  16.996   7.420  0.00  0.00    -0.320 N 
ATOM     12  HN  UNK N   1      27.796  16.417   8.240  1.00  0.00     0.169 HD
ENDROOT
BRANCH   1  13
HETATM   13  C   UNK N   1      25.132  19.165   3.816  0.00  0.00     0.263 C 
HETATM   14  C   UNK N   1      24.501  20.404   3.146  0.00  0.00     0.199 C 
HETATM   15  C   UNK N   1      23.097  19.982   2.977  0.00  0.00     0.189 C 
HETATM   16  C   UNK N   1      22.931  19.251   4.295  0.00  0.00     0.247 C 
HETATM   17  O   UNK N   1      24.165  18.663   4.659  0.00  0.00    -0.346 OA
BRANCH  14  18
HETATM   18  O   UNK N   1      25.108  20.789   1.948  0.00  0.00    -0.388 OA
HETATM   19  H   UNK N   1      25.905  21.203   1.579  0.00  0.00     0.210 HD
ENDBRANCH  14  18
BRANCH  15  20
HETATM   20  O   UNK N   1      22.253  21.095   2.923  0.00  0.00    -0.390 OA
HETATM   21  H   UNK N   1      21.536  21.313   3.539  0.00  0.00     0.210 HD
ENDBRANCH  15  20
BRANCH  16  22
HETATM   22  C   UNK N   1      22.015  18.097   4.248  0.00  0.00     0.249 C 
HETATM   23  N   UNK N   1      21.488  17.851   3.032  0.00  0.00    -0.359 N 
HETATM   24  H   UNK N   1      22.053  17.990   2.237  0.00  0.00     0.162 HD
HETATM   25  O   UNK N   1      21.536  17.613   5.265  0.00  0.00    -0.271 OA
BRANCH  23  26
HETATM   26  C   UNK N   1      20.150  17.399   2.844  0.00  0.00     0.118 C 
HETATM   27  C   UNK N   1      19.310  18.660   2.672  0.00  0.00     0.026 C 
ENDBRANCH  23  26
ENDBRANCH  16  22
ENDBRANCH   1  13
BRANCH   9  28
HETATM   28  N   UNK N   1      28.612  18.903   8.540  0.00  0.00    -0.383 N 
HETATM   29  H   UNK N   1      28.617  18.459   9.419  0.00  0.00     0.157 HD
HETATM   30  H   UNK N   1      29.011  19.801   8.462  0.00  0.00     0.157 HD
ENDBRANCH   9  28
BRANCH  10  31
HETATM   31  C   UNK N   1      25.920  15.522   6.491  0.00  0.00    -0.030 C 
HETATM   32  C   UNK N   1      25.077  14.742   6.814  0.00  0.00    -0.098 C 
BRANCH  32  33
HETATM   33  C   UNK N   1      24.073  13.708   6.926  0.00  0.00     0.099 C 
BRANCH  33  34
HETATM   34  C   UNK N   1      22.693  14.300   6.569  0.00  0.00    -0.003 C 
HETATM   35  C   UNK N   1      22.484  14.155   5.085  0.00  0.00     0.006 C 
HETATM   36  C   UNK N   1      22.379  12.671   4.738  0.00  0.00     0.015 C 
HETATM   37  C   UNK N   1      21.152  12.028   5.400  0.00  0.00     0.085 C 
HETATM   38  C   UNK N   1      21.099  12.295   6.910  0.00  0.00     0.015 C 
HETATM   39  C   UNK N   1      21.439  13.747   7.308  0.00  0.00     0.006 C 
BRANCH  37  40
HETATM   40  C   UNK N   1      19.794  12.311   4.802  0.00  0.00     0.262 C 
HETATM   41  O   UNK N   1      19.446  11.620   3.859  0.00  0.00    -0.265 OA
BRANCH  40  42
HETATM   42  O   UNK N   1      18.940  13.279   5.232  0.00  0.00    -0.326 OA
HETATM   43  C   UNK N   1      18.850  14.560   4.746  0.00  0.00     0.213 C 
ENDBRANCH  40  42
ENDBRANCH  37  40
ENDBRANCH  33  34
ENDBRANCH  32  33
ENDBRANCH  10  31
TORSDOF 11
ENDMDL
MODEL 8
REMARK VINA RESULT:      -6.8      4.554      7.568
REMARK  11 active torsions:
REMARK  status: ('A' for Active; 'I' for Inactive)
REMARK    1  A    between atoms: C_2  and  N_1 
REMARK    2  A    between atoms: C_5  and  O_20 
REMARK    3  A    between atoms: C_12  and  O_21 
REMARK    4  A    between atoms: C_13  and  C_16 
REMARK    5  A    between atoms: C_14  and  N_19 
REMARK    6  A    between atoms: C_15  and  C_26 
REMARK       I    between atoms: C_16  and  N_22 
REMARK    7  A    between atoms: N_22  and  C_24 
REMARK    8  A    between atoms: C_27  and  C_28 
REMARK    9  A    between atoms: C_29  and  C_28 
REMARK   10  A    between atoms: C_32  and  C_35 
REMARK   11  A    between atoms: C_35  and  O_36 
ROOT
HETATM    1  N   UNK N   1      26.344  19.374   4.542  0.00  0.00    -0.297 N 
HETATM    2  C   UNK N   1      27.416  18.621   4.437  0.00  0.00     0.143 C 
HETATM    3  C   UNK N   1      26.472  20.001   5.739  0.00  0.00     0.188 C 
HETATM    4  C   UNK N   1      28.117  18.649   5.569  0.00  0.00     0.122 C 
HETATM    5  N   UNK N   1      27.595  17.730   3.485  0.00  0.00    -0.319 N 
ATOM      6  HN  UNK N   1      27.126  17.837   2.585  1.00  0.00     0.169 HD
HETATM    7  N   UNK N   1      27.598  19.579   6.394  0.00  0.00    -0.346 N 
ATOM      8  HN  UNK N   1      27.960  19.894   7.294  1.00  0.00     0.167 HD
HETATM    9  C   UNK N   1      29.048  17.638   5.802  0.00  0.00     0.132 C 
HETATM   10  C   UNK N   1      28.385  16.694   3.703  0.00  0.00     0.164 C 
HETATM   11  N   UNK N   1      29.119  16.615   4.873  0.00  0.00    -0.320 N 
ATOM     12  HN  UNK N   1      29.710  15.805   5.051  1.00  0.00     0.169 HD
ENDROOT
BRANCH   1  13
HETATM   13  C   UNK N   1      25.120  19.186   3.740  0.00  0.00     0.263 C 
HETATM   14  C   UNK N   1      24.514  20.474   3.145  0.00  0.00     0.199 C 
HETATM   15  C   UNK N   1      23.101  20.090   2.953  0.00  0.00     0.189 C 
HETATM   16  C   UNK N   1      22.922  19.286   4.225  0.00  0.00     0.247 C 
HETATM   17  O   UNK N   1      24.144  18.654   4.553  0.00  0.00    -0.346 OA
BRANCH  14  18
HETATM   18  O   UNK N   1      25.128  20.918   1.971  0.00  0.00    -0.388 OA
HETATM   19  H   UNK N   1      25.808  20.691   1.316  0.00  0.00     0.210 HD
ENDBRANCH  14  18
BRANCH  15  20
HETATM   20  O   UNK N   1      22.279  21.220   2.966  0.00  0.00    -0.390 OA
HETATM   21  H   UNK N   1      22.225  21.908   2.285  0.00  0.00     0.210 HD
ENDBRANCH  15  20
BRANCH  16  22
HETATM   22  C   UNK N   1      21.985  18.154   4.111  0.00  0.00     0.249 C 
HETATM   23  N   UNK N   1      21.403  18.030   2.901  0.00  0.00    -0.359 N 
HETATM   24  H   UNK N   1      21.937  18.234   2.099  0.00  0.00     0.162 HD
HETATM   25  O   UNK N   1      21.539  17.584   5.099  0.00  0.00    -0.271 OA
BRANCH  23  26
HETATM   26  C   UNK N   1      20.050  17.615   2.730  0.00  0.00     0.118 C 
HETATM   27  C   UNK N   1      19.238  18.901   2.619  0.00  0.00     0.026 C 
ENDBRANCH  23  26
ENDBRANCH  16  22
ENDBRANCH   1  13
BRANCH   9  28
HETATM   28  N   UNK N   1      29.662  17.503   7.063  0.00  0.00    -0.383 N 
HETATM   29  H   UNK N   1      30.512  17.945   7.290  0.00  0.00     0.157 HD
HETATM   30  H   UNK N   1      29.222  16.945   7.746  0.00  0.00     0.157 HD
ENDBRANCH   9  28
BRANCH  10  31
HETATM   31  C   UNK N   1      27.848  15.556   3.089  0.00  0.00    -0.030 C 
HETATM   32  C   UNK N   1      27.375  14.516   2.746  0.00  0.00    -0.098 C 
BRANCH  32  33
HETATM   33  C   UNK N   1      26.893  13.336   2.063  0.00  0.00     0.099 C 
BRANCH  33  34
HETATM   34  C   UNK N   1      25.492  12.976   2.603  0.00  0.00    -0.003 C 
HETATM   35  C   UNK N   1      24.600  14.178   2.445  0.00  0.00     0.006 C 
HETATM   36  C   UNK N   1      24.392  14.454   0.957  0.00  0.00     0.015 C 
HETATM   37  C   UNK N   1      23.658  13.294   0.271  0.00  0.00     0.085 C 
HETATM   38  C   UNK N   1      24.329  11.941   0.540  0.00  0.00     0.015 C 
HETATM   39  C   UNK N   1      24.769  11.733   2.005  0.00  0.00     0.006 C 
BRANCH  37  40
HETATM   40  C   UNK N   1      22.171  13.160   0.502  0.00  0.00     0.262 C 
HETATM   41  O   UNK N   1      21.693  12.040   0.419  0.00  0.00    -0.265 OA
BRANCH  40  42
HETATM   42  O   UNK N   1      21.330  14.191   0.786  0.00  0.00    -0.326 OA
HETATM   43  C   UNK N   1      19.960  14.127   0.861  0.00  0.00     0.213 C 
ENDBRANCH  40  42
ENDBRANCH  37  40
ENDBRANCH  33  34
ENDBRANCH  32  33
ENDBRANCH  10  31
TORSDOF 11
ENDMDL
MODEL 9
REMARK VINA RESULT:      -6.8      9.226     12.184
REMARK  11 active torsions:
REMARK  status: ('A' for Active; 'I' for Inactive)
REMARK    1  A    between atoms: C_2  and  N_1 
REMARK    2  A    between atoms: C_5  and  O_20 
REMARK    3  A    between atoms: C_12  and  O_21 
REMARK    4  A    between atoms: C_13  and  C_16 
REMARK    5  A    between atoms: C_14  and  N_19 
REMARK    6  A    between atoms: C_15  and  C_26 
REMARK       I    between atoms: C_16  and  N_22 
REMARK    7  A    between atoms: N_22  and  C_24 
REMARK    8  A    between atoms: C_27  and  C_28 
REMARK    9  A    between atoms: C_29  and  C_28 
REMARK   10  A    between atoms: C_32  and  C_35 
REMARK   11  A    between atoms: C_35  and  O_36 
ROOT
HETATM    1  N   UNK N   1      32.565  16.478   4.581  0.00  0.00    -0.297 N 
HETATM    2  C   UNK N   1      33.088  15.274   4.628  0.00  0.00     0.143 C 
HETATM    3  C   UNK N   1      32.713  16.875   3.293  0.00  0.00     0.188 C 
HETATM    4  C   UNK N   1      33.674  14.976   3.469  0.00  0.00     0.122 C 
HETATM    5  N   UNK N   1      33.285  14.602   5.743  0.00  0.00    -0.319 N 
ATOM      6  HN  UNK N   1      32.709  14.789   6.564  1.00  0.00     0.169 HD
HETATM    7  N   UNK N   1      33.386  15.932   2.564  0.00  0.00    -0.346 N 
ATOM      8  HN  UNK N   1      33.617  15.947   1.571  1.00  0.00     0.167 HD
HETATM    9  C   UNK N   1      34.606  13.939   3.440  0.00  0.00     0.132 C 
HETATM   10  C   UNK N   1      34.235  13.685   5.791  0.00  0.00     0.164 C 
HETATM   11  N   UNK N   1      34.928  13.343   4.645  0.00  0.00    -0.320 N 
ATOM     12  HN  UNK N   1      35.676  12.652   4.688  1.00  0.00     0.169 HD
ENDROOT
BRANCH   1  13
HETATM   13  C   UNK N   1      32.317  17.317   5.770  0.00  0.00     0.263 C 
HETATM   14  C   UNK N   1      33.403  17.253   6.864  0.00  0.00     0.199 C 
HETATM   15  C   UNK N   1      32.651  17.653   8.069  0.00  0.00     0.189 C 
HETATM   16  C   UNK N   1      31.359  16.919   7.770  0.00  0.00     0.247 C 
HETATM   17  O   UNK N   1      31.155  16.886   6.371  0.00  0.00    -0.346 OA
BRANCH  14  18
HETATM   18  O   UNK N   1      34.521  18.056   6.621  0.00  0.00    -0.388 OA
HETATM   19  H   UNK N   1      35.337  18.114   6.098  0.00  0.00     0.210 HD
ENDBRANCH  14  18
BRANCH  15  20
HETATM   20  O   UNK N   1      33.255  17.137   9.219  0.00  0.00    -0.390 OA
HETATM   21  H   UNK N   1      32.879  17.107  10.112  0.00  0.00     0.210 HD
ENDBRANCH  15  20
BRANCH  16  22
HETATM   22  C   UNK N   1      30.142  17.586   8.267  0.00  0.00     0.249 C 
HETATM   23  N   UNK N   1      29.095  17.542   7.419  0.00  0.00    -0.359 N 
HETATM   24  H   UNK N   1      28.956  16.726   6.885  0.00  0.00     0.162 HD
HETATM   25  O   UNK N   1      30.176  18.372   9.205  0.00  0.00    -0.271 OA
BRANCH  23  26
HETATM   26  C   UNK N   1      28.179  18.622   7.260  0.00  0.00     0.118 C 
HETATM   27  C   UNK N   1      28.141  18.911   5.763  0.00  0.00     0.026 C 
ENDBRANCH  23  26
ENDBRANCH  16  22
ENDBRANCH   1  13
BRANCH   9  28
HETATM   28  N   UNK N   1      35.402  13.722   2.297  0.00  0.00    -0.383 N 
HETATM   29  H   UNK N   1      35.155  14.058   1.406  0.00  0.00     0.157 HD
HETATM   30  H   UNK N   1      36.240  13.213   2.395  0.00  0.00     0.157 HD
ENDBRANCH   9  28
BRANCH  10  31
HETATM   31  C   UNK N   1      34.851  13.714   7.048  0.00  0.00    -0.030 C 
HETATM   32  C   UNK N   1      35.402  13.928   8.085  0.00  0.00    -0.098 C 
BRANCH  32  33
HETATM   33  C   UNK N   1      36.092  13.895   9.354  0.00  0.00     0.099 C 
BRANCH  33  34
HETATM   34  C   UNK N   1      35.120  13.399  10.447  0.00  0.00    -0.003 C 
HETATM   35  C   UNK N   1      35.690  12.144  11.053  0.00  0.00     0.006 C 
HETATM   36  C   UNK N   1      36.978  12.489  11.798  0.00  0.00     0.015 C 
HETATM   37  C   UNK N   1      36.707  13.438  12.973  0.00  0.00     0.085 C 
HETATM   38  C   UNK N   1      35.912  14.679  12.547  0.00  0.00     0.015 C 
HETATM   39  C   UNK N   1      34.736  14.380  11.593  0.00  0.00     0.006 C 
BRANCH  37  40
HETATM   40  C   UNK N   1      36.085  12.860  14.223  0.00  0.00     0.262 C 
HETATM   41  O   UNK N   1      36.682  11.947  14.770  0.00  0.00    -0.265 OA
BRANCH  40  42
HETATM   42  O   UNK N   1      34.914  13.277  14.775  0.00  0.00    -0.326 OA
HETATM   43  C   UNK N   1      34.489  13.038  16.059  0.00  0.00     0.213 C 
ENDBRANCH  40  42
ENDBRANCH  37  40
ENDBRANCH  33  34
ENDBRANCH  32  33
ENDBRANCH  10  31
TORSDOF 11
ENDMDL
