MODEL 1
REMARK VINA RESULT:      -4.5      0.000      0.000
REMARK  8 active torsions:
REMARK  status: ('A' for Active; 'I' for Inactive)
REMARK    1  A    between atoms: C_2  and  C_3 
REMARK    2  A    between atoms: C_3  and  C_4 
REMARK    3  A    between atoms: C_4  and  P_5 
REMARK    4  A    between atoms: P_5  and  C_7 
REMARK    5  A    between atoms: P_5  and  O_11 
REMARK    6  A    between atoms: C_7  and  C_8 
REMARK    7  A    between atoms: C_8  and  C_9 
REMARK    8  A    between atoms: C_9  and  N_10 
ROOT
HETATM    1  P   UNK N   1      34.231  17.849   8.123  0.00  0.00     0.098 P 
HETATM    2  O   UNK N   1      34.487  17.738   6.597  0.00  0.00    -0.674 OA
ENDROOT
BRANCH   1   3
HETATM    3  C   UNK N   1      32.448  18.363   8.358  0.00  0.00     0.094 C 
BRANCH   3   4
HETATM    4  C   UNK N   1      31.500  17.173   8.306  0.00  0.00     0.009 C 
BRANCH   4   5
HETATM    5  C   UNK N   1      30.057  17.642   8.373  0.00  0.00    -0.004 C 
HETATM    6  C   UNK N   1      29.896  18.642   9.499  0.00  0.00     0.005 C 
ENDBRANCH   4   5
ENDBRANCH   3   4
ENDBRANCH   1   3
BRANCH   1   7
HETATM    7  C   UNK N   1      34.965  16.314   8.873  0.00  0.00     0.095 C 
BRANCH   7   8
HETATM    8  C   UNK N   1      35.127  16.496  10.368  0.00  0.00     0.028 C 
BRANCH   8   9
HETATM    9  C   UNK N   1      34.627  15.252  11.077  0.00  0.00     0.111 C 
BRANCH   9  10
HETATM   10  N   UNK N   1      33.242  15.010  10.720  0.00  0.00    -0.430 N 
HETATM   11  H   UNK N   1      32.599  15.789  10.575  0.00  0.00     0.149 HD
HETATM   12  H   UNK N   1      32.908  14.053  10.612  0.00  0.00     0.149 HD
ENDBRANCH   9  10
ENDBRANCH   8   9
ENDBRANCH   7   8
ENDBRANCH   1   7
BRANCH   1  13
HETATM   13  O   UNK N   1      35.253  19.194   8.521  0.00  0.00    -0.349 OA
HETATM   14  H   UNK N   1      35.777  19.636   9.208  0.00  0.00     0.217 HD
ENDBRANCH   1  13
TORSDOF 8
ENDMDL
MODEL 2
REMARK VINA RESULT:      -4.4     12.821     13.883
REMARK  8 active torsions:
REMARK  status: ('A' for Active; 'I' for Inactive)
REMARK    1  A    between atoms: C_2  and  C_3 
REMARK    2  A    between atoms: C_3  and  C_4 
REMARK    3  A    between atoms: C_4  and  P_5 
REMARK    4  A    between atoms: P_5  and  C_7 
REMARK    5  A    between atoms: P_5  and  O_11 
REMARK    6  A    between atoms: C_7  and  C_8 
REMARK    7  A    between atoms: C_8  and  C_9 
REMARK    8  A    between atoms: C_9  and  N_10 
ROOT
HETATM    1  P   UNK N   1      20.724  14.410   8.973  0.00  0.00     0.098 P 
HETATM    2  O   UNK N   1      20.365  13.606   7.696  0.00  0.00    -0.674 OA
ENDROOT
BRANCH   1   3
HETATM    3  C   UNK N   1      22.207  13.583   9.760  0.00  0.00     0.094 C 
BRANCH   3   4
HETATM    4  C   UNK N   1      21.799  12.473  10.719  0.00  0.00     0.009 C 
BRANCH   4   5
HETATM    5  C   UNK N   1      23.027  11.762  11.260  0.00  0.00    -0.004 C 
HETATM    6  C   UNK N   1      23.081  11.910  12.767  0.00  0.00     0.005 C 
ENDBRANCH   4   5
ENDBRANCH   3   4
ENDBRANCH   1   3
BRANCH   1   7
HETATM    7  C   UNK N   1      20.693  16.200   8.472  0.00  0.00     0.095 C 
BRANCH   7   8
HETATM    8  C   UNK N   1      19.272  16.629   8.172  0.00  0.00     0.028 C 
BRANCH   8   9
HETATM    9  C   UNK N   1      18.850  17.686   9.172  0.00  0.00     0.111 C 
BRANCH   9  10
HETATM   10  N   UNK N   1      17.402  17.774   9.209  0.00  0.00    -0.430 N 
HETATM   11  H   UNK N   1      16.916  17.992  10.079  0.00  0.00     0.149 HD
HETATM   12  H   UNK N   1      16.865  17.616   8.356  0.00  0.00     0.149 HD
ENDBRANCH   9  10
ENDBRANCH   8   9
ENDBRANCH   7   8
ENDBRANCH   1   7
BRANCH   1  13
HETATM   13  O   UNK N   1      19.328  14.092   9.954  0.00  0.00    -0.349 OA
HETATM   14  H   UNK N   1      18.546  13.535  10.091  0.00  0.00     0.217 HD
ENDBRANCH   1  13
TORSDOF 8
ENDMDL
MODEL 3
REMARK VINA RESULT:      -4.3      1.146      1.197
REMARK  8 active torsions:
REMARK  status: ('A' for Active; 'I' for Inactive)
REMARK    1  A    between atoms: C_2  and  C_3 
REMARK    2  A    between atoms: C_3  and  C_4 
REMARK    3  A    between atoms: C_4  and  P_5 
REMARK    4  A    between atoms: P_5  and  C_7 
REMARK    5  A    between atoms: P_5  and  O_11 
REMARK    6  A    between atoms: C_7  and  C_8 
REMARK    7  A    between atoms: C_8  and  C_9 
REMARK    8  A    between atoms: C_9  and  N_10 
ROOT
HETATM    1  P   UNK N   1      34.163  17.846   8.024  0.00  0.00     0.098 P 
HETATM    2  O   UNK N   1      34.301  17.930   6.482  0.00  0.00    -0.674 OA
ENDROOT
BRANCH   1   3
HETATM    3  C   UNK N   1      32.431  18.401   8.464  0.00  0.00     0.094 C 
BRANCH   3   4
HETATM    4  C   UNK N   1      31.442  17.244   8.459  0.00  0.00     0.009 C 
BRANCH   4   5
HETATM    5  C   UNK N   1      30.024  17.759   8.294  0.00  0.00    -0.004 C 
HETATM    6  C   UNK N   1      29.581  18.454   9.565  0.00  0.00     0.005 C 
ENDBRANCH   4   5
ENDBRANCH   3   4
ENDBRANCH   1   3
BRANCH   1   7
HETATM    7  C   UNK N   1      34.865  16.194   8.509  0.00  0.00     0.095 C 
BRANCH   7   8
HETATM    8  C   UNK N   1      34.467  15.859   9.931  0.00  0.00     0.028 C 
BRANCH   8   9
HETATM    9  C   UNK N   1      35.420  16.547  10.889  0.00  0.00     0.111 C 
BRANCH   9  10
HETATM   10  N   UNK N   1      36.599  15.724  11.079  0.00  0.00    -0.430 N 
HETATM   11  H   UNK N   1      37.306  15.650  10.346  0.00  0.00     0.149 HD
HETATM   12  H   UNK N   1      36.723  15.214  11.953  0.00  0.00     0.149 HD
ENDBRANCH   9  10
ENDBRANCH   8   9
ENDBRANCH   7   8
ENDBRANCH   1   7
BRANCH   1  13
HETATM   13  O   UNK N   1      35.281  19.080   8.513  0.00  0.00    -0.349 OA
HETATM   14  H   UNK N   1      36.195  19.290   8.762  0.00  0.00     0.217 HD
ENDBRANCH   1  13
TORSDOF 8
ENDMDL
MODEL 4
REMARK VINA RESULT:      -4.0      6.942      8.799
REMARK  8 active torsions:
REMARK  status: ('A' for Active; 'I' for Inactive)
REMARK    1  A    between atoms: C_2  and  C_3 
REMARK    2  A    between atoms: C_3  and  C_4 
REMARK    3  A    between atoms: C_4  and  P_5 
REMARK    4  A    between atoms: P_5  and  C_7 
REMARK    5  A    between atoms: P_5  and  O_11 
REMARK    6  A    between atoms: C_7  and  C_8 
REMARK    7  A    between atoms: C_8  and  C_9 
REMARK    8  A    between atoms: C_9  and  N_10 
ROOT
HETATM    1  P   UNK N   1      36.586  13.716  15.006  0.00  0.00     0.098 P 
HETATM    2  O   UNK N   1      37.465  14.708  15.810  0.00  0.00    -0.674 OA
ENDROOT
BRANCH   1   3
HETATM    3  C   UNK N   1      35.291  13.037  16.173  0.00  0.00     0.094 C 
BRANCH   3   4
HETATM    4  C   UNK N   1      35.269  13.786  17.498  0.00  0.00     0.009 C 
BRANCH   4   5
HETATM    5  C   UNK N   1      35.237  12.809  18.659  0.00  0.00    -0.004 C 
HETATM    6  C   UNK N   1      35.362  11.392  18.139  0.00  0.00     0.005 C 
ENDBRANCH   4   5
ENDBRANCH   3   4
ENDBRANCH   1   3
BRANCH   1   7
HETATM    7  C   UNK N   1      36.178  14.578  13.409  0.00  0.00     0.095 C 
BRANCH   7   8
HETATM    8  C   UNK N   1      35.550  13.599  12.439  0.00  0.00     0.028 C 
BRANCH   8   9
HETATM    9  C   UNK N   1      36.415  13.508  11.197  0.00  0.00     0.111 C 
BRANCH   9  10
HETATM   10  N   UNK N   1      37.791  13.252  11.578  0.00  0.00    -0.430 N 
HETATM   11  H   UNK N   1      38.029  13.022  12.543  0.00  0.00     0.149 HD
HETATM   12  H   UNK N   1      38.528  13.304  10.874  0.00  0.00     0.149 HD
ENDBRANCH   9  10
ENDBRANCH   8   9
ENDBRANCH   7   8
ENDBRANCH   1   7
BRANCH   1  13
HETATM   13  O   UNK N   1      37.741  12.465  14.671  0.00  0.00    -0.349 OA
HETATM   14  H   UNK N   1      38.673  12.245  14.516  0.00  0.00     0.217 HD
ENDBRANCH   1  13
TORSDOF 8
ENDMDL
MODEL 5
REMARK VINA RESULT:      -4.0      5.435      7.515
REMARK  8 active torsions:
REMARK  status: ('A' for Active; 'I' for Inactive)
REMARK    1  A    between atoms: C_2  and  C_3 
REMARK    2  A    between atoms: C_3  and  C_4 
REMARK    3  A    between atoms: C_4  and  P_5 
REMARK    4  A    between atoms: P_5  and  C_7 
REMARK    5  A    between atoms: P_5  and  O_11 
REMARK    6  A    between atoms: C_7  and  C_8 
REMARK    7  A    between atoms: C_8  and  C_9 
REMARK    8  A    between atoms: C_9  and  N_10 
ROOT
HETATM    1  P   UNK N   1      35.948  13.686  13.289  0.00  0.00     0.098 P 
HETATM    2  O   UNK N   1      36.914  12.655  12.649  0.00  0.00    -0.674 OA
ENDROOT
BRANCH   1   3
HETATM    3  C   UNK N   1      36.454  13.895  15.078  0.00  0.00     0.094 C 
BRANCH   3   4
HETATM    4  C   UNK N   1      35.999  12.726  15.940  0.00  0.00     0.009 C 
BRANCH   4   5
HETATM    5  C   UNK N   1      34.821  13.133  16.807  0.00  0.00    -0.004 C 
HETATM    6  C   UNK N   1      35.308  13.971  17.971  0.00  0.00     0.005 C 
ENDBRANCH   4   5
ENDBRANCH   3   4
ENDBRANCH   1   3
BRANCH   1   7
HETATM    7  C   UNK N   1      35.838  15.097  12.082  0.00  0.00     0.095 C 
BRANCH   7   8
HETATM    8  C   UNK N   1      34.587  14.959  11.239  0.00  0.00     0.028 C 
BRANCH   8   9
HETATM    9  C   UNK N   1      34.654  15.944  10.089  0.00  0.00     0.111 C 
BRANCH   9  10
HETATM   10  N   UNK N   1      35.073  17.243  10.582  0.00  0.00    -0.430 N 
HETATM   11  H   UNK N   1      35.400  17.963   9.937  0.00  0.00     0.149 HD
HETATM   12  H   UNK N   1      35.043  17.437  11.583  0.00  0.00     0.149 HD
ENDBRANCH   9  10
ENDBRANCH   8   9
ENDBRANCH   7   8
ENDBRANCH   1   7
BRANCH   1  13
HETATM   13  O   UNK N   1      34.455  12.803  13.235  0.00  0.00    -0.349 OA
HETATM   14  H   UNK N   1      33.976  12.048  12.860  0.00  0.00     0.217 HD
ENDBRANCH   1  13
TORSDOF 8
ENDMDL
MODEL 6
REMARK VINA RESULT:      -3.9      3.070      3.883
REMARK  8 active torsions:
REMARK  status: ('A' for Active; 'I' for Inactive)
REMARK    1  A    between atoms: C_2  and  C_3 
REMARK    2  A    between atoms: C_3  and  C_4 
REMARK    3  A    between atoms: C_4  and  P_5 
REMARK    4  A    between atoms: P_5  and  C_7 
REMARK    5  A    between atoms: P_5  and  O_11 
REMARK    6  A    between atoms: C_7  and  C_8 
REMARK    7  A    between atoms: C_8  and  C_9 
REMARK    8  A    between atoms: C_9  and  N_10 
ROOT
HETATM    1  P   UNK N   1      34.731  15.329  10.446  0.00  0.00     0.098 P 
HETATM    2  O   UNK N   1      35.210  16.538  11.290  0.00  0.00    -0.674 OA
ENDROOT
BRANCH   1   3
HETATM    3  C   UNK N   1      34.478  15.931   8.692  0.00  0.00     0.094 C 
BRANCH   3   4
HETATM    4  C   UNK N   1      33.069  16.461   8.469  0.00  0.00     0.009 C 
BRANCH   4   5
HETATM    5  C   UNK N   1      33.102  17.952   8.187  0.00  0.00    -0.004 C 
HETATM    6  C   UNK N   1      34.538  18.433   8.147  0.00  0.00     0.005 C 
ENDBRANCH   4   5
ENDBRANCH   3   4
ENDBRANCH   1   3
BRANCH   1   7
HETATM    7  C   UNK N   1      35.856  13.918  10.895  0.00  0.00     0.095 C 
BRANCH   7   8
HETATM    8  C   UNK N   1      35.366  13.247  12.161  0.00  0.00     0.028 C 
BRANCH   8   9
HETATM    9  C   UNK N   1      36.422  13.389  13.239  0.00  0.00     0.111 C 
BRANCH   9  10
HETATM   10  N   UNK N   1      36.668  14.795  13.499  0.00  0.00    -0.430 N 
HETATM   11  H   UNK N   1      37.531  15.097  13.953  0.00  0.00     0.149 HD
HETATM   12  H   UNK N   1      35.972  15.488  13.226  0.00  0.00     0.149 HD
ENDBRANCH   9  10
ENDBRANCH   8   9
ENDBRANCH   7   8
ENDBRANCH   1   7
BRANCH   1  13
HETATM   13  O   UNK N   1      33.177  15.036  11.160  0.00  0.00    -0.349 OA
HETATM   14  H   UNK N   1      32.387  14.472  11.176  0.00  0.00     0.217 HD
ENDBRANCH   1  13
TORSDOF 8
ENDMDL
MODEL 7
REMARK VINA RESULT:      -3.9      3.343      4.792
REMARK  8 active torsions:
REMARK  status: ('A' for Active; 'I' for Inactive)
REMARK    1  A    between atoms: C_2  and  C_3 
REMARK    2  A    between atoms: C_3  and  C_4 
REMARK    3  A    between atoms: C_4  and  P_5 
REMARK    4  A    between atoms: P_5  and  C_7 
REMARK    5  A    between atoms: P_5  and  O_11 
REMARK    6  A    between atoms: C_7  and  C_8 
REMARK    7  A    between atoms: C_8  and  C_9 
REMARK    8  A    between atoms: C_9  and  N_10 
ROOT
HETATM    1  P   UNK N   1      31.986  16.059   8.588  0.00  0.00     0.098 P 
HETATM    2  O   UNK N   1      32.095  14.753   7.758  0.00  0.00    -0.674 OA
ENDROOT
BRANCH   1   3
HETATM    3  C   UNK N   1      33.674  16.866   8.591  0.00  0.00     0.094 C 
BRANCH   3   4
HETATM    4  C   UNK N   1      33.841  17.845   7.437  0.00  0.00     0.009 C 
BRANCH   4   5
HETATM    5  C   UNK N   1      34.069  17.097   6.136  0.00  0.00    -0.004 C 
HETATM    6  C   UNK N   1      33.071  17.562   5.097  0.00  0.00     0.005 C 
ENDBRANCH   4   5
ENDBRANCH   3   4
ENDBRANCH   1   3
BRANCH   1   7
HETATM    7  C   UNK N   1      30.442  16.910   7.994  0.00  0.00     0.095 C 
BRANCH   7   8
HETATM    8  C   UNK N   1      30.200  18.166   8.806  0.00  0.00     0.028 C 
BRANCH   8   9
HETATM    9  C   UNK N   1      29.008  17.947   9.716  0.00  0.00     0.111 C 
BRANCH   9  10
HETATM   10  N   UNK N   1      27.809  18.462   9.082  0.00  0.00    -0.430 N 
HETATM   11  H   UNK N   1      27.738  19.448   8.827  0.00  0.00     0.149 HD
HETATM   12  H   UNK N   1      27.029  17.834   8.891  0.00  0.00     0.149 HD
ENDBRANCH   9  10
ENDBRANCH   8   9
ENDBRANCH   7   8
ENDBRANCH   1   7
BRANCH   1  13
HETATM   13  O   UNK N   1      31.679  15.410  10.167  0.00  0.00    -0.349 OA
HETATM   14  H   UNK N   1      31.959  14.782  10.852  0.00  0.00     0.217 HD
ENDBRANCH   1  13
TORSDOF 8
ENDMDL
MODEL 8
REMARK VINA RESULT:      -3.9      3.090      5.685
REMARK  8 active torsions:
REMARK  status: ('A' for Active; 'I' for Inactive)
REMARK    1  A    between atoms: C_2  and  C_3 
REMARK    2  A    between atoms: C_3  and  C_4 
REMARK    3  A    between atoms: C_4  and  P_5 
REMARK    4  A    between atoms: P_5  and  C_7 
REMARK    5  A    between atoms: P_5  and  O_11 
REMARK    6  A    between atoms: C_7  and  C_8 
REMARK    7  A    between atoms: C_8  and  C_9 
REMARK    8  A    between atoms: C_9  and  N_10 
ROOT
HETATM    1  P   UNK N   1      35.605  15.602  10.665  0.00  0.00     0.098 P 
HETATM    2  O   UNK N   1      35.182  17.031  11.097  0.00  0.00    -0.674 OA
ENDROOT
BRANCH   1   3
HETATM    3  C   UNK N   1      35.141  14.435  12.052  0.00  0.00     0.094 C 
BRANCH   3   4
HETATM    4  C   UNK N   1      36.367  13.859  12.747  0.00  0.00     0.009 C 
BRANCH   4   5
HETATM    5  C   UNK N   1      36.497  14.428  14.149  0.00  0.00    -0.004 C 
HETATM    6  C   UNK N   1      36.818  13.314  15.124  0.00  0.00     0.005 C 
ENDBRANCH   4   5
ENDBRANCH   3   4
ENDBRANCH   1   3
BRANCH   1   7
HETATM    7  C   UNK N   1      35.011  15.404   8.915  0.00  0.00     0.095 C 
BRANCH   7   8
HETATM    8  C   UNK N   1      33.624  15.996   8.769  0.00  0.00     0.028 C 
BRANCH   8   9
HETATM    9  C   UNK N   1      32.594  14.909   9.003  0.00  0.00     0.111 C 
BRANCH   9  10
HETATM   10  N   UNK N   1      31.900  15.154  10.253  0.00  0.00    -0.430 N 
HETATM   11  H   UNK N   1      31.316  15.983  10.370  0.00  0.00     0.149 HD
HETATM   12  H   UNK N   1      31.998  14.493  11.023  0.00  0.00     0.149 HD
ENDBRANCH   9  10
ENDBRANCH   8   9
ENDBRANCH   7   8
ENDBRANCH   1   7
BRANCH   1  13
HETATM   13  O   UNK N   1      37.332  15.773  10.640  0.00  0.00    -0.349 OA
HETATM   14  H   UNK N   1      38.140  15.742  10.104  0.00  0.00     0.217 HD
ENDBRANCH   1  13
TORSDOF 8
ENDMDL
MODEL 9
REMARK VINA RESULT:      -3.9      1.580      4.484
REMARK  8 active torsions:
REMARK  status: ('A' for Active; 'I' for Inactive)
REMARK    1  A    between atoms: C_2  and  C_3 
REMARK    2  A    between atoms: C_3  and  C_4 
REMARK    3  A    between atoms: C_4  and  P_5 
REMARK    4  A    between atoms: P_5  and  C_7 
REMARK    5  A    between atoms: P_5  and  O_11 
REMARK    6  A    between atoms: C_7  and  C_8 
REMARK    7  A    between atoms: C_8  and  C_9 
REMARK    8  A    between atoms: C_9  and  N_10 
ROOT
HETATM    1  P   UNK N   1      34.116  17.849   8.019  0.00  0.00     0.098 P 
HETATM    2  O   UNK N   1      34.989  19.067   8.417  0.00  0.00    -0.674 OA
ENDROOT
BRANCH   1   3
HETATM    3  C   UNK N   1      34.936  16.318   8.716  0.00  0.00     0.094 C 
BRANCH   3   4
HETATM    4  C   UNK N   1      35.127  16.410  10.224  0.00  0.00     0.009 C 
BRANCH   4   5
HETATM    5  C   UNK N   1      35.527  15.059  10.790  0.00  0.00    -0.004 C 
HETATM    6  C   UNK N   1      35.887  15.206  12.255  0.00  0.00     0.005 C 
ENDBRANCH   4   5
ENDBRANCH   3   4
ENDBRANCH   1   3
BRANCH   1   7
HETATM    7  C   UNK N   1      32.362  18.336   8.397  0.00  0.00     0.095 C 
BRANCH   7   8
HETATM    8  C   UNK N   1      31.488  17.101   8.475  0.00  0.00     0.028 C 
BRANCH   8   9
HETATM    9  C   UNK N   1      30.064  17.520   8.782  0.00  0.00     0.111 C 
BRANCH   9  10
HETATM   10  N   UNK N   1      30.063  18.497   9.854  0.00  0.00    -0.430 N 
HETATM   11  H   UNK N   1      30.927  18.960  10.137  0.00  0.00     0.149 HD
HETATM   12  H   UNK N   1      29.189  18.724  10.330  0.00  0.00     0.149 HD
ENDBRANCH   9  10
ENDBRANCH   8   9
ENDBRANCH   7   8
ENDBRANCH   1   7
BRANCH   1  13
HETATM   13  O   UNK N   1      34.326  17.854   6.297  0.00  0.00    -0.349 OA
HETATM   14  H   UNK N   1      34.570  18.372   5.513  0.00  0.00     0.217 HD
ENDBRANCH   1  13
TORSDOF 8
ENDMDL
