MODEL 1
REMARK VINA RESULT:      -6.3      0.000      0.000
REMARK  4 active torsions:
REMARK  status: ('A' for Active; 'I' for Inactive)
REMARK    1  A    between atoms: N_3  and  C_7 
REMARK    2  A    between atoms: N_4  and  C_13 
REMARK    3  A    between atoms: N_5  and  C_17 
REMARK    4  A    between atoms: C_7  and  C_13 
ROOT
HETATM    1  O   UNK N   1      31.086  17.459   9.017  0.00  0.00    -0.267 OA
HETATM    2  O   UNK N   1      34.490  17.435   6.024  0.00  0.00    -0.267 OA
HETATM    3  N   UNK N   1      32.843  17.450   7.594  0.00  0.00    -0.278 N 
HETATM    4  C   UNK N   1      31.009  17.098   5.504  0.00  0.00     0.006 A 
HETATM    5  C   UNK N   1      30.558  17.196   6.829  0.00  0.00     0.046 A 
HETATM    6  C   UNK N   1      32.384  17.181   5.223  0.00  0.00     0.044 A 
HETATM    7  C   UNK N   1      31.485  17.374   7.863  0.00  0.00     0.261 A 
HETATM    8  C   UNK N   1      30.079  16.914   4.455  0.00  0.00    -0.022 A 
HETATM    9  C   UNK N   1      33.299  17.359   6.278  0.00  0.00     0.261 A 
HETATM   10  C   UNK N   1      29.183  17.110   7.099  0.00  0.00     0.047 A 
HETATM   11  C   UNK N   1      32.817  17.084   3.889  0.00  0.00     0.018 A 
HETATM   12  C   UNK N   1      28.714  16.828   4.741  0.00  0.00     0.041 A 
HETATM   13  C   UNK N   1      28.267  16.927   6.062  0.00  0.00     0.027 A 
HETATM   14  C   UNK N   1      30.527  16.817   3.137  0.00  0.00     0.012 A 
HETATM   15  C   UNK N   1      31.893  16.904   2.854  0.00  0.00     0.002 A 
ENDROOT
BRANCH   3  16
HETATM   16  C   UNK N   1      33.722  17.637   8.766  0.00  0.00     0.166 C 
BRANCH  16  17
HETATM   17  C   UNK N   1      34.580  16.459   9.229  0.00  0.00     0.291 C 
BRANCH  17  18
HETATM   18  N   UNK N   1      33.753  15.419   9.834  0.00  0.00     0.081 N 
HETATM   19  C   UNK N   1      33.727  14.245   8.971  0.00  0.00     0.309 C 
HETATM   20  C   UNK N   1      34.421  15.010  11.056  0.00  0.00     0.309 C 
ENDBRANCH  17  18
ENDBRANCH  16  17
ENDBRANCH   3  16
BRANCH  13  21
HETATM   21  N   UNK N   1      26.892  16.837   6.350  0.00  0.00    -0.399 N 
HETATM   22  H   UNK N   1      26.414  15.987   6.221  0.00  0.00     0.156 HD
HETATM   23  H   UNK N   1      26.407  17.628   6.682  0.00  0.00     0.156 HD
ENDBRANCH  13  21
TORSDOF 4
ENDMDL
MODEL 2
REMARK VINA RESULT:      -6.2      7.874     12.808
REMARK  4 active torsions:
REMARK  status: ('A' for Active; 'I' for Inactive)
REMARK    1  A    between atoms: N_3  and  C_7 
REMARK    2  A    between atoms: N_4  and  C_13 
REMARK    3  A    between atoms: N_5  and  C_17 
REMARK    4  A    between atoms: C_7  and  C_13 
ROOT
HETATM    1  O   UNK N   1      34.821  13.436  15.424  0.00  0.00    -0.267 OA
HETATM    2  O   UNK N   1      36.765   9.512  14.257  0.00  0.00    -0.267 OA
HETATM    3  N   UNK N   1      35.789  11.506  14.755  0.00  0.00    -0.278 N 
HETATM    4  C   UNK N   1      36.059  10.829  17.461  0.00  0.00     0.006 A 
HETATM    5  C   UNK N   1      35.468  12.047  17.094  0.00  0.00     0.046 A 
HETATM    6  C   UNK N   1      36.512   9.942  16.468  0.00  0.00     0.044 A 
HETATM    7  C   UNK N   1      35.337  12.372  15.738  0.00  0.00     0.261 A 
HETATM    8  C   UNK N   1      36.197  10.496  18.828  0.00  0.00    -0.022 A 
HETATM    9  C   UNK N   1      36.373  10.289  15.110  0.00  0.00     0.261 A 
HETATM   10  C   UNK N   1      35.019  12.926  18.092  0.00  0.00     0.047 A 
HETATM   11  C   UNK N   1      37.099   8.725  16.854  0.00  0.00     0.018 A 
HETATM   12  C   UNK N   1      35.747  11.382  19.810  0.00  0.00     0.041 A 
HETATM   13  C   UNK N   1      35.158  12.595  19.442  0.00  0.00     0.027 A 
HETATM   14  C   UNK N   1      36.784   9.284  19.192  0.00  0.00     0.012 A 
HETATM   15  C   UNK N   1      37.232   8.399  18.208  0.00  0.00     0.002 A 
ENDROOT
BRANCH   3  16
HETATM   16  C   UNK N   1      35.598  11.958  13.361  0.00  0.00     0.166 C 
BRANCH  16  17
HETATM   17  C   UNK N   1      36.775  12.615  12.640  0.00  0.00     0.291 C 
BRANCH  17  18
HETATM   18  N   UNK N   1      36.378  13.889  12.048  0.00  0.00     0.081 N 
HETATM   19  C   UNK N   1      36.899  13.986  10.690  0.00  0.00     0.309 C 
HETATM   20  C   UNK N   1      34.932  13.864  11.928  0.00  0.00     0.309 C 
ENDBRANCH  17  18
ENDBRANCH  16  17
ENDBRANCH   3  16
BRANCH  13  21
HETATM   21  N   UNK N   1      34.708  13.489  20.431  0.00  0.00    -0.399 N 
HETATM   22  H   UNK N   1      34.621  14.449  20.229  0.00  0.00     0.156 HD
HETATM   23  H   UNK N   1      34.478  13.154  21.329  0.00  0.00     0.156 HD
ENDBRANCH  13  21
TORSDOF 4
ENDMDL
MODEL 3
REMARK VINA RESULT:      -6.2      2.304      5.611
REMARK  4 active torsions:
REMARK  status: ('A' for Active; 'I' for Inactive)
REMARK    1  A    between atoms: N_3  and  C_7 
REMARK    2  A    between atoms: N_4  and  C_13 
REMARK    3  A    between atoms: N_5  and  C_17 
REMARK    4  A    between atoms: C_7  and  C_13 
ROOT
HETATM    1  O   UNK N   1      29.628  18.004   8.823  0.00  0.00    -0.267 OA
HETATM    2  O   UNK N   1      29.100  17.549   4.344  0.00  0.00    -0.267 OA
HETATM    3  N   UNK N   1      29.278  17.805   6.598  0.00  0.00    -0.278 N 
HETATM    4  C   UNK N   1      32.004  17.208   6.333  0.00  0.00     0.006 A 
HETATM    5  C   UNK N   1      31.460  17.477   7.598  0.00  0.00     0.046 A 
HETATM    6  C   UNK N   1      31.178  17.234   5.195  0.00  0.00     0.044 A 
HETATM    7  C   UNK N   1      30.097  17.771   7.716  0.00  0.00     0.261 A 
HETATM    8  C   UNK N   1      33.381  16.914   6.205  0.00  0.00    -0.022 A 
HETATM    9  C   UNK N   1      29.809  17.534   5.336  0.00  0.00     0.261 A 
HETATM   10  C   UNK N   1      32.293  17.449   8.728  0.00  0.00     0.047 A 
HETATM   11  C   UNK N   1      31.739  16.960   3.936  0.00  0.00     0.018 A 
HETATM   12  C   UNK N   1      34.197  16.893   7.339  0.00  0.00     0.041 A 
HETATM   13  C   UNK N   1      33.653  17.160   8.598  0.00  0.00     0.027 A 
HETATM   14  C   UNK N   1      33.921  16.647   4.946  0.00  0.00     0.012 A 
HETATM   15  C   UNK N   1      33.102  16.668   3.814  0.00  0.00     0.002 A 
ENDROOT
BRANCH   3  16
HETATM   16  C   UNK N   1      27.858  18.128   6.849  0.00  0.00     0.166 C 
BRANCH  16  17
HETATM   17  C   UNK N   1      27.472  19.591   7.071  0.00  0.00     0.291 C 
BRANCH  17  18
HETATM   18  N   UNK N   1      27.451  20.322   5.808  0.00  0.00     0.081 N 
HETATM   19  C   UNK N   1      26.382  19.810   4.960  0.00  0.00     0.309 C 
HETATM   20  C   UNK N   1      27.099  21.694   6.123  0.00  0.00     0.309 C 
ENDBRANCH  17  18
ENDBRANCH  16  17
ENDBRANCH   3  16
BRANCH  13  21
HETATM   21  N   UNK N   1      34.476  17.143   9.740  0.00  0.00    -0.399 N 
HETATM   22  H   UNK N   1      35.453  17.070   9.645  0.00  0.00     0.156 HD
HETATM   23  H   UNK N   1      34.074  17.204  10.637  0.00  0.00     0.156 HD
ENDBRANCH  13  21
TORSDOF 4
ENDMDL
MODEL 4
REMARK VINA RESULT:      -6.1      7.686     11.814
REMARK  4 active torsions:
REMARK  status: ('A' for Active; 'I' for Inactive)
REMARK    1  A    between atoms: N_3  and  C_7 
REMARK    2  A    between atoms: N_4  and  C_13 
REMARK    3  A    between atoms: N_5  and  C_17 
REMARK    4  A    between atoms: C_7  and  C_13 
ROOT
HETATM    1  O   UNK N   1      35.252  13.761  13.875  0.00  0.00    -0.267 OA
HETATM    2  O   UNK N   1      35.343   9.244  13.519  0.00  0.00    -0.267 OA
HETATM    3  N   UNK N   1      35.307  11.517  13.607  0.00  0.00    -0.278 N 
HETATM    4  C   UNK N   1      35.282  11.292  16.400  0.00  0.00     0.006 A 
HETATM    5  C   UNK N   1      35.260  12.557  15.794  0.00  0.00     0.046 A 
HETATM    6  C   UNK N   1      35.311  10.133  15.604  0.00  0.00     0.044 A 
HETATM    7  C   UNK N   1      35.271  12.655  14.398  0.00  0.00     0.261 A 
HETATM    8  C   UNK N   1      35.275  11.185  17.810  0.00  0.00    -0.022 A 
HETATM    9  C   UNK N   1      35.323  10.255  14.201  0.00  0.00     0.261 A 
HETATM   10  C   UNK N   1      35.232  13.708  16.598  0.00  0.00     0.047 A 
HETATM   11  C   UNK N   1      35.329   8.874  16.228  0.00  0.00     0.018 A 
HETATM   12  C   UNK N   1      35.249  12.341  18.596  0.00  0.00     0.041 A 
HETATM   13  C   UNK N   1      35.227  13.600  17.990  0.00  0.00     0.027 A 
HETATM   14  C   UNK N   1      35.296   9.927  18.413  0.00  0.00     0.012 A 
HETATM   15  C   UNK N   1      35.321   8.774  17.624  0.00  0.00     0.002 A 
ENDROOT
BRANCH   3  16
HETATM   16  C   UNK N   1      35.316  11.747  12.147  0.00  0.00     0.166 C 
BRANCH  16  17
HETATM   17  C   UNK N   1      36.654  11.694  11.410  0.00  0.00     0.291 C 
BRANCH  17  18
HETATM   18  N   UNK N   1      37.198  13.036  11.219  0.00  0.00     0.081 N 
HETATM   19  C   UNK N   1      38.434  12.962  10.450  0.00  0.00     0.309 C 
HETATM   20  C   UNK N   1      36.248  13.760  10.396  0.00  0.00     0.309 C 
ENDBRANCH  17  18
ENDBRANCH  16  17
ENDBRANCH   3  16
BRANCH  13  21
HETATM   21  N   UNK N   1      35.204  14.763  18.782  0.00  0.00    -0.399 N 
HETATM   22  H   UNK N   1      35.492  14.727  19.723  0.00  0.00     0.156 HD
HETATM   23  H   UNK N   1      34.900  15.616  18.394  0.00  0.00     0.156 HD
ENDBRANCH  13  21
TORSDOF 4
ENDMDL
MODEL 5
REMARK VINA RESULT:      -6.0     11.489     14.314
REMARK  4 active torsions:
REMARK  status: ('A' for Active; 'I' for Inactive)
REMARK    1  A    between atoms: N_3  and  C_7 
REMARK    2  A    between atoms: N_4  and  C_13 
REMARK    3  A    between atoms: N_5  and  C_17 
REMARK    4  A    between atoms: C_7  and  C_13 
ROOT
HETATM    1  O   UNK N   1      30.094  24.651  -2.818  0.00  0.00    -0.267 OA
HETATM    2  O   UNK N   1      27.532  23.931  -6.487  0.00  0.00    -0.267 OA
HETATM    3  N   UNK N   1      28.779  24.374  -4.636  0.00  0.00    -0.278 N 
HETATM    4  C   UNK N   1      30.140  21.973  -5.122  0.00  0.00     0.006 A 
HETATM    5  C   UNK N   1      30.481  22.767  -4.016  0.00  0.00     0.046 A 
HETATM    6  C   UNK N   1      29.108  22.381  -5.986  0.00  0.00     0.044 A 
HETATM    7  C   UNK N   1      29.792  23.963  -3.784  0.00  0.00     0.261 A 
HETATM    8  C   UNK N   1      30.834  20.766  -5.365  0.00  0.00    -0.022 A 
HETATM    9  C   UNK N   1      28.428  23.588  -5.735  0.00  0.00     0.261 A 
HETATM   10  C   UNK N   1      31.514  22.351  -3.161  0.00  0.00     0.047 A 
HETATM   11  C   UNK N   1      28.777  21.572  -7.086  0.00  0.00     0.018 A 
HETATM   12  C   UNK N   1      31.861  20.367  -4.505  0.00  0.00     0.041 A 
HETATM   13  C   UNK N   1      32.199  21.159  -3.404  0.00  0.00     0.027 A 
HETATM   14  C   UNK N   1      30.494  19.977  -6.464  0.00  0.00     0.012 A 
HETATM   15  C   UNK N   1      29.466  20.377  -7.322  0.00  0.00     0.002 A 
ENDROOT
BRANCH   3  16
HETATM   16  C   UNK N   1      28.126  25.654  -4.289  0.00  0.00     0.166 C 
BRANCH  16  17
HETATM   17  C   UNK N   1      26.789  25.612  -3.548  0.00  0.00     0.291 C 
BRANCH  17  18
HETATM   18  N   UNK N   1      26.035  26.843  -3.766  0.00  0.00     0.081 N 
HETATM   19  C   UNK N   1      26.759  27.973  -3.197  0.00  0.00     0.309 C 
HETATM   20  C   UNK N   1      25.997  27.064  -5.199  0.00  0.00     0.309 C 
ENDBRANCH  17  18
ENDBRANCH  16  17
ENDBRANCH   3  16
BRANCH  13  21
HETATM   21  N   UNK N   1      33.235  20.759  -2.539  0.00  0.00    -0.399 N 
HETATM   22  H   UNK N   1      33.078  20.706  -1.569  0.00  0.00     0.156 HD
HETATM   23  H   UNK N   1      34.121  20.530  -2.906  0.00  0.00     0.156 HD
ENDBRANCH  13  21
TORSDOF 4
ENDMDL
MODEL 6
REMARK VINA RESULT:      -6.0      8.970     11.350
REMARK  4 active torsions:
REMARK  status: ('A' for Active; 'I' for Inactive)
REMARK    1  A    between atoms: N_3  and  C_7 
REMARK    2  A    between atoms: N_4  and  C_13 
REMARK    3  A    between atoms: N_5  and  C_17 
REMARK    4  A    between atoms: C_7  and  C_13 
ROOT
HETATM    1  O   UNK N   1      19.437  15.581   8.662  0.00  0.00    -0.267 OA
HETATM    2  O   UNK N   1      23.103  15.760   6.002  0.00  0.00    -0.267 OA
HETATM    3  N   UNK N   1      21.231  15.745   7.295  0.00  0.00    -0.278 N 
HETATM    4  C   UNK N   1      22.376  13.622   8.723  0.00  0.00     0.006 A 
HETATM    5  C   UNK N   1      21.107  14.105   9.074  0.00  0.00     0.046 A 
HETATM    6  C   UNK N   1      23.074  14.202   7.648  0.00  0.00     0.044 A 
HETATM    7  C   UNK N   1      20.545  15.164   8.351  0.00  0.00     0.261 A 
HETATM    8  C   UNK N   1      22.952  12.555   9.451  0.00  0.00    -0.022 A 
HETATM    9  C   UNK N   1      22.492  15.268   6.936  0.00  0.00     0.261 A 
HETATM   10  C   UNK N   1      20.418  13.520  10.149  0.00  0.00     0.047 A 
HETATM   11  C   UNK N   1      24.344  13.703   7.309  0.00  0.00     0.018 A 
HETATM   12  C   UNK N   1      22.254  11.986  10.519  0.00  0.00     0.041 A 
HETATM   13  C   UNK N   1      20.989  12.468  10.867  0.00  0.00     0.027 A 
HETATM   14  C   UNK N   1      24.214  12.075   9.101  0.00  0.00     0.012 A 
HETATM   15  C   UNK N   1      24.908  12.646   8.031  0.00  0.00     0.002 A 
ENDROOT
BRANCH   3  16
HETATM   16  C   UNK N   1      20.538  16.855   6.610  0.00  0.00     0.166 C 
BRANCH  16  17
HETATM   17  C   UNK N   1      21.321  18.136   6.322  0.00  0.00     0.291 C 
BRANCH  17  18
HETATM   18  N   UNK N   1      21.159  18.544   4.929  0.00  0.00     0.081 N 
HETATM   19  C   UNK N   1      22.467  18.710   4.308  0.00  0.00     0.309 C 
HETATM   20  C   UNK N   1      20.519  17.438   4.240  0.00  0.00     0.309 C 
ENDBRANCH  17  18
ENDBRANCH  16  17
ENDBRANCH   3  16
BRANCH  13  21
HETATM   21  N   UNK N   1      20.288  11.896  11.946  0.00  0.00    -0.399 N 
HETATM   22  H   UNK N   1      20.352  10.930  12.120  0.00  0.00     0.156 HD
HETATM   23  H   UNK N   1      19.734  12.464  12.528  0.00  0.00     0.156 HD
ENDBRANCH  13  21
TORSDOF 4
ENDMDL
MODEL 7
REMARK VINA RESULT:      -5.9      2.681      5.838
REMARK  4 active torsions:
REMARK  status: ('A' for Active; 'I' for Inactive)
REMARK    1  A    between atoms: N_3  and  C_7 
REMARK    2  A    between atoms: N_4  and  C_13 
REMARK    3  A    between atoms: N_5  and  C_17 
REMARK    4  A    between atoms: C_7  and  C_13 
ROOT
HETATM    1  O   UNK N   1      27.731  17.234   5.707  0.00  0.00    -0.267 OA
HETATM    2  O   UNK N   1      31.186  16.510   2.864  0.00  0.00    -0.267 OA
HETATM    3  N   UNK N   1      29.395  16.867   4.220  0.00  0.00    -0.278 N 
HETATM    4  C   UNK N   1      31.212  17.322   6.304  0.00  0.00     0.006 A 
HETATM    5  C   UNK N   1      29.831  17.398   6.543  0.00  0.00     0.046 A 
HETATM    6  C   UNK N   1      31.685  17.012   5.017  0.00  0.00     0.044 A 
HETATM    7  C   UNK N   1      28.935  17.167   5.493  0.00  0.00     0.261 A 
HETATM    8  C   UNK N   1      32.124  17.559   7.359  0.00  0.00    -0.022 A 
HETATM    9  C   UNK N   1      30.766  16.784   3.975  0.00  0.00     0.261 A 
HETATM   10  C   UNK N   1      29.369  17.710   7.831  0.00  0.00     0.047 A 
HETATM   11  C   UNK N   1      33.071  16.936   4.798  0.00  0.00     0.018 A 
HETATM   12  C   UNK N   1      31.647  17.870   8.635  0.00  0.00     0.041 A 
HETATM   13  C   UNK N   1      30.271  17.945   8.870  0.00  0.00     0.027 A 
HETATM   14  C   UNK N   1      33.496  17.482   7.122  0.00  0.00     0.012 A 
HETATM   15  C   UNK N   1      33.970  17.170   5.845  0.00  0.00     0.002 A 
ENDROOT
BRANCH   3  16
HETATM   16  C   UNK N   1      28.354  16.644   3.195  0.00  0.00     0.166 C 
BRANCH  16  17
HETATM   17  C   UNK N   1      27.990  15.206   2.826  0.00  0.00     0.291 C 
BRANCH  17  18
HETATM   18  N   UNK N   1      26.756  15.164   2.047  0.00  0.00     0.081 N 
HETATM   19  C   UNK N   1      26.134  13.853   2.178  0.00  0.00     0.309 C 
HETATM   20  C   UNK N   1      25.842  16.111   2.658  0.00  0.00     0.309 C 
ENDBRANCH  17  18
ENDBRANCH  16  17
ENDBRANCH   3  16
BRANCH  13  21
HETATM   21  N   UNK N   1      29.792  18.262  10.155  0.00  0.00    -0.399 N 
HETATM   22  H   UNK N   1      29.512  17.546  10.770  0.00  0.00     0.156 HD
HETATM   23  H   UNK N   1      29.736  19.203  10.441  0.00  0.00     0.156 HD
ENDBRANCH  13  21
TORSDOF 4
ENDMDL
MODEL 8
REMARK VINA RESULT:      -5.9      8.776     10.484
REMARK  4 active torsions:
REMARK  status: ('A' for Active; 'I' for Inactive)
REMARK    1  A    between atoms: N_3  and  C_7 
REMARK    2  A    between atoms: N_4  and  C_13 
REMARK    3  A    between atoms: N_5  and  C_17 
REMARK    4  A    between atoms: C_7  and  C_13 
ROOT
HETATM    1  O   UNK N   1      20.332  13.338   9.468  0.00  0.00    -0.267 OA
HETATM    2  O   UNK N   1      23.613  13.493   6.344  0.00  0.00    -0.267 OA
HETATM    3  N   UNK N   1      21.982  13.326   7.922  0.00  0.00    -0.278 N 
HETATM    4  C   UNK N   1      21.349  16.002   7.383  0.00  0.00     0.006 A 
HETATM    5  C   UNK N   1      20.632  15.290   8.357  0.00  0.00     0.046 A 
HETATM    6  C   UNK N   1      22.391  15.373   6.679  0.00  0.00     0.044 A 
HETATM    7  C   UNK N   1      20.961  13.954   8.618  0.00  0.00     0.261 A 
HETATM    8  C   UNK N   1      21.020  17.350   7.111  0.00  0.00    -0.022 A 
HETATM    9  C   UNK N   1      22.704  14.028   6.956  0.00  0.00     0.261 A 
HETATM   10  C   UNK N   1      19.593  15.927   9.053  0.00  0.00     0.047 A 
HETATM   11  C   UNK N   1      23.100  16.103   5.710  0.00  0.00     0.018 A 
HETATM   12  C   UNK N   1      19.981  17.969   7.811  0.00  0.00     0.041 A 
HETATM   13  C   UNK N   1      19.269  17.257   8.781  0.00  0.00     0.027 A 
HETATM   14  C   UNK N   1      21.733  18.058   6.143  0.00  0.00     0.012 A 
HETATM   15  C   UNK N   1      22.773  17.437   5.445  0.00  0.00     0.002 A 
ENDROOT
BRANCH   3  16
HETATM   16  C   UNK N   1      22.235  11.916   8.285  0.00  0.00     0.166 C 
BRANCH  16  17
HETATM   17  C   UNK N   1      23.472  11.589   9.122  0.00  0.00     0.291 C 
BRANCH  17  18
HETATM   18  N   UNK N   1      23.685  12.600  10.153  0.00  0.00     0.081 N 
HETATM   19  C   UNK N   1      23.675  11.973  11.469  0.00  0.00     0.309 C 
HETATM   20  C   UNK N   1      25.025  13.120   9.960  0.00  0.00     0.309 C 
ENDBRANCH  17  18
ENDBRANCH  16  17
ENDBRANCH   3  16
BRANCH  13  21
HETATM   21  N   UNK N   1      18.220  17.880   9.484  0.00  0.00    -0.399 N 
HETATM   22  H   UNK N   1      18.337  18.129  10.429  0.00  0.00     0.156 HD
HETATM   23  H   UNK N   1      17.367  18.068   9.029  0.00  0.00     0.156 HD
ENDBRANCH  13  21
TORSDOF 4
ENDMDL
MODEL 9
REMARK VINA RESULT:      -5.9      7.838     12.742
REMARK  4 active torsions:
REMARK  status: ('A' for Active; 'I' for Inactive)
REMARK    1  A    between atoms: N_3  and  C_7 
REMARK    2  A    between atoms: N_4  and  C_13 
REMARK    3  A    between atoms: N_5  and  C_17 
REMARK    4  A    between atoms: C_7  and  C_13 
ROOT
HETATM    1  O   UNK N   1      36.485   9.402  14.217  0.00  0.00    -0.267 OA
HETATM    2  O   UNK N   1      35.162  13.698  14.798  0.00  0.00    -0.267 OA
HETATM    3  N   UNK N   1      35.818  11.553  14.416  0.00  0.00    -0.278 N 
HETATM    4  C   UNK N   1      35.786  11.173  17.192  0.00  0.00     0.006 A 
HETATM    5  C   UNK N   1      36.151  10.120  16.340  0.00  0.00     0.046 A 
HETATM    6  C   UNK N   1      35.440  12.425  16.652  0.00  0.00     0.044 A 
HETATM    7  C   UNK N   1      36.165  10.324  14.955  0.00  0.00     0.261 A 
HETATM    8  C   UNK N   1      35.765  10.973  18.592  0.00  0.00    -0.022 A 
HETATM    9  C   UNK N   1      35.459  12.608  15.256  0.00  0.00     0.261 A 
HETATM   10  C   UNK N   1      36.495   8.875  16.889  0.00  0.00     0.047 A 
HETATM   11  C   UNK N   1      35.079  13.469  17.521  0.00  0.00     0.018 A 
HETATM   12  C   UNK N   1      36.108   9.727  19.123  0.00  0.00     0.041 A 
HETATM   13  C   UNK N   1      36.472   8.679  18.272  0.00  0.00     0.027 A 
HETATM   14  C   UNK N   1      35.403  12.021  19.439  0.00  0.00     0.012 A 
HETATM   15  C   UNK N   1      35.062  13.267  18.905  0.00  0.00     0.002 A 
ENDROOT
BRANCH   3  16
HETATM   16  C   UNK N   1      35.869  11.647  12.942  0.00  0.00     0.166 C 
BRANCH  16  17
HETATM   17  C   UNK N   1      37.108  12.265  12.294  0.00  0.00     0.291 C 
BRANCH  17  18
HETATM   18  N   UNK N   1      36.780  13.531  11.644  0.00  0.00     0.081 N 
HETATM   19  C   UNK N   1      37.529  13.657  10.401  0.00  0.00     0.309 C 
HETATM   20  C   UNK N   1      35.380  13.460  11.270  0.00  0.00     0.309 C 
ENDBRANCH  17  18
ENDBRANCH  16  17
ENDBRANCH   3  16
BRANCH  13  21
HETATM   21  N   UNK N   1      36.813   7.423  18.806  0.00  0.00    -0.399 N 
HETATM   22  H   UNK N   1      37.746   7.110  18.780  0.00  0.00     0.156 HD
HETATM   23  H   UNK N   1      36.117   6.854  19.209  0.00  0.00     0.156 HD
ENDBRANCH  13  21
TORSDOF 4
ENDMDL
