MODEL 1
REMARK VINA RESULT:      -5.0      0.000      0.000
REMARK  5 active torsions:
REMARK  status: ('A' for Active; 'I' for Inactive)
REMARK    1  A    between atoms: C_3  and  C_2 
REMARK    2  A    between atoms: O_8  and  C_2 
REMARK    3  A    between atoms: C_4  and  O_9 
REMARK    4  A    between atoms: C_5  and  O_10 
REMARK    5  A    between atoms: C_6  and  O_11 
ROOT
HETATM    1  C   UNK N   1      33.663  15.885   7.101  0.00  0.00     0.148 C 
HETATM    2  C   UNK N   1      34.448  15.574   9.357  0.00  0.00     0.131 C 
HETATM    3  C   UNK N   1      33.737  17.407   7.218  0.00  0.00     0.166 C 
HETATM    4  C   UNK N   1      34.585  17.098   9.555  0.00  0.00     0.173 C 
HETATM    5  C   UNK N   1      34.851  17.776   8.203  0.00  0.00     0.179 C 
HETATM    6  N   UNK N   1      33.366  15.287   8.405  0.00  0.00    -0.410 N 
HETATM    7  H   UNK N   1      32.528  14.748   8.621  0.00  0.00     0.153 HD
ENDROOT
BRANCH   2   8
HETATM    8  C   UNK N   1      34.123  14.910  10.692  0.00  0.00     0.191 C 
BRANCH   8   9
HETATM    9  O   UNK N   1      32.766  15.040  10.988  0.00  0.00    -0.399 OA
HETATM   10  H   UNK N   1      32.208  14.386  11.436  0.00  0.00     0.209 HD
ENDBRANCH   8   9
ENDBRANCH   2   8
BRANCH   4  11
HETATM   11  O   UNK N   1      35.632  17.380  10.437  0.00  0.00    -0.391 OA
HETATM   12  H   UNK N   1      35.839  18.289  10.705  0.00  0.00     0.210 HD
ENDBRANCH   4  11
BRANCH   5  13
HETATM   13  O   UNK N   1      34.904  19.162   8.365  0.00  0.00    -0.390 OA
HETATM   14  H   UNK N   1      35.678  19.744   8.298  0.00  0.00     0.210 HD
ENDBRANCH   5  13
BRANCH   3  15
HETATM   15  O   UNK N   1      34.001  17.957   5.964  0.00  0.00    -0.391 OA
HETATM   16  H   UNK N   1      34.518  17.517   5.270  0.00  0.00     0.210 HD
ENDBRANCH   3  15
TORSDOF 5
ENDMDL
MODEL 2
REMARK VINA RESULT:      -4.9      1.817      4.430
REMARK  5 active torsions:
REMARK  status: ('A' for Active; 'I' for Inactive)
REMARK    1  A    between atoms: C_3  and  C_2 
REMARK    2  A    between atoms: O_8  and  C_2 
REMARK    3  A    between atoms: C_4  and  O_9 
REMARK    4  A    between atoms: C_5  and  O_10 
REMARK    5  A    between atoms: C_6  and  O_11 
ROOT
HETATM    1  C   UNK N   1      35.238  16.048  11.112  0.00  0.00     0.148 C 
HETATM    2  C   UNK N   1      34.716  16.988   8.956  0.00  0.00     0.131 C 
HETATM    3  C   UNK N   1      34.049  15.091  11.053  0.00  0.00     0.166 C 
HETATM    4  C   UNK N   1      33.513  16.035   8.795  0.00  0.00     0.173 C 
HETATM    5  C   UNK N   1      33.763  14.744   9.587  0.00  0.00     0.179 C 
HETATM    6  N   UNK N   1      34.938  17.280  10.379  0.00  0.00    -0.410 N 
HETATM    7  H   UNK N   1      34.889  18.209  10.797  0.00  0.00     0.153 HD
ENDROOT
BRANCH   2   8
HETATM    8  C   UNK N   1      34.439  18.294   8.219  0.00  0.00     0.191 C 
BRANCH   8   9
HETATM    9  O   UNK N   1      35.395  19.256   8.547  0.00  0.00    -0.399 OA
HETATM   10  H   UNK N   1      35.707  19.977   7.978  0.00  0.00     0.209 HD
ENDBRANCH   8   9
ENDBRANCH   2   8
BRANCH   4  11
HETATM   11  O   UNK N   1      33.315  15.729   7.445  0.00  0.00    -0.391 OA
HETATM   12  H   UNK N   1      33.732  16.251   6.741  0.00  0.00     0.210 HD
ENDBRANCH   4  11
BRANCH   5  13
HETATM   13  O   UNK N   1      32.647  13.908   9.505  0.00  0.00    -0.390 OA
HETATM   14  H   UNK N   1      32.616  12.941   9.576  0.00  0.00     0.210 HD
ENDBRANCH   5  13
BRANCH   3  15
HETATM   15  O   UNK N   1      34.348  13.933  11.771  0.00  0.00    -0.391 OA
HETATM   16  H   UNK N   1      34.054  13.762  12.681  0.00  0.00     0.210 HD
ENDBRANCH   3  15
TORSDOF 5
ENDMDL
MODEL 3
REMARK VINA RESULT:      -4.8     12.204     12.673
REMARK  5 active torsions:
REMARK  status: ('A' for Active; 'I' for Inactive)
REMARK    1  A    between atoms: C_3  and  C_2 
REMARK    2  A    between atoms: O_8  and  C_2 
REMARK    3  A    between atoms: C_4  and  O_9 
REMARK    4  A    between atoms: C_5  and  O_10 
REMARK    5  A    between atoms: C_6  and  O_11 
ROOT
HETATM    1  C   UNK N   1      42.680  21.653   1.559  0.00  0.00     0.148 C 
HETATM    2  C   UNK N   1      44.666  20.836   2.651  0.00  0.00     0.131 C 
HETATM    3  C   UNK N   1      42.429  22.690   2.654  0.00  0.00     0.166 C 
HETATM    4  C   UNK N   1      44.511  21.873   3.784  0.00  0.00     0.173 C 
HETATM    5  C   UNK N   1      43.773  23.112   3.256  0.00  0.00     0.179 C 
HETATM    6  N   UNK N   1      43.346  20.474   2.118  0.00  0.00    -0.410 N 
HETATM    7  H   UNK N   1      42.950  19.534   2.134  0.00  0.00     0.153 HD
ENDROOT
BRANCH   2   8
HETATM    8  C   UNK N   1      45.344  19.582   3.194  0.00  0.00     0.191 C 
BRANCH   8   9
HETATM    9  O   UNK N   1      46.696  19.823   3.444  0.00  0.00    -0.399 OA
HETATM   10  H   UNK N   1      47.439  19.594   2.865  0.00  0.00     0.209 HD
ENDBRANCH   8   9
ENDBRANCH   2   8
BRANCH   4  11
HETATM   11  O   UNK N   1      45.765  22.245   4.275  0.00  0.00    -0.391 OA
HETATM   12  H   UNK N   1      46.578  22.071   3.774  0.00  0.00     0.210 HD
ENDBRANCH   4  11
BRANCH   5  13
HETATM   13  O   UNK N   1      43.565  24.024   4.293  0.00  0.00    -0.390 OA
HETATM   14  H   UNK N   1      43.296  24.954   4.228  0.00  0.00     0.210 HD
ENDBRANCH   5  13
BRANCH   3  15
HETATM   15  O   UNK N   1      41.778  23.795   2.106  0.00  0.00    -0.391 OA
HETATM   16  H   UNK N   1      41.835  24.696   2.463  0.00  0.00     0.210 HD
ENDBRANCH   3  15
TORSDOF 5
ENDMDL
MODEL 4
REMARK VINA RESULT:      -4.8     14.043     15.148
REMARK  5 active torsions:
REMARK  status: ('A' for Active; 'I' for Inactive)
REMARK    1  A    between atoms: C_3  and  C_2 
REMARK    2  A    between atoms: O_8  and  C_2 
REMARK    3  A    between atoms: C_4  and  O_9 
REMARK    4  A    between atoms: C_5  and  O_10 
REMARK    5  A    between atoms: C_6  and  O_11 
ROOT
HETATM    1  C   UNK N   1      22.332  19.422   3.823  0.00  0.00     0.148 C 
HETATM    2  C   UNK N   1      20.395  17.993   3.711  0.00  0.00     0.131 C 
HETATM    3  C   UNK N   1      21.917  20.188   2.567  0.00  0.00     0.166 C 
HETATM    4  C   UNK N   1      19.881  18.731   2.457  0.00  0.00     0.173 C 
HETATM    5  C   UNK N   1      20.388  20.181   2.464  0.00  0.00     0.179 C 
HETATM    6  N   UNK N   1      21.863  18.036   3.752  0.00  0.00    -0.410 N 
HETATM    7  H   UNK N   1      22.470  17.217   3.735  0.00  0.00     0.153 HD
ENDROOT
BRANCH   2   8
HETATM    8  C   UNK N   1      19.942  16.537   3.671  0.00  0.00     0.191 C 
BRANCH   8   9
HETATM    9  O   UNK N   1      18.734  16.380   4.351  0.00  0.00    -0.399 OA
HETATM   10  H   UNK N   1      18.332  17.011   4.968  0.00  0.00     0.209 HD
ENDBRANCH   8   9
ENDBRANCH   2   8
BRANCH   4  11
HETATM   11  O   UNK N   1      18.484  18.720   2.428  0.00  0.00    -0.391 OA
HETATM   12  H   UNK N   1      17.991  17.973   2.053  0.00  0.00     0.210 HD
ENDBRANCH   4  11
BRANCH   5  13
HETATM   13  O   UNK N   1      19.987  20.833   1.295  0.00  0.00    -0.390 OA
HETATM   14  H   UNK N   1      20.202  21.735   1.009  0.00  0.00     0.210 HD
ENDBRANCH   5  13
BRANCH   3  15
HETATM   15  O   UNK N   1      22.388  21.499   2.646  0.00  0.00    -0.391 OA
HETATM   16  H   UNK N   1      23.309  21.740   2.835  0.00  0.00     0.210 HD
ENDBRANCH   3  15
TORSDOF 5
ENDMDL
MODEL 5
REMARK VINA RESULT:      -4.7      2.904      5.431
REMARK  5 active torsions:
REMARK  status: ('A' for Active; 'I' for Inactive)
REMARK    1  A    between atoms: C_3  and  C_2 
REMARK    2  A    between atoms: O_8  and  C_2 
REMARK    3  A    between atoms: C_4  and  O_9 
REMARK    4  A    between atoms: C_5  and  O_10 
REMARK    5  A    between atoms: C_6  and  O_11 
ROOT
HETATM    1  C   UNK N   1      37.303  13.525  10.887  0.00  0.00     0.148 C 
HETATM    2  C   UNK N   1      35.542  15.022  10.207  0.00  0.00     0.131 C 
HETATM    3  C   UNK N   1      36.604  13.200  12.206  0.00  0.00     0.166 C 
HETATM    4  C   UNK N   1      34.749  14.728  11.498  0.00  0.00     0.173 C 
HETATM    5  C   UNK N   1      35.089  13.320  12.008  0.00  0.00     0.179 C 
HETATM    6  N   UNK N   1      36.983  14.891  10.463  0.00  0.00    -0.410 N 
HETATM    7  H   UNK N   1      37.663  15.643  10.360  0.00  0.00     0.153 HD
ENDROOT
BRANCH   2   8
HETATM    8  C   UNK N   1      35.249  16.443   9.737  0.00  0.00     0.191 C 
BRANCH   8   9
HETATM    9  O   UNK N   1      35.013  17.282  10.826  0.00  0.00    -0.399 OA
HETATM   10  H   UNK N   1      35.613  17.444  11.571  0.00  0.00     0.209 HD
ENDBRANCH   8   9
ENDBRANCH   2   8
BRANCH   4  11
HETATM   11  O   UNK N   1      33.375  14.822  11.254  0.00  0.00    -0.391 OA
HETATM   12  H   UNK N   1      33.026  14.905  10.353  0.00  0.00     0.210 HD
ENDBRANCH   4  11
BRANCH   5  13
HETATM   13  O   UNK N   1      34.429  13.076  13.215  0.00  0.00    -0.390 OA
HETATM   14  H   UNK N   1      33.649  12.521  13.369  0.00  0.00     0.210 HD
ENDBRANCH   5  13
BRANCH   3  15
HETATM   15  O   UNK N   1      36.936  11.905  12.602  0.00  0.00    -0.391 OA
HETATM   16  H   UNK N   1      37.712  11.416  12.282  0.00  0.00     0.210 HD
ENDBRANCH   3  15
TORSDOF 5
ENDMDL
MODEL 6
REMARK VINA RESULT:      -4.7     14.055     15.485
REMARK  5 active torsions:
REMARK  status: ('A' for Active; 'I' for Inactive)
REMARK    1  A    between atoms: C_3  and  C_2 
REMARK    2  A    between atoms: O_8  and  C_2 
REMARK    3  A    between atoms: C_4  and  O_9 
REMARK    4  A    between atoms: C_5  and  O_10 
REMARK    5  A    between atoms: C_6  and  O_11 
ROOT
HETATM    1  C   UNK N   1      22.220  18.339   4.148  0.00  0.00     0.148 C 
HETATM    2  C   UNK N   1      21.001  19.154   2.237  0.00  0.00     0.131 C 
HETATM    3  C   UNK N   1      20.966  17.719   4.763  0.00  0.00     0.166 C 
HETATM    4  C   UNK N   1      19.691  18.531   2.765  0.00  0.00     0.173 C 
HETATM    5  C   UNK N   1      20.012  17.308   3.636  0.00  0.00     0.179 C 
HETATM    6  N   UNK N   1      21.869  19.525   3.362  0.00  0.00    -0.410 N 
HETATM    7  H   UNK N   1      22.184  20.473   3.567  0.00  0.00     0.153 HD
ENDROOT
BRANCH   2   8
HETATM    8  C   UNK N   1      20.683  20.403   1.422  0.00  0.00     0.191 C 
BRANCH   8   9
HETATM    9  O   UNK N   1      20.594  20.095   0.064  0.00  0.00    -0.399 OA
HETATM   10  H   UNK N   1      20.170  19.314  -0.324  0.00  0.00     0.209 HD
ENDBRANCH   8   9
ENDBRANCH   2   8
BRANCH   4  11
HETATM   11  O   UNK N   1      18.873  18.148   1.698  0.00  0.00    -0.391 OA
HETATM   12  H   UNK N   1      18.997  17.299   1.244  0.00  0.00     0.210 HD
ENDBRANCH   4  11
BRANCH   5  13
HETATM   13  O   UNK N   1      18.836  16.783   4.176  0.00  0.00    -0.390 OA
HETATM   14  H   UNK N   1      18.042  17.262   4.462  0.00  0.00     0.210 HD
ENDBRANCH   5  13
BRANCH   3  15
HETATM   15  O   UNK N   1      21.323  16.604   5.522  0.00  0.00    -0.391 OA
HETATM   16  H   UNK N   1      20.708  16.103   6.082  0.00  0.00     0.210 HD
ENDBRANCH   3  15
TORSDOF 5
ENDMDL
MODEL 7
REMARK VINA RESULT:      -4.6      1.094      3.682
REMARK  5 active torsions:
REMARK  status: ('A' for Active; 'I' for Inactive)
REMARK    1  A    between atoms: C_3  and  C_2 
REMARK    2  A    between atoms: O_8  and  C_2 
REMARK    3  A    between atoms: C_4  and  O_9 
REMARK    4  A    between atoms: C_5  and  O_10 
REMARK    5  A    between atoms: C_6  and  O_11 
ROOT
HETATM    1  C   UNK N   1      32.855  15.194   9.789  0.00  0.00     0.148 C 
HETATM    2  C   UNK N   1      33.327  17.171   8.495  0.00  0.00     0.131 C 
HETATM    3  C   UNK N   1      34.290  15.115  10.309  0.00  0.00     0.166 C 
HETATM    4  C   UNK N   1      34.787  17.190   8.995  0.00  0.00     0.173 C 
HETATM    5  C   UNK N   1      34.872  16.531  10.380  0.00  0.00     0.179 C 
HETATM    6  N   UNK N   1      32.830  15.789   8.451  0.00  0.00    -0.410 N 
HETATM    7  H   UNK N   1      32.512  15.312   7.607  0.00  0.00     0.153 HD
ENDROOT
BRANCH   2   8
HETATM    8  C   UNK N   1      33.257  17.770   7.095  0.00  0.00     0.191 C 
BRANCH   8   9
HETATM    9  O   UNK N   1      34.506  17.720   6.475  0.00  0.00    -0.399 OA
HETATM   10  H   UNK N   1      34.703  17.341   5.604  0.00  0.00     0.209 HD
ENDBRANCH   8   9
ENDBRANCH   2   8
BRANCH   4  11
HETATM   11  O   UNK N   1      35.257  18.504   9.069  0.00  0.00    -0.391 OA
HETATM   12  H   UNK N   1      35.443  18.929   9.921  0.00  0.00     0.210 HD
ENDBRANCH   4  11
BRANCH   5  13
HETATM   13  O   UNK N   1      36.201  16.480  10.805  0.00  0.00    -0.390 OA
HETATM   14  H   UNK N   1      36.565  16.018  11.577  0.00  0.00     0.210 HD
ENDBRANCH   5  13
BRANCH   3  15
HETATM   15  O   UNK N   1      34.294  14.529  11.575  0.00  0.00    -0.391 OA
HETATM   16  H   UNK N   1      34.113  15.007  12.400  0.00  0.00     0.210 HD
ENDBRANCH   3  15
TORSDOF 5
ENDMDL
MODEL 8
REMARK VINA RESULT:      -4.4     12.178     12.824
REMARK  5 active torsions:
REMARK  status: ('A' for Active; 'I' for Inactive)
REMARK    1  A    between atoms: C_3  and  C_2 
REMARK    2  A    between atoms: O_8  and  C_2 
REMARK    3  A    between atoms: C_4  and  O_9 
REMARK    4  A    between atoms: C_5  and  O_10 
REMARK    5  A    between atoms: C_6  and  O_11 
ROOT
HETATM    1  C   UNK N   1      43.455  20.089   2.354  0.00  0.00     0.148 C 
HETATM    2  C   UNK N   1      42.428  22.253   2.605  0.00  0.00     0.131 C 
HETATM    3  C   UNK N   1      44.813  20.609   2.824  0.00  0.00     0.166 C 
HETATM    4  C   UNK N   1      43.750  22.858   3.122  0.00  0.00     0.173 C 
HETATM    5  C   UNK N   1      44.590  21.767   3.803  0.00  0.00     0.179 C 
HETATM    6  N   UNK N   1      42.710  21.152   1.675  0.00  0.00    -0.410 N 
HETATM    7  H   UNK N   1      42.427  21.129   0.696  0.00  0.00     0.153 HD
ENDROOT
BRANCH   2   8
HETATM    8  C   UNK N   1      41.624  23.325   1.876  0.00  0.00     0.191 C 
BRANCH   8   9
HETATM    9  O   UNK N   1      42.475  24.249   1.268  0.00  0.00    -0.399 OA
HETATM   10  H   UNK N   1      42.248  24.852   0.543  0.00  0.00     0.209 HD
ENDBRANCH   8   9
ENDBRANCH   2   8
BRANCH   4  11
HETATM   11  O   UNK N   1      43.489  23.887   4.031  0.00  0.00    -0.391 OA
HETATM   12  H   UNK N   1      42.632  23.962   4.479  0.00  0.00     0.210 HD
ENDBRANCH   4  11
BRANCH   5  13
HETATM   13  O   UNK N   1      45.819  22.292   4.208  0.00  0.00    -0.390 OA
HETATM   14  H   UNK N   1      46.050  23.220   4.368  0.00  0.00     0.210 HD
ENDBRANCH   5  13
BRANCH   3  15
HETATM   15  O   UNK N   1      45.514  19.578   3.451  0.00  0.00    -0.391 OA
HETATM   16  H   UNK N   1      45.742  19.565   4.394  0.00  0.00     0.210 HD
ENDBRANCH   3  15
TORSDOF 5
ENDMDL
MODEL 9
REMARK VINA RESULT:      -4.4      4.750      5.321
REMARK  5 active torsions:
REMARK  status: ('A' for Active; 'I' for Inactive)
REMARK    1  A    between atoms: C_3  and  C_2 
REMARK    2  A    between atoms: O_8  and  C_2 
REMARK    3  A    between atoms: C_4  and  O_9 
REMARK    4  A    between atoms: C_5  and  O_10 
REMARK    5  A    between atoms: C_6  and  O_11 
ROOT
HETATM    1  C   UNK N   1      29.145  17.148   6.200  0.00  0.00     0.148 C 
HETATM    2  C   UNK N   1      30.794  17.418   7.936  0.00  0.00     0.131 C 
HETATM    3  C   UNK N   1      27.990  17.233   7.197  0.00  0.00     0.166 C 
HETATM    4  C   UNK N   1      29.692  17.548   9.009  0.00  0.00     0.173 C 
HETATM    5  C   UNK N   1      28.415  18.118   8.374  0.00  0.00     0.179 C 
HETATM    6  N   UNK N   1      30.326  16.561   6.838  0.00  0.00    -0.410 N 
HETATM    7  H   UNK N   1      30.763  15.682   6.559  0.00  0.00     0.153 HD
ENDROOT
BRANCH   2   8
HETATM    8  C   UNK N   1      32.041  16.795   8.555  0.00  0.00     0.191 C 
BRANCH   8   9
HETATM    9  O   UNK N   1      31.694  15.917   9.583  0.00  0.00    -0.399 OA
HETATM   10  H   UNK N   1      30.854  15.899  10.067  0.00  0.00     0.209 HD
ENDBRANCH   8   9
ENDBRANCH   2   8
BRANCH   4  11
HETATM   11  O   UNK N   1      30.119  18.387  10.042  0.00  0.00    -0.391 OA
HETATM   12  H   UNK N   1      29.662  19.219  10.241  0.00  0.00     0.210 HD
ENDBRANCH   4  11
BRANCH   5  13
HETATM   13  O   UNK N   1      27.391  18.170   9.324  0.00  0.00    -0.390 OA
HETATM   14  H   UNK N   1      26.542  18.636   9.264  0.00  0.00     0.210 HD
ENDBRANCH   5  13
BRANCH   3  15
HETATM   15  O   UNK N   1      26.871  17.777   6.566  0.00  0.00    -0.391 OA
HETATM   16  H   UNK N   1      26.072  17.274   6.339  0.00  0.00     0.210 HD
ENDBRANCH   3  15
TORSDOF 5
ENDMDL
