MODEL 1
REMARK VINA RESULT:      -4.2      0.000      0.000
REMARK  1 active torsions:
REMARK  status: ('A' for Active; 'I' for Inactive)
REMARK    1  A    between atoms: N_5  and  C_8 
ROOT
HETATM    1  O   UNK N   1      35.285  19.188   8.473  0.00  0.00    -0.247 OA
HETATM    2  N   UNK N   1      34.054  17.836   7.135  0.00  0.00    -0.318 N 
HETATM    3  N   UNK N   1      34.069  17.516   9.320  0.00  0.00    -0.297 N 
ATOM      4  HN  UNK N   1      34.282  17.631  10.310  1.00  0.00     0.172 HD
HETATM    5  C   UNK N   1      33.181  16.702   7.317  0.00  0.00     0.174 A 
HETATM    6  C   UNK N   1      33.559  17.398   5.925  0.00  0.00     0.161 A 
HETATM    7  C   UNK N   1      33.310  16.635   8.798  0.00  0.00     0.103 A 
HETATM    8  C   UNK N   1      34.523  18.246   8.325  0.00  0.00     0.324 A 
ENDROOT
BRANCH   7   9
HETATM    9  N   UNK N   1      32.630  15.660   9.534  0.00  0.00    -0.387 N 
HETATM   10  H   UNK N   1      32.324  15.859  10.449  0.00  0.00     0.157 HD
HETATM   11  H   UNK N   1      32.458  14.776   9.138  0.00  0.00     0.157 HD
ENDBRANCH   7   9
TORSDOF 1
ENDMDL
MODEL 2
REMARK VINA RESULT:      -3.9     11.926     12.818
REMARK  1 active torsions:
REMARK  status: ('A' for Active; 'I' for Inactive)
REMARK    1  A    between atoms: N_5  and  C_8 
ROOT
HETATM    1  O   UNK N   1      24.702  11.925  11.754  0.00  0.00    -0.247 OA
HETATM    2  N   UNK N   1      23.168  12.781  10.322  0.00  0.00    -0.318 N 
HETATM    3  N   UNK N   1      22.511  11.694  12.129  0.00  0.00    -0.297 N 
ATOM      4  HN  UNK N   1      22.539  11.169  13.002  1.00  0.00     0.172 HD
HETATM    5  C   UNK N   1      21.729  12.827  10.239  0.00  0.00     0.174 A 
HETATM    6  C   UNK N   1      22.762  13.459   9.192  0.00  0.00     0.161 A 
HETATM    7  C   UNK N   1      21.471  12.072  11.495  0.00  0.00     0.103 A 
HETATM    8  C   UNK N   1      23.540  12.117  11.428  0.00  0.00     0.324 A 
ENDROOT
BRANCH   7   9
HETATM    9  N   UNK N   1      20.165  11.812  11.921  0.00  0.00    -0.387 N 
HETATM   10  H   UNK N   1      19.829  10.887  11.942  0.00  0.00     0.157 HD
HETATM   11  H   UNK N   1      19.582  12.554  12.201  0.00  0.00     0.157 HD
ENDBRANCH   7   9
TORSDOF 1
ENDMDL
MODEL 3
REMARK VINA RESULT:      -3.9     11.200     12.223
REMARK  1 active torsions:
REMARK  status: ('A' for Active; 'I' for Inactive)
REMARK    1  A    between atoms: N_5  and  C_8 
ROOT
HETATM    1  O   UNK N   1      23.841  11.895  13.392  0.00  0.00    -0.247 OA
HETATM    2  N   UNK N   1      22.476  12.199  11.609  0.00  0.00    -0.318 N 
HETATM    3  N   UNK N   1      24.666  12.361  11.368  0.00  0.00    -0.297 N 
ATOM      4  HN  UNK N   1      25.662  12.367  11.584  1.00  0.00     0.172 HD
HETATM    5  C   UNK N   1      22.641  12.501  10.208  0.00  0.00     0.174 A 
HETATM    6  C   UNK N   1      21.255  12.269  10.974  0.00  0.00     0.161 A 
HETATM    7  C   UNK N   1      24.128  12.572  10.232  0.00  0.00     0.103 A 
HETATM    8  C   UNK N   1      23.677  12.135  12.206  0.00  0.00     0.324 A 
ENDROOT
BRANCH   7   9
HETATM    9  N   UNK N   1      24.852  12.852   9.069  0.00  0.00    -0.387 N 
HETATM   10  H   UNK N   1      24.851  12.210   8.323  0.00  0.00     0.157 HD
HETATM   11  H   UNK N   1      25.362  13.691   8.997  0.00  0.00     0.157 HD
ENDBRANCH   7   9
TORSDOF 1
ENDMDL
MODEL 4
REMARK VINA RESULT:      -3.9     13.624     14.042
REMARK  1 active torsions:
REMARK  status: ('A' for Active; 'I' for Inactive)
REMARK    1  A    between atoms: N_5  and  C_8 
ROOT
HETATM    1  O   UNK N   1      22.396  21.326   2.729  0.00  0.00    -0.247 OA
HETATM    2  N   UNK N   1      22.027  19.213   3.461  0.00  0.00    -0.318 N 
HETATM    3  N   UNK N   1      20.445  20.297   2.365  0.00  0.00    -0.297 N 
ATOM      4  HN  UNK N   1      19.954  21.032   1.858  1.00  0.00     0.172 HD
HETATM    5  C   UNK N   1      20.940  18.267   3.413  0.00  0.00     0.174 A 
HETATM    6  C   UNK N   1      22.371  18.037   4.091  0.00  0.00     0.161 A 
HETATM    7  C   UNK N   1      19.997  19.142   2.664  0.00  0.00     0.103 A 
HETATM    8  C   UNK N   1      21.670  20.350   2.841  0.00  0.00     0.324 A 
ENDROOT
BRANCH   7   9
HETATM    9  N   UNK N   1      18.715  18.696   2.329  0.00  0.00    -0.387 N 
HETATM   10  H   UNK N   1      18.125  18.327   3.026  0.00  0.00     0.157 HD
HETATM   11  H   UNK N   1      18.403  18.750   1.397  0.00  0.00     0.157 HD
ENDBRANCH   7   9
TORSDOF 1
ENDMDL
MODEL 5
REMARK VINA RESULT:      -3.9     12.179     13.078
REMARK  1 active torsions:
REMARK  status: ('A' for Active; 'I' for Inactive)
REMARK    1  A    between atoms: N_5  and  C_8 
ROOT
HETATM    1  O   UNK N   1      20.225  11.930  11.838  0.00  0.00    -0.247 OA
HETATM    2  N   UNK N   1      21.446  13.059  10.298  0.00  0.00    -0.318 N 
HETATM    3  N   UNK N   1      22.458  11.828  11.827  0.00  0.00    -0.297 N 
ATOM      4  HN  UNK N   1      22.607  11.208  12.622  1.00  0.00     0.172 HD
HETATM    5  C   UNK N   1      22.846  13.225   9.993  0.00  0.00     0.174 A 
HETATM    6  C   UNK N   1      21.617  13.890   9.211  0.00  0.00     0.161 A 
HETATM    7  C   UNK N   1      23.354  12.355  11.089  0.00  0.00     0.103 A 
HETATM    8  C   UNK N   1      21.303  12.247  11.358  0.00  0.00     0.324 A 
ENDROOT
BRANCH   7   9
HETATM    9  N   UNK N   1      24.725  12.151  11.266  0.00  0.00    -0.387 N 
HETATM   10  H   UNK N   1      25.369  12.577  10.654  0.00  0.00     0.157 HD
HETATM   11  H   UNK N   1      25.047  11.582  12.001  0.00  0.00     0.157 HD
ENDBRANCH   7   9
TORSDOF 1
ENDMDL
MODEL 6
REMARK VINA RESULT:      -3.8     10.904     11.594
REMARK  1 active torsions:
REMARK  status: ('A' for Active; 'I' for Inactive)
REMARK    1  A    between atoms: N_5  and  C_8 
ROOT
HETATM    1  O   UNK N   1      44.568  22.397   4.854  0.00  0.00    -0.247 OA
HETATM    2  N   UNK N   1      43.095  21.233   3.584  0.00  0.00    -0.318 N 
HETATM    3  N   UNK N   1      43.205  23.433   3.417  0.00  0.00    -0.297 N 
ATOM      4  HN  UNK N   1      43.492  24.399   3.572  1.00  0.00     0.172 HD
HETATM    5  C   UNK N   1      42.099  21.547   2.589  0.00  0.00     0.174 A 
HETATM    6  C   UNK N   1      42.475  20.089   3.131  0.00  0.00     0.161 A 
HETATM    7  C   UNK N   1      42.310  23.021   2.609  0.00  0.00     0.103 A 
HETATM    8  C   UNK N   1      43.685  22.362   4.010  0.00  0.00     0.324 A 
ENDROOT
BRANCH   7   9
HETATM    9  N   UNK N   1      41.560  23.864   1.784  0.00  0.00    -0.387 N 
HETATM   10  H   UNK N   1      41.428  23.634   0.835  0.00  0.00     0.157 HD
HETATM   11  H   UNK N   1      41.164  24.687   2.151  0.00  0.00     0.157 HD
ENDBRANCH   7   9
TORSDOF 1
ENDMDL
MODEL 7
REMARK VINA RESULT:      -3.7     11.800     12.723
REMARK  1 active torsions:
REMARK  status: ('A' for Active; 'I' for Inactive)
REMARK    1  A    between atoms: N_5  and  C_8 
ROOT
HETATM    1  O   UNK N   1      20.898  12.676   9.098  0.00  0.00    -0.247 OA
HETATM    2  N   UNK N   1      23.090  12.629   9.672  0.00  0.00    -0.318 N 
HETATM    3  N   UNK N   1      21.546  12.067  11.148  0.00  0.00    -0.297 N 
ATOM      4  HN  UNK N   1      20.637  11.878  11.568  1.00  0.00     0.172 HD
HETATM    5  C   UNK N   1      23.853  12.302  10.852  0.00  0.00     0.174 A 
HETATM    6  C   UNK N   1      24.441  12.785   9.443  0.00  0.00     0.161 A 
HETATM    7  C   UNK N   1      22.685  11.959  11.709  0.00  0.00     0.103 A 
HETATM    8  C   UNK N   1      21.780  12.471   9.918  0.00  0.00     0.324 A 
ENDROOT
BRANCH   7   9
HETATM    9  N   UNK N   1      22.863  11.551  13.034  0.00  0.00    -0.387 N 
HETATM   10  H   UNK N   1      22.885  12.220  13.757  0.00  0.00     0.157 HD
HETATM   11  H   UNK N   1      22.968  10.595  13.245  0.00  0.00     0.157 HD
ENDBRANCH   7   9
TORSDOF 1
ENDMDL
MODEL 8
REMARK VINA RESULT:      -3.6     10.713     11.595
REMARK  1 active torsions:
REMARK  status: ('A' for Active; 'I' for Inactive)
REMARK    1  A    between atoms: N_5  and  C_8 
ROOT
HETATM    1  O   UNK N   1      41.673  23.850   1.733  0.00  0.00    -0.247 OA
HETATM    2  N   UNK N   1      42.022  21.769   2.563  0.00  0.00    -0.318 N 
HETATM    3  N   UNK N   1      43.255  23.462   3.264  0.00  0.00    -0.297 N 
ATOM      4  HN  UNK N   1      43.628  24.405   3.369  1.00  0.00     0.172 HD
HETATM    5  C   UNK N   1      42.913  21.164   3.521  0.00  0.00     0.174 A 
HETATM    6  C   UNK N   1      41.777  20.417   2.675  0.00  0.00     0.161 A 
HETATM    7  C   UNK N   1      43.642  22.412   3.874  0.00  0.00     0.103 A 
HETATM    8  C   UNK N   1      42.277  23.084   2.470  0.00  0.00     0.324 A 
ENDROOT
BRANCH   7   9
HETATM    9  N   UNK N   1      44.676  22.398   4.816  0.00  0.00    -0.387 N 
HETATM   10  H   UNK N   1      44.479  22.196   5.759  0.00  0.00     0.157 HD
HETATM   11  H   UNK N   1      45.600  22.590   4.535  0.00  0.00     0.157 HD
ENDBRANCH   7   9
TORSDOF 1
ENDMDL
MODEL 9
REMARK VINA RESULT:      -3.6     11.294     12.207
REMARK  1 active torsions:
REMARK  status: ('A' for Active; 'I' for Inactive)
REMARK    1  A    between atoms: N_5  and  C_8 
ROOT
HETATM    1  O   UNK N   1      46.072  20.075   3.659  0.00  0.00    -0.247 OA
HETATM    2  N   UNK N   1      43.849  20.407   3.369  0.00  0.00    -0.318 N 
HETATM    3  N   UNK N   1      45.160  22.099   3.915  0.00  0.00    -0.297 N 
ATOM      4  HN  UNK N   1      45.993  22.635   4.155  1.00  0.00     0.172 HD
HETATM    5  C   UNK N   1      42.943  21.527   3.446  0.00  0.00     0.174 A 
HETATM    6  C   UNK N   1      42.559  20.015   3.085  0.00  0.00     0.161 A 
HETATM    7  C   UNK N   1      43.969  22.541   3.812  0.00  0.00     0.103 A 
HETATM    8  C   UNK N   1      45.099  20.812   3.650  0.00  0.00     0.324 A 
ENDROOT
BRANCH   7   9
HETATM    9  N   UNK N   1      43.615  23.877   4.021  0.00  0.00    -0.387 N 
HETATM   10  H   UNK N   1      42.738  24.206   3.718  0.00  0.00     0.157 HD
HETATM   11  H   UNK N   1      44.242  24.488   4.470  0.00  0.00     0.157 HD
ENDBRANCH   7   9
TORSDOF 1
ENDMDL
