MODEL 1
REMARK VINA RESULT:      -7.9      0.000      0.000
REMARK  6 active torsions:
REMARK  status: ('A' for Active; 'I' for Inactive)
REMARK    1  A    between atoms: C_5  and  N_7 
REMARK    2  A    between atoms: N_7  and  S_8 
REMARK    3  A    between atoms: S_8  and  C_9 
REMARK    4  A    between atoms: C_11  and  C_17 
REMARK    5  A    between atoms: C_18  and  C_19 
REMARK       I    between atoms: C_19  and  N_21 
REMARK    6  A    between atoms: N_21  and  O_22 
ROOT
HETATM    1  C   UNK N   1      30.006  17.373   7.901  0.00  0.00     0.080 A 
HETATM    2  C   UNK N   1      31.318  17.782   8.129  0.00  0.00     0.036 A 
HETATM    3  C   UNK N   1      32.372  17.304   7.354  0.00  0.00    -0.035 A 
HETATM    4  C   UNK N   1      32.097  16.391   6.329  0.00  0.00     0.011 A 
HETATM    5  C   UNK N   1      30.779  15.965   6.094  0.00  0.00     0.002 A 
HETATM    6  C   UNK N   1      29.728  16.463   6.878  0.00  0.00     0.025 A 
ENDROOT
BRANCH   1   7
HETATM    7  S   UNK N   1      28.726  18.107   8.910  0.00  0.00     0.263 S 
HETATM    8  O   UNK N   1      27.835  17.030   9.546  0.00  0.00    -0.200 OA
HETATM    9  O   UNK N   1      29.361  18.745  10.155  0.00  0.00    -0.200 OA
BRANCH   7  10
HETATM   10  N   UNK N   1      27.613  19.336   8.320  0.00  0.00    -0.281 N 
HETATM   11  H   UNK N   1      27.096  19.869   8.967  0.00  0.00     0.179 HD
BRANCH  10  12
HETATM   12  C   UNK N   1      27.447  19.576   6.928  0.00  0.00     0.042 A 
HETATM   13  C   UNK N   1      27.306  20.887   6.460  0.00  0.00     0.030 A 
HETATM   14  C   UNK N   1      27.121  21.131   5.093  0.00  0.00     0.002 A 
HETATM   15  C   UNK N   1      27.082  20.065   4.188  0.00  0.00     0.000 A 
HETATM   16  C   UNK N   1      27.227  18.755   4.648  0.00  0.00     0.002 A 
HETATM   17  C   UNK N   1      27.406  18.512   6.010  0.00  0.00     0.030 A 
ENDBRANCH  10  12
ENDBRANCH   7  10
ENDBRANCH   1   7
BRANCH   3  18
HETATM   18  C   UNK N   1      33.714  17.839   7.679  0.00  0.00     0.017 C 
HETATM   19  C   UNK N   1      34.583  17.636   8.689  0.00  0.00     0.077 C 
BRANCH  19  20
HETATM   20  C   UNK N   1      34.512  16.791   9.898  0.00  0.00     0.264 C 
HETATM   21  O   UNK N   1      35.294  17.018  10.809  0.00  0.00    -0.266 OA
HETATM   22  N   UNK N   1      33.608  15.798  10.028  0.00  0.00    -0.234 N 
HETATM   23  H   UNK N   1      32.976  15.617   9.295  0.00  0.00     0.197 HD
BRANCH  22  24
HETATM   24  O   UNK N   1      33.559  15.056  11.142  0.00  0.00    -0.287 OA
HETATM   25  H   UNK N   1      33.821  15.439  11.993  0.00  0.00     0.244 HD
ENDBRANCH  22  24
ENDBRANCH  19  20
ENDBRANCH   3  18
TORSDOF 6
ENDMDL
MODEL 2
REMARK VINA RESULT:      -7.5      3.235      4.886
REMARK  6 active torsions:
REMARK  status: ('A' for Active; 'I' for Inactive)
REMARK    1  A    between atoms: C_5  and  N_7 
REMARK    2  A    between atoms: N_7  and  S_8 
REMARK    3  A    between atoms: S_8  and  C_9 
REMARK    4  A    between atoms: C_11  and  C_17 
REMARK    5  A    between atoms: C_18  and  C_19 
REMARK       I    between atoms: C_19  and  N_21 
REMARK    6  A    between atoms: N_21  and  O_22 
ROOT
HETATM    1  C   UNK N   1      29.265  17.515   6.276  0.00  0.00     0.080 A 
HETATM    2  C   UNK N   1      30.404  16.780   6.598  0.00  0.00     0.036 A 
HETATM    3  C   UNK N   1      31.018  16.902   7.843  0.00  0.00    -0.035 A 
HETATM    4  C   UNK N   1      30.473  17.786   8.782  0.00  0.00     0.011 A 
HETATM    5  C   UNK N   1      29.329  18.538   8.466  0.00  0.00     0.002 A 
HETATM    6  C   UNK N   1      28.718  18.398   7.212  0.00  0.00     0.025 A 
ENDROOT
BRANCH   1   7
HETATM    7  S   UNK N   1      28.522  17.225   4.677  0.00  0.00     0.263 S 
HETATM    8  O   UNK N   1      27.602  15.995   4.708  0.00  0.00    -0.200 OA
HETATM    9  O   UNK N   1      27.516  18.345   4.371  0.00  0.00    -0.200 OA
BRANCH   7  10
HETATM   10  N   UNK N   1      29.451  17.068   3.191  0.00  0.00    -0.281 N 
HETATM   11  H   UNK N   1      29.092  17.445   2.355  0.00  0.00     0.179 HD
BRANCH  10  12
HETATM   12  C   UNK N   1      30.712  16.410   3.173  0.00  0.00     0.042 A 
HETATM   13  C   UNK N   1      30.768  15.012   3.195  0.00  0.00     0.030 A 
HETATM   14  C   UNK N   1      32.006  14.357   3.199  0.00  0.00     0.002 A 
HETATM   15  C   UNK N   1      33.193  15.096   3.177  0.00  0.00     0.000 A 
HETATM   16  C   UNK N   1      33.144  16.491   3.151  0.00  0.00     0.002 A 
HETATM   17  C   UNK N   1      31.911  17.143   3.151  0.00  0.00     0.030 A 
ENDBRANCH  10  12
ENDBRANCH   7  10
ENDBRANCH   1   7
BRANCH   3  18
HETATM   18  C   UNK N   1      32.204  16.043   8.071  0.00  0.00     0.017 C 
HETATM   19  C   UNK N   1      33.532  16.268   8.081  0.00  0.00     0.077 C 
BRANCH  19  20
HETATM   20  C   UNK N   1      34.330  17.487   7.842  0.00  0.00     0.264 C 
HETATM   21  O   UNK N   1      34.584  17.794   6.686  0.00  0.00    -0.266 OA
HETATM   22  N   UNK N   1      34.767  18.268   8.850  0.00  0.00    -0.234 N 
HETATM   23  H   UNK N   1      34.561  18.022   9.780  0.00  0.00     0.197 HD
BRANCH  22  24
HETATM   24  O   UNK N   1      35.479  19.375   8.602  0.00  0.00    -0.287 OA
HETATM   25  H   UNK N   1      36.202  19.354   7.956  0.00  0.00     0.244 HD
ENDBRANCH  22  24
ENDBRANCH  19  20
ENDBRANCH   3  18
TORSDOF 6
ENDMDL
MODEL 3
REMARK VINA RESULT:      -7.4      5.739      9.831
REMARK  6 active torsions:
REMARK  status: ('A' for Active; 'I' for Inactive)
REMARK    1  A    between atoms: C_5  and  N_7 
REMARK    2  A    between atoms: N_7  and  S_8 
REMARK    3  A    between atoms: S_8  and  C_9 
REMARK    4  A    between atoms: C_11  and  C_17 
REMARK    5  A    between atoms: C_18  and  C_19 
REMARK       I    between atoms: C_19  and  N_21 
REMARK    6  A    between atoms: N_21  and  O_22 
ROOT
HETATM    1  C   UNK N   1      25.190  18.675   3.851  0.00  0.00     0.080 A 
HETATM    2  C   UNK N   1      23.862  19.077   3.978  0.00  0.00     0.036 A 
HETATM    3  C   UNK N   1      22.820  18.151   3.987  0.00  0.00    -0.035 A 
HETATM    4  C   UNK N   1      23.126  16.790   3.864  0.00  0.00     0.011 A 
HETATM    5  C   UNK N   1      24.460  16.373   3.728  0.00  0.00     0.002 A 
HETATM    6  C   UNK N   1      25.497  17.317   3.729  0.00  0.00     0.025 A 
ENDROOT
BRANCH   1   7
HETATM    7  S   UNK N   1      26.446  19.943   3.924  0.00  0.00     0.263 S 
HETATM    8  O   UNK N   1      26.356  20.883   2.711  0.00  0.00    -0.200 OA
HETATM    9  O   UNK N   1      26.130  20.910   5.075  0.00  0.00    -0.200 OA
BRANCH   7  10
HETATM   10  N   UNK N   1      28.161  19.599   4.113  0.00  0.00    -0.281 N 
HETATM   11  H   UNK N   1      28.813  20.069   3.545  0.00  0.00     0.179 HD
BRANCH  10  12
HETATM   12  C   UNK N   1      28.624  18.657   5.073  0.00  0.00     0.042 A 
HETATM   13  C   UNK N   1      29.561  17.687   4.701  0.00  0.00     0.030 A 
HETATM   14  C   UNK N   1      30.006  16.743   5.635  0.00  0.00     0.002 A 
HETATM   15  C   UNK N   1      29.519  16.767   6.946  0.00  0.00     0.000 A 
HETATM   16  C   UNK N   1      28.587  17.735   7.325  0.00  0.00     0.002 A 
HETATM   17  C   UNK N   1      28.141  18.672   6.394  0.00  0.00     0.030 A 
ENDBRANCH  10  12
ENDBRANCH   7  10
ENDBRANCH   1   7
BRANCH   3  18
HETATM   18  C   UNK N   1      21.458  18.705   4.158  0.00  0.00     0.017 C 
HETATM   19  C   UNK N   1      20.725  19.610   3.480  0.00  0.00     0.077 C 
BRANCH  19  20
HETATM   20  C   UNK N   1      21.021  20.427   2.287  0.00  0.00     0.264 C 
HETATM   21  O   UNK N   1      21.757  21.394   2.416  0.00  0.00    -0.266 OA
HETATM   22  N   UNK N   1      20.521  20.129   1.070  0.00  0.00    -0.234 N 
HETATM   23  H   UNK N   1      19.931  19.349   0.965  0.00  0.00     0.197 HD
BRANCH  22  24
HETATM   24  O   UNK N   1      20.818  20.882   0.003  0.00  0.00    -0.287 OA
HETATM   25  H   UNK N   1      21.621  21.425  -0.001  0.00  0.00     0.244 HD
ENDBRANCH  22  24
ENDBRANCH  19  20
ENDBRANCH   3  18
TORSDOF 6
ENDMDL
MODEL 4
REMARK VINA RESULT:      -7.4     13.042     15.227
REMARK  6 active torsions:
REMARK  status: ('A' for Active; 'I' for Inactive)
REMARK    1  A    between atoms: C_5  and  N_7 
REMARK    2  A    between atoms: N_7  and  S_8 
REMARK    3  A    between atoms: S_8  and  C_9 
REMARK    4  A    between atoms: C_11  and  C_17 
REMARK    5  A    between atoms: C_18  and  C_19 
REMARK       I    between atoms: C_19  and  N_21 
REMARK    6  A    between atoms: N_21  and  O_22 
ROOT
HETATM    1  C   UNK N   1      27.523  22.592  -6.914  0.00  0.00     0.080 A 
HETATM    2  C   UNK N   1      28.063  23.470  -5.976  0.00  0.00     0.036 A 
HETATM    3  C   UNK N   1      29.359  23.307  -5.491  0.00  0.00    -0.035 A 
HETATM    4  C   UNK N   1      30.126  22.235  -5.961  0.00  0.00     0.011 A 
HETATM    5  C   UNK N   1      29.591  21.339  -6.901  0.00  0.00     0.002 A 
HETATM    6  C   UNK N   1      28.287  21.521  -7.385  0.00  0.00     0.025 A 
ENDROOT
BRANCH   1   7
HETATM    7  S   UNK N   1      25.877  22.940  -7.517  0.00  0.00     0.263 S 
HETATM    8  O   UNK N   1      25.508  22.014  -8.685  0.00  0.00    -0.200 OA
HETATM    9  O   UNK N   1      24.846  22.515  -6.461  0.00  0.00    -0.200 OA
BRANCH   7  10
HETATM   10  N   UNK N   1      25.346  24.542  -8.013  0.00  0.00    -0.281 N 
HETATM   11  H   UNK N   1      24.672  24.628  -8.726  0.00  0.00     0.179 HD
BRANCH  10  12
HETATM   12  C   UNK N   1      25.868  25.716  -7.403  0.00  0.00     0.042 A 
HETATM   13  C   UNK N   1      26.958  26.375  -7.982  0.00  0.00     0.030 A 
HETATM   14  C   UNK N   1      27.491  27.520  -7.376  0.00  0.00     0.002 A 
HETATM   15  C   UNK N   1      26.935  28.012  -6.192  0.00  0.00     0.000 A 
HETATM   16  C   UNK N   1      25.844  27.363  -5.611  0.00  0.00     0.002 A 
HETATM   17  C   UNK N   1      25.316  26.220  -6.213  0.00  0.00     0.030 A 
ENDBRANCH  10  12
ENDBRANCH   7  10
ENDBRANCH   1   7
BRANCH   3  18
HETATM   18  C   UNK N   1      29.823  24.325  -4.520  0.00  0.00     0.017 C 
HETATM   19  C   UNK N   1      30.445  24.263  -3.327  0.00  0.00     0.077 C 
BRANCH  19  20
HETATM   20  C   UNK N   1      30.893  23.122  -2.504  0.00  0.00     0.264 C 
HETATM   21  O   UNK N   1      30.373  22.958  -1.410  0.00  0.00    -0.266 OA
HETATM   22  N   UNK N   1      31.837  22.258  -2.929  0.00  0.00    -0.234 N 
HETATM   23  H   UNK N   1      32.254  22.388  -3.811  0.00  0.00     0.197 HD
BRANCH  22  24
HETATM   24  O   UNK N   1      32.215  21.224  -2.165  0.00  0.00    -0.287 OA
HETATM   25  H   UNK N   1      32.928  20.637  -2.460  0.00  0.00     0.244 HD
ENDBRANCH  22  24
ENDBRANCH  19  20
ENDBRANCH   3  18
TORSDOF 6
ENDMDL
MODEL 5
REMARK VINA RESULT:      -7.4     12.588     14.854
REMARK  6 active torsions:
REMARK  status: ('A' for Active; 'I' for Inactive)
REMARK    1  A    between atoms: C_5  and  N_7 
REMARK    2  A    between atoms: N_7  and  S_8 
REMARK    3  A    between atoms: S_8  and  C_9 
REMARK    4  A    between atoms: C_11  and  C_17 
REMARK    5  A    between atoms: C_18  and  C_19 
REMARK       I    between atoms: C_19  and  N_21 
REMARK    6  A    between atoms: N_21  and  O_22 
ROOT
HETATM    1  C   UNK N   1      28.057  22.688  -6.982  0.00  0.00     0.080 A 
HETATM    2  C   UNK N   1      28.978  23.275  -6.117  0.00  0.00     0.036 A 
HETATM    3  C   UNK N   1      30.151  22.617  -5.750  0.00  0.00    -0.035 A 
HETATM    4  C   UNK N   1      30.398  21.339  -6.267  0.00  0.00     0.011 A 
HETATM    5  C   UNK N   1      29.473  20.734  -7.134  0.00  0.00     0.002 A 
HETATM    6  C   UNK N   1      28.302  21.413  -7.500  0.00  0.00     0.025 A 
ENDROOT
BRANCH   1   7
HETATM    7  S   UNK N   1      26.624  23.653  -7.438  0.00  0.00     0.263 S 
HETATM    8  O   UNK N   1      27.032  24.937  -8.177  0.00  0.00    -0.200 OA
HETATM    9  O   UNK N   1      25.839  22.915  -8.533  0.00  0.00    -0.200 OA
BRANCH   7  10
HETATM   10  N   UNK N   1      25.389  24.155  -6.290  0.00  0.00    -0.281 N 
HETATM   11  H   UNK N   1      24.552  23.641  -6.226  0.00  0.00     0.179 HD
BRANCH  10  12
HETATM   12  C   UNK N   1      25.576  25.288  -5.451  0.00  0.00     0.042 A 
HETATM   13  C   UNK N   1      26.285  25.157  -4.252  0.00  0.00     0.030 A 
HETATM   14  C   UNK N   1      26.456  26.264  -3.410  0.00  0.00     0.002 A 
HETATM   15  C   UNK N   1      25.923  27.506  -3.765  0.00  0.00     0.000 A 
HETATM   16  C   UNK N   1      25.218  27.646  -4.963  0.00  0.00     0.002 A 
HETATM   17  C   UNK N   1      25.044  26.543  -5.799  0.00  0.00     0.030 A 
ENDBRANCH  10  12
ENDBRANCH   7  10
ENDBRANCH   1   7
BRANCH   3  18
HETATM   18  C   UNK N   1      31.060  23.361  -4.849  0.00  0.00     0.017 C 
HETATM   19  C   UNK N   1      31.057  23.624  -3.527  0.00  0.00     0.077 C 
BRANCH  19  20
HETATM   20  C   UNK N   1      30.106  23.276  -2.453  0.00  0.00     0.264 C 
HETATM   21  O   UNK N   1      30.557  22.919  -1.375  0.00  0.00    -0.266 OA
HETATM   22  N   UNK N   1      28.771  23.354  -2.623  0.00  0.00    -0.234 N 
HETATM   23  H   UNK N   1      28.407  23.644  -3.491  0.00  0.00     0.197 HD
BRANCH  22  24
HETATM   24  O   UNK N   1      27.932  23.043  -1.626  0.00  0.00    -0.287 OA
HETATM   25  H   UNK N   1      27.960  23.540  -0.794  0.00  0.00     0.244 HD
ENDBRANCH  22  24
ENDBRANCH  19  20
ENDBRANCH   3  18
TORSDOF 6
ENDMDL
MODEL 6
REMARK VINA RESULT:      -7.4      5.172      9.537
REMARK  6 active torsions:
REMARK  status: ('A' for Active; 'I' for Inactive)
REMARK    1  A    between atoms: C_5  and  N_7 
REMARK    2  A    between atoms: N_7  and  S_8 
REMARK    3  A    between atoms: S_8  and  C_9 
REMARK    4  A    between atoms: C_11  and  C_17 
REMARK    5  A    between atoms: C_18  and  C_19 
REMARK       I    between atoms: C_19  and  N_21 
REMARK    6  A    between atoms: N_21  and  O_22 
ROOT
HETATM    1  C   UNK N   1      26.291  18.324   4.178  0.00  0.00     0.080 A 
HETATM    2  C   UNK N   1      24.908  18.170   4.247  0.00  0.00     0.036 A 
HETATM    3  C   UNK N   1      24.043  19.175   3.819  0.00  0.00    -0.035 A 
HETATM    4  C   UNK N   1      24.586  20.363   3.313  0.00  0.00     0.011 A 
HETATM    5  C   UNK N   1      25.979  20.533   3.245  0.00  0.00     0.002 A 
HETATM    6  C   UNK N   1      26.835  19.508   3.672  0.00  0.00     0.025 A 
ENDROOT
BRANCH   1   7
HETATM    7  S   UNK N   1      27.302  16.942   4.689  0.00  0.00     0.263 S 
HETATM    8  O   UNK N   1      26.553  16.047   5.688  0.00  0.00    -0.200 OA
HETATM    9  O   UNK N   1      27.487  15.980   3.505  0.00  0.00    -0.200 OA
BRANCH   7  10
HETATM   10  N   UNK N   1      28.922  17.119   5.353  0.00  0.00    -0.281 N 
HETATM   11  H   UNK N   1      29.701  16.929   4.782  0.00  0.00     0.179 HD
BRANCH  10  12
HETATM   12  C   UNK N   1      29.128  17.532   6.698  0.00  0.00     0.042 A 
HETATM   13  C   UNK N   1      28.187  18.356   7.325  0.00  0.00     0.030 A 
HETATM   14  C   UNK N   1      28.393  18.784   8.643  0.00  0.00     0.002 A 
HETATM   15  C   UNK N   1      29.539  18.388   9.340  0.00  0.00     0.000 A 
HETATM   16  C   UNK N   1      30.479  17.562   8.722  0.00  0.00     0.002 A 
HETATM   17  C   UNK N   1      30.276  17.139   7.408  0.00  0.00     0.030 A 
ENDBRANCH  10  12
ENDBRANCH   7  10
ENDBRANCH   1   7
BRANCH   3  18
HETATM   18  C   UNK N   1      22.597  18.874   3.917  0.00  0.00     0.017 C 
HETATM   19  C   UNK N   1      21.503  19.322   3.270  0.00  0.00     0.077 C 
BRANCH  19  20
HETATM   20  C   UNK N   1      21.329  20.326   2.202  0.00  0.00     0.264 C 
HETATM   21  O   UNK N   1      21.650  21.482   2.436  0.00  0.00    -0.266 OA
HETATM   22  N   UNK N   1      20.846  20.003   0.985  0.00  0.00    -0.234 N 
HETATM   23  H   UNK N   1      20.589  19.072   0.795  0.00  0.00     0.197 HD
BRANCH  22  24
HETATM   24  O   UNK N   1      20.710  20.933   0.031  0.00  0.00    -0.287 OA
HETATM   25  H   UNK N   1      20.868  21.867   0.237  0.00  0.00     0.244 HD
ENDBRANCH  22  24
ENDBRANCH  19  20
ENDBRANCH   3  18
TORSDOF 6
ENDMDL
MODEL 7
REMARK VINA RESULT:      -7.4      3.564      8.032
REMARK  6 active torsions:
REMARK  status: ('A' for Active; 'I' for Inactive)
REMARK    1  A    between atoms: C_5  and  N_7 
REMARK    2  A    between atoms: N_7  and  S_8 
REMARK    3  A    between atoms: S_8  and  C_9 
REMARK    4  A    between atoms: C_11  and  C_17 
REMARK    5  A    between atoms: C_18  and  C_19 
REMARK       I    between atoms: C_19  and  N_21 
REMARK    6  A    between atoms: N_21  and  O_22 
ROOT
HETATM    1  C   UNK N   1      27.647  18.755   6.260  0.00  0.00     0.080 A 
HETATM    2  C   UNK N   1      27.196  18.965   4.959  0.00  0.00     0.036 A 
HETATM    3  C   UNK N   1      26.810  20.229   4.519  0.00  0.00    -0.035 A 
HETATM    4  C   UNK N   1      26.880  21.305   5.412  0.00  0.00     0.011 A 
HETATM    5  C   UNK N   1      27.326  21.106   6.728  0.00  0.00     0.002 A 
HETATM    6  C   UNK N   1      27.719  19.828   7.153  0.00  0.00     0.025 A 
ENDROOT
BRANCH   1   7
HETATM    7  S   UNK N   1      28.183  17.106   6.692  0.00  0.00     0.263 S 
HETATM    8  O   UNK N   1      27.337  16.530   7.837  0.00  0.00    -0.200 OA
HETATM    9  O   UNK N   1      27.835  16.141   5.548  0.00  0.00    -0.200 OA
BRANCH   7  10
HETATM   10  N   UNK N   1      29.846  16.703   7.101  0.00  0.00    -0.281 N 
HETATM   11  H   UNK N   1      30.037  16.246   7.951  0.00  0.00     0.179 HD
BRANCH  10  12
HETATM   12  C   UNK N   1      30.921  17.022   6.225  0.00  0.00     0.042 A 
HETATM   13  C   UNK N   1      32.225  17.104   6.724  0.00  0.00     0.030 A 
HETATM   14  C   UNK N   1      33.285  17.438   5.872  0.00  0.00     0.002 A 
HETATM   15  C   UNK N   1      33.046  17.687   4.517  0.00  0.00     0.000 A 
HETATM   16  C   UNK N   1      31.748  17.603   4.011  0.00  0.00     0.002 A 
HETATM   17  C   UNK N   1      30.692  17.274   4.860  0.00  0.00     0.030 A 
ENDBRANCH  10  12
ENDBRANCH   7  10
ENDBRANCH   1   7
BRANCH   3  18
HETATM   18  C   UNK N   1      26.378  20.323   3.105  0.00  0.00     0.017 C 
HETATM   19  C   UNK N   1      25.180  20.434   2.499  0.00  0.00     0.077 C 
BRANCH  19  20
HETATM   20  C   UNK N   1      23.804  20.486   3.033  0.00  0.00     0.264 C 
HETATM   21  O   UNK N   1      23.179  21.530   2.922  0.00  0.00    -0.266 OA
HETATM   22  N   UNK N   1      23.221  19.420   3.619  0.00  0.00    -0.234 N 
HETATM   23  H   UNK N   1      23.723  18.578   3.706  0.00  0.00     0.197 HD
BRANCH  22  24
HETATM   24  O   UNK N   1      21.967  19.493   4.083  0.00  0.00    -0.287 OA
HETATM   25  H   UNK N   1      21.251  19.027   3.624  0.00  0.00     0.244 HD
ENDBRANCH  22  24
ENDBRANCH  19  20
ENDBRANCH   3  18
TORSDOF 6
ENDMDL
MODEL 8
REMARK VINA RESULT:      -7.3     13.273     15.546
REMARK  6 active torsions:
REMARK  status: ('A' for Active; 'I' for Inactive)
REMARK    1  A    between atoms: C_5  and  N_7 
REMARK    2  A    between atoms: N_7  and  S_8 
REMARK    3  A    between atoms: S_8  and  C_9 
REMARK    4  A    between atoms: C_11  and  C_17 
REMARK    5  A    between atoms: C_18  and  C_19 
REMARK       I    between atoms: C_19  and  N_21 
REMARK    6  A    between atoms: N_21  and  O_22 
ROOT
HETATM    1  C   UNK N   1      29.208  22.803  -4.890  0.00  0.00     0.080 A 
HETATM    2  C   UNK N   1      28.497  22.949  -6.079  0.00  0.00     0.036 A 
HETATM    3  C   UNK N   1      28.649  22.049  -7.131  0.00  0.00    -0.035 A 
HETATM    4  C   UNK N   1      29.539  20.978  -6.980  0.00  0.00     0.011 A 
HETATM    5  C   UNK N   1      30.267  20.825  -5.789  0.00  0.00     0.002 A 
HETATM    6  C   UNK N   1      30.097  21.735  -4.736  0.00  0.00     0.025 A 
ENDROOT
BRANCH   1   7
HETATM    7  S   UNK N   1      28.879  23.977  -3.583  0.00  0.00     0.263 S 
HETATM    8  O   UNK N   1      29.586  23.571  -2.281  0.00  0.00    -0.200 OA
HETATM    9  O   UNK N   1      29.580  25.306  -3.902  0.00  0.00    -0.200 OA
BRANCH   7  10
HETATM   10  N   UNK N   1      27.257  24.456  -3.096  0.00  0.00    -0.281 N 
HETATM   11  H   UNK N   1      26.850  24.042  -2.302  0.00  0.00     0.179 HD
BRANCH  10  12
HETATM   12  C   UNK N   1      26.524  25.432  -3.827  0.00  0.00     0.042 A 
HETATM   13  C   UNK N   1      26.404  26.732  -3.324  0.00  0.00     0.030 A 
HETATM   14  C   UNK N   1      25.666  27.693  -4.028  0.00  0.00     0.002 A 
HETATM   15  C   UNK N   1      25.049  27.359  -5.237  0.00  0.00     0.000 A 
HETATM   16  C   UNK N   1      25.170  26.065  -5.747  0.00  0.00     0.002 A 
HETATM   17  C   UNK N   1      25.901  25.107  -5.044  0.00  0.00     0.030 A 
ENDBRANCH  10  12
ENDBRANCH   7  10
ENDBRANCH   1   7
BRANCH   3  18
HETATM   18  C   UNK N   1      27.814  22.299  -8.328  0.00  0.00     0.017 C 
HETATM   19  C   UNK N   1      26.539  22.010  -8.655  0.00  0.00     0.077 C 
BRANCH  19  20
HETATM   20  C   UNK N   1      25.470  21.298  -7.929  0.00  0.00     0.264 C 
HETATM   21  O   UNK N   1      25.469  20.076  -7.952  0.00  0.00    -0.266 OA
HETATM   22  N   UNK N   1      24.515  21.950  -7.235  0.00  0.00    -0.234 N 
HETATM   23  H   UNK N   1      24.516  22.934  -7.214  0.00  0.00     0.197 HD
BRANCH  22  24
HETATM   24  O   UNK N   1      23.564  21.276  -6.575  0.00  0.00    -0.287 OA
HETATM   25  H   UNK N   1      23.574  21.245  -5.606  0.00  0.00     0.244 HD
ENDBRANCH  22  24
ENDBRANCH  19  20
ENDBRANCH   3  18
TORSDOF 6
ENDMDL
MODEL 9
REMARK VINA RESULT:      -7.2     12.566     14.755
REMARK  6 active torsions:
REMARK  status: ('A' for Active; 'I' for Inactive)
REMARK    1  A    between atoms: C_5  and  N_7 
REMARK    2  A    between atoms: N_7  and  S_8 
REMARK    3  A    between atoms: S_8  and  C_9 
REMARK    4  A    between atoms: C_11  and  C_17 
REMARK    5  A    between atoms: C_18  and  C_19 
REMARK       I    between atoms: C_19  and  N_21 
REMARK    6  A    between atoms: N_21  and  O_22 
ROOT
HETATM    1  C   UNK N   1      28.156  23.565  -6.847  0.00  0.00     0.080 A 
HETATM    2  C   UNK N   1      28.775  22.442  -6.302  0.00  0.00     0.036 A 
HETATM    3  C   UNK N   1      30.135  22.436  -6.001  0.00  0.00    -0.035 A 
HETATM    4  C   UNK N   1      30.889  23.588  -6.259  0.00  0.00     0.011 A 
HETATM    5  C   UNK N   1      30.278  24.724  -6.815  0.00  0.00     0.002 A 
HETATM    6  C   UNK N   1      28.906  24.716  -7.105  0.00  0.00     0.025 A 
ENDROOT
BRANCH   1   7
HETATM    7  S   UNK N   1      26.393  23.482  -7.125  0.00  0.00     0.263 S 
HETATM    8  O   UNK N   1      26.022  24.050  -8.503  0.00  0.00    -0.200 OA
HETATM    9  O   UNK N   1      25.970  22.014  -7.283  0.00  0.00    -0.200 OA
BRANCH   7  10
HETATM   10  N   UNK N   1      25.204  24.153  -6.015  0.00  0.00    -0.281 N 
HETATM   11  H   UNK N   1      24.331  23.709  -5.917  0.00  0.00     0.179 HD
BRANCH  10  12
HETATM   12  C   UNK N   1      25.481  25.322  -5.253  0.00  0.00     0.042 A 
HETATM   13  C   UNK N   1      24.982  26.560  -5.672  0.00  0.00     0.030 A 
HETATM   14  C   UNK N   1      25.268  27.719  -4.939  0.00  0.00     0.002 A 
HETATM   15  C   UNK N   1      26.051  27.644  -3.783  0.00  0.00     0.000 A 
HETATM   16  C   UNK N   1      26.549  26.411  -3.357  0.00  0.00     0.002 A 
HETATM   17  C   UNK N   1      26.268  25.258  -4.089  0.00  0.00     0.030 A 
ENDBRANCH  10  12
ENDBRANCH   7  10
ENDBRANCH   1   7
BRANCH   3  18
HETATM   18  C   UNK N   1      30.664  21.191  -5.398  0.00  0.00     0.017 C 
HETATM   19  C   UNK N   1      31.099  20.861  -4.166  0.00  0.00     0.077 C 
BRANCH  19  20
HETATM   20  C   UNK N   1      31.234  21.645  -2.923  0.00  0.00     0.264 C 
HETATM   21  O   UNK N   1      32.286  21.572  -2.304  0.00  0.00    -0.266 OA
HETATM   22  N   UNK N   1      30.247  22.443  -2.466  0.00  0.00    -0.234 N 
HETATM   23  H   UNK N   1      29.401  22.504  -2.965  0.00  0.00     0.197 HD
BRANCH  22  24
HETATM   24  O   UNK N   1      30.404  23.153  -1.341  0.00  0.00    -0.287 OA
HETATM   25  H   UNK N   1      29.627  23.454  -0.845  0.00  0.00     0.244 HD
ENDBRANCH  22  24
ENDBRANCH  19  20
ENDBRANCH   3  18
TORSDOF 6
ENDMDL
