REMARK  10 active torsions:
REMARK  status: ('A' for Active; 'I' for Inactive)
REMARK    1  A    between atoms: O_3  and  C_26 
REMARK    2  A    between atoms: O_3  and  C_29 
REMARK    3  A    between atoms: N_4  and  C_14 
REMARK    4  A    between atoms: N_5  and  C_17 
REMARK    5  A    between atoms: N_6  and  C_16 
REMARK    6  A    between atoms: N_7  and  C_22 
REMARK    7  A    between atoms: C_14  and  C_15 
REMARK    8  A    between atoms: C_15  and  C_16 
REMARK    9  A    between atoms: C_19  and  C_23 
REMARK   10  A    between atoms: C_22  and  C_26 
ROOT
HETATM    1  O   UNK N   1       3.514   4.106   0.615  0.00  0.00    -0.245 OA
HETATM    2  N   UNK N   1       3.883   1.861   0.769  0.00  0.00    -0.241 N 
HETATM    3  N   UNK N   1       5.423   3.151  -0.185  0.00  0.00    -0.284 N 
HETATM    4  N   UNK N   1       4.883   1.069   0.406  0.00  0.00    -0.283 N 
ATOM      5  HN  UNK N   1       4.938   0.059   0.541  1.00  0.00     0.188 HD
HETATM    6  C   UNK N   1       4.208   3.124   0.410  0.00  0.00     0.344 A 
HETATM    7  C   UNK N   1       5.816   1.858  -0.178  0.00  0.00     0.102 A 
ENDROOT
BRANCH   2   8
HETATM    8  C   UNK N   1       2.703   1.411   1.500  0.00  0.00     0.156 C 
BRANCH   8   9
HETATM    9  C   UNK N   1       1.403   1.677   0.741  0.00  0.00     0.052 C 
BRANCH   9  10
HETATM   10  C   UNK N   1       1.196   0.754  -0.459  0.00  0.00     0.274 C 
BRANCH  10  11
HETATM   11  N   UNK N   1       1.549  -0.620  -0.137  0.00  0.00     0.091 N 
HETATM   12  C   UNK N   1       0.603  -1.500  -0.801  0.00  0.00     0.292 C 
HETATM   13  C   UNK N   1       0.912  -2.964  -0.472  0.00  0.00     0.153 C 
HETATM   14  N   UNK N   1       2.340  -3.267  -0.355  0.00  0.00    -0.377 N 
HETATM   15  C   UNK N   1       3.359  -2.225  -0.383  0.00  0.00     0.153 C 
HETATM   16  C   UNK N   1       2.822  -0.864  -0.786  0.00  0.00     0.292 C 
BRANCH  14  17
HETATM   17  C   UNK N   1       2.753  -4.619  -0.145  0.00  0.00     0.031 A 
HETATM   18  C   UNK N   1       1.808  -5.658  -0.089  0.00  0.00     0.053 A 
HETATM   19  C   UNK N   1       2.218  -6.980   0.107  0.00  0.00     0.036 A 
HETATM   20 Cl   UNK N   1       1.029  -8.262   0.173  0.00  0.00    -0.084 Cl
HETATM   21  C   UNK N   1       3.575  -7.279   0.249  0.00  0.00     0.024 A 
HETATM   22  C   UNK N   1       4.524  -6.257   0.195  0.00  0.00     0.004 A 
HETATM   23  C   UNK N   1       4.117  -4.936  -0.001  0.00  0.00     0.029 A 
ENDBRANCH  14  17
ENDBRANCH  10  11
ENDBRANCH   9  10
ENDBRANCH   8   9
ENDBRANCH   2   8
BRANCH   7  24
HETATM   24  C   UNK N   1       7.117   1.358  -0.716  0.00  0.00     0.073 C 
HETATM   25  C   UNK N   1       7.932   0.720   0.393  0.00  0.00     0.013 C 
ENDBRANCH   7  24
BRANCH   3  26
HETATM   26  C   UNK N   1       6.158   4.307  -0.679  0.00  0.00     0.162 C 
BRANCH  26  27
HETATM   27  C   UNK N   1       6.484   5.228   0.491  0.00  0.00     0.196 C 
BRANCH  27  28
HETATM   28  O   UNK N   1       7.606   5.987   0.231  0.00  0.00    -0.350 OA
BRANCH  28  29
HETATM   29  C   UNK N   1       8.859   5.474   0.141  0.00  0.00     0.068 A 
HETATM   30  C   UNK N   1       9.931   6.340  -0.099  0.00  0.00     0.037 A 
HETATM   31  C   UNK N   1      11.232   5.838  -0.208  0.00  0.00     0.003 A 
HETATM   32  C   UNK N   1      11.467   4.466  -0.080  0.00  0.00     0.000 A 
HETATM   33  C   UNK N   1      10.403   3.595   0.165  0.00  0.00     0.003 A 
HETATM   34  C   UNK N   1       9.105   4.095   0.278  0.00  0.00     0.037 A 
ENDBRANCH  28  29
ENDBRANCH  27  28
ENDBRANCH  26  27
ENDBRANCH   3  26
TORSDOF 10
