REMARK  1 active torsions:
REMARK  status: ('A' for Active; 'I' for Inactive)
REMARK    1  A    between atoms: C_7  and  C_10 
ROOT
HETATM    1  S   UNK N   1       6.311  -1.298  -0.153  0.00  0.00     0.170 S 
HETATM    2  O   UNK N   1       6.659  -1.938  -1.506  0.00  0.00    -0.225 OA
HETATM    3  O   UNK N   1       6.105  -2.513   0.764  0.00  0.00    -0.225 OA
HETATM    4  O   UNK N   1       6.437   2.870   0.546  0.00  0.00    -0.273 OA
HETATM    5  N   UNK N   1       5.046   1.143   0.140  0.00  0.00    -0.334 N 
HETATM    6  C   UNK N   1       4.825  -0.251  -0.293  0.00  0.00     0.243 C 
HETATM    7  C   UNK N   1       7.716  -0.360   0.427  0.00  0.00     0.152 C 
HETATM    8  C   UNK N   1       7.552   0.977  -0.263  0.00  0.00     0.118 C 
HETATM    9  C   UNK N   1       6.302   1.714   0.173  0.00  0.00     0.221 C 
HETATM   10  C   UNK N   1       3.926   1.974   0.531  0.00  0.00     0.154 C 
ENDROOT
BRANCH   6  11
HETATM   11  C   UNK N   1       3.456  -0.925  -0.150  0.00  0.00    -0.021 A 
HETATM   12  C   UNK N   1       3.366  -2.328  -0.153  0.00  0.00     0.012 A 
HETATM   13  C   UNK N   1       2.126  -2.969  -0.073  0.00  0.00     0.024 A 
HETATM   14  C   UNK N   1       0.955  -2.215   0.005  0.00  0.00     0.034 A 
HETATM   15 Cl   UNK N   1      -0.600  -3.014   0.097  0.00  0.00    -0.084 Cl
HETATM   16  C   UNK N   1       1.024  -0.821  -0.003  0.00  0.00     0.024 A 
HETATM   17  C   UNK N   1       2.265  -0.184  -0.089  0.00  0.00     0.012 A 
ENDBRANCH   6  11
TORSDOF 1
