REMARK  9 active torsions:
REMARK  status: ('A' for Active; 'I' for Inactive)
REMARK    1  A    between atoms: O_8  and  C_20 
REMARK    2  A    between atoms: O_8  and  C_25 
REMARK    3  A    between atoms: O_9  and  C_22 
REMARK    4  A    between atoms: O_9  and  C_26 
REMARK    5  A    between atoms: N_11  and  C_17 
REMARK       I    between atoms: N_11  and  C_18 
REMARK    6  A    between atoms: C_12  and  C_17 
REMARK    7  A    between atoms: C_18  and  C_19 
REMARK    8  A    between atoms: C_25  and  C_27 
REMARK    9  A    between atoms: C_26  and  C_28 
ROOT
HETATM    1  C   UNK N   1       4.601   0.124  -0.169  0.00  0.00     0.068 A 
HETATM    2  C   UNK N   1       3.601  -0.904  -0.337  0.00  0.00     0.085 A 
HETATM    3  C   UNK N   1       5.949  -0.285  -0.090  0.00  0.00     0.056 A 
HETATM    4  C   UNK N   1       6.333  -1.620  -0.187  0.00  0.00     0.070 A 
HETATM    5  C   UNK N   1       4.014  -2.240  -0.406  0.00  0.00     0.040 A 
HETATM    6  C   UNK N   1       5.354  -2.600  -0.342  0.00  0.00     0.039 A 
ENDROOT
BRANCH   1   7
HETATM    7  C   UNK N   1       4.326   1.604  -0.034  0.00  0.00     0.254 C 
HETATM    8  O   UNK N   1       3.261   1.982   0.421  0.00  0.00    -0.268 OA
HETATM    9  N   UNK N   1       5.242   2.560  -0.356  0.00  0.00    -0.355 N 
HETATM   10  H   UNK N   1       5.011   3.497  -0.163  0.00  0.00     0.162 HD
BRANCH   9  11
HETATM   11  C   UNK N   1       6.526   2.300  -0.961  0.00  0.00     0.147 C 
BRANCH  11  12
HETATM   12  C   UNK N   1       7.628   2.812  -0.060  0.00  0.00     0.094 C 
HETATM   13  N   UNK N   1       7.679   4.272  -0.125  0.00  0.00    -0.415 N 
HETATM   14  C   UNK N   1       8.667   4.750   0.840  0.00  0.00     0.114 C 
HETATM   15  H   UNK N   1       7.118   4.860  -0.742  0.00  0.00     0.153 HD
HETATM   16  C   UNK N   1      10.060   4.251   0.459  0.00  0.00     0.019 C 
HETATM   17  C   UNK N   1      10.065   2.726   0.420  0.00  0.00     0.004 C 
HETATM   18  C   UNK N   1       8.963   2.222  -0.505  0.00  0.00     0.026 C 
ENDBRANCH  11  12
ENDBRANCH   9  11
ENDBRANCH   1   7
BRANCH   2  19
HETATM   19  O   UNK N   1       2.261  -0.715  -0.484  0.00  0.00    -0.341 OA
BRANCH  19  20
HETATM   20  C   UNK N   1       1.568   0.435  -0.767  0.00  0.00     0.293 C 
BRANCH  20  21
HETATM   21  C   UNK N   1       0.464   0.625   0.261  0.00  0.00     0.408 C 
HETATM   22  F   UNK N   1      -0.363  -0.483   0.269  0.00  0.00    -0.169 F 
HETATM   23  F   UNK N   1      -0.279   1.744  -0.064  0.00  0.00    -0.169 F 
HETATM   24  F   UNK N   1       1.013   0.792   1.519  0.00  0.00    -0.169 F 
ENDBRANCH  20  21
ENDBRANCH  19  20
ENDBRANCH   2  19
BRANCH   4  25
HETATM   25  O   UNK N   1       7.650  -1.936  -0.158  0.00  0.00    -0.342 OA
BRANCH  25  26
HETATM   26  C   UNK N   1       8.138  -3.110  -0.696  0.00  0.00     0.293 C 
BRANCH  26  27
HETATM   27  C   UNK N   1       8.807  -3.994   0.342  0.00  0.00     0.408 C 
HETATM   28  F   UNK N   1       9.328  -5.101  -0.301  0.00  0.00    -0.169 F 
HETATM   29  F   UNK N   1       7.880  -4.410   1.279  0.00  0.00    -0.169 F 
HETATM   30  F   UNK N   1       9.831  -3.310   0.969  0.00  0.00    -0.169 F 
ENDBRANCH  26  27
ENDBRANCH  25  26
ENDBRANCH   4  25
TORSDOF 9
