REMARK  10 active torsions:
REMARK  status: ('A' for Active; 'I' for Inactive)
REMARK    1  A    between atoms: O_1  and  C_10 
REMARK    2  A    between atoms: O_1  and  C_13 
REMARK    3  A    between atoms: N_2  and  C_4 
REMARK    4  A    between atoms: N_3  and  C_9 
REMARK    5  A    between atoms: N_3  and  C_11 
REMARK    6  A    between atoms: N_3  and  C_12 
REMARK    7  A    between atoms: C_4  and  C_9 
REMARK    8  A    between atoms: C_4  and  C_10 
REMARK    9  A    between atoms: C_11  and  C_15 
REMARK   10  A    between atoms: C_13  and  C_14 
ROOT
HETATM    1  N   UNK N   1       2.811  -0.235  -0.255  0.00  0.00    -0.374 N 
ENDROOT
BRANCH   1   2
HETATM    2  C   UNK N   1       4.134   0.187  -0.690  0.00  0.00     0.161 C 
BRANCH   2   3
HETATM    3  C   UNK N   1       4.956   0.795   0.451  0.00  0.00     0.264 C 
BRANCH   3   4
HETATM    4  N   UNK N   1       5.912   1.792  -0.065  0.00  0.00     0.096 N 
HETATM    5  C   UNK N   1       6.577   2.502   1.014  0.00  0.00     0.273 C 
HETATM    6  C   UNK N   1       7.875   3.020   0.439  0.00  0.00     0.032 C 
HETATM    7  C   UNK N   1       8.206   2.075  -0.696  0.00  0.00     0.032 C 
HETATM    8  C   UNK N   1       6.972   1.213  -0.884  0.00  0.00     0.273 C 
ENDBRANCH   3   4
BRANCH   3   9
HETATM    9  C   UNK N   1       5.550  -0.254   1.416  0.00  0.00     0.205 C 
BRANCH   9  10
HETATM   10  O   UNK N   1       6.663  -0.909   0.876  0.00  0.00    -0.389 OA
BRANCH  10  11
HETATM   11  C   UNK N   1       6.193  -2.151   0.448  0.00  0.00     0.171 C 
BRANCH  11  12
HETATM   12  C   UNK N   1       7.329  -3.154   0.357  0.00  0.00     0.001 C 
HETATM   13  C   UNK N   1       6.764  -4.494  -0.066  0.00  0.00     0.011 C 
HETATM   14  C   UNK N   1       8.350  -2.704  -0.670  0.00  0.00     0.011 C 
ENDBRANCH  11  12
ENDBRANCH  10  11
ENDBRANCH   9  10
ENDBRANCH   3   9
ENDBRANCH   2   3
ENDBRANCH   1   2
BRANCH   1  15
HETATM   15  C   UNK N   1       1.783   0.708   0.194  0.00  0.00     0.161 C 
BRANCH  15  16
HETATM   16  C   UNK N   1       1.901   2.192  -0.079  0.00  0.00    -0.040 A 
HETATM   17  C   UNK N   1       0.839   3.002   0.343  0.00  0.00     0.009 A 
HETATM   18  C   UNK N   1       0.866   4.383   0.130  0.00  0.00     0.001 A 
HETATM   19  C   UNK N   1       1.963   4.970  -0.504  0.00  0.00     0.000 A 
HETATM   20  C   UNK N   1       3.026   4.172  -0.935  0.00  0.00     0.001 A 
HETATM   21  C   UNK N   1       2.990   2.790  -0.730  0.00  0.00     0.009 A 
ENDBRANCH  15  16
ENDBRANCH   1  15
BRANCH   1  22
HETATM   22  C   UNK N   1       2.467  -1.626  -0.312  0.00  0.00     0.030 A 
HETATM   23  C   UNK N   1       3.403  -2.585  -0.731  0.00  0.00     0.029 A 
HETATM   24  C   UNK N   1       3.062  -3.940  -0.785  0.00  0.00     0.002 A 
HETATM   25  C   UNK N   1       1.776  -4.352  -0.430  0.00  0.00     0.000 A 
HETATM   26  C   UNK N   1       0.831  -3.410  -0.020  0.00  0.00     0.002 A 
HETATM   27  C   UNK N   1       1.174  -2.057   0.041  0.00  0.00     0.029 A 
ENDBRANCH   1  22
TORSDOF 10
