REMARK  12 active torsions:
REMARK  status: ('A' for Active; 'I' for Inactive)
REMARK    1  A    between atoms: C_9  and  O_2 
REMARK    2  A    between atoms: O_2  and  C_23 
REMARK    3  A    between atoms: O_4  and  C_28 
REMARK    4  A    between atoms: N_5  and  C_17 
REMARK    5  A    between atoms: N_5  and  C_25 
REMARK    6  A    between atoms: C_9  and  C_13 
REMARK    7  A    between atoms: C_10  and  C_12 
REMARK    8  A    between atoms: C_13  and  C_17 
REMARK    9  A    between atoms: C_23  and  C_28 
REMARK   10  A    between atoms: C_25  and  C_27 
REMARK   11  A    between atoms: C_27  and  C_29 
REMARK   12  A    between atoms: C_29  and  C_30 
ROOT
HETATM    1  F   UNK N   1      13.085   4.891   0.074  0.00  0.00    -0.206 F 
HETATM    2  C   UNK N   1       7.353   2.046  -0.432  0.00  0.00     0.081 C 
HETATM    3  C   UNK N   1       8.659   1.368   0.069  0.00  0.00     0.058 C 
HETATM    4  C   UNK N   1       7.632   2.628  -1.821  0.00  0.00     0.044 C 
HETATM    5  C   UNK N   1       9.841   2.300   0.028  0.00  0.00    -0.044 A 
HETATM    6  C   UNK N   1       8.692   3.743  -1.742  0.00  0.00     0.042 C 
HETATM    7  C   UNK N   1       9.842   3.437  -0.811  0.00  0.00    -0.048 A 
HETATM    8  C   UNK N   1      10.942   2.042   0.852  0.00  0.00     0.011 A 
HETATM    9  C   UNK N   1      10.938   4.307  -0.784  0.00  0.00     0.049 A 
HETATM   10  C   UNK N   1      12.034   2.908   0.860  0.00  0.00     0.043 A 
HETATM   11  C   UNK N   1      12.029   4.044   0.051  0.00  0.00     0.117 A 
ENDROOT
BRANCH   2  12
HETATM   12  O   UNK N   1       7.007   3.093   0.423  0.00  0.00    -0.308 OA
BRANCH  12  13
HETATM   13  C   UNK N   1       5.972   3.956   0.203  0.00  0.00     0.283 C 
HETATM   14  O   UNK N   1       6.208   5.145   0.075  0.00  0.00    -0.263 OA
BRANCH  13  15
HETATM   15  C   UNK N   1       4.557   3.484   0.072  0.00  0.00     0.277 C 
BRANCH  15  16
HETATM   16  O   UNK N   1       3.713   4.236   0.896  0.00  0.00    -0.386 OA
HETATM   17  C   UNK N   1       2.812   4.838   0.014  0.00  0.00     0.202 C 
ENDBRANCH  15  16
ENDBRANCH  13  15
ENDBRANCH  12  13
ENDBRANCH   2  12
BRANCH   2  18
HETATM   18  C   UNK N   1       6.239   1.000  -0.493  0.00  0.00     0.069 C 
BRANCH  18  19
HETATM   19  C   UNK N   1       6.157   0.246   0.830  0.00  0.00     0.275 C 
BRANCH  19  20
HETATM   20  N   UNK N   1       5.131  -0.769   0.759  0.00  0.00     0.084 N 
HETATM   21  C   UNK N   1       5.610  -1.917   1.508  0.00  0.00     0.309 C 
BRANCH  20  22
HETATM   22  C   UNK N   1       3.965  -0.238   1.453  0.00  0.00     0.272 C 
BRANCH  22  23
HETATM   23  C   UNK N   1       3.237   0.810   0.590  0.00  0.00     0.038 C 
BRANCH  23  24
HETATM   24  C   UNK N   1       2.991   0.335  -0.846  0.00  0.00     0.078 C 
BRANCH  24  25
HETATM   25  C   UNK N   1       2.292  -0.965  -0.760  0.00  0.00     0.082 A 
HETATM   26  N   UNK N   1       1.010  -1.076  -0.342  0.00  0.00    -0.344 N 
HETATM   27  C   UNK N   1       0.873  -2.383  -0.083  0.00  0.00     0.060 A 
HETATM   28  H   UNK N   1       0.337  -0.364  -0.251  0.00  0.00     0.167 HD
HETATM   29  C   UNK N   1       2.050  -3.020  -0.326  0.00  0.00     0.060 A 
HETATM   30  C   UNK N   1      -0.238  -3.036   0.425  0.00  0.00     0.032 A 
HETATM   31  N   UNK N   1       2.962  -2.147  -0.753  0.00  0.00    -0.344 N 
HETATM   32  C   UNK N   1       2.220  -4.377  -0.071  0.00  0.00     0.032 A 
ATOM     33  HN  UNK N   1       3.933  -2.324  -1.012  1.00  0.00     0.167 HD
HETATM   34  C   UNK N   1       1.116  -5.080   0.447  0.00  0.00     0.002 A 
HETATM   35  C   UNK N   1      -0.109  -4.413   0.691  0.00  0.00     0.002 A 
ENDBRANCH  24  25
ENDBRANCH  23  24
ENDBRANCH  22  23
ENDBRANCH  20  22
ENDBRANCH  19  20
ENDBRANCH  18  19
ENDBRANCH   2  18
BRANCH   3  36
HETATM   36  C   UNK N   1       8.951  -0.019  -0.563  0.00  0.00    -0.011 C 
HETATM   37  C   UNK N   1       9.329   0.034  -2.033  0.00  0.00     0.010 C 
HETATM   38  C   UNK N   1       9.967  -0.824   0.223  0.00  0.00     0.010 C 
ENDBRANCH   3  36
TORSDOF 12
