REMARK  2 active torsions:
REMARK  status: ('A' for Active; 'I' for Inactive)
REMARK    1  A    between atoms: C_6  and  O_1 
REMARK    2  A    between atoms: C_6  and  C_14 
ROOT
HETATM    1  C   UNK N   1       5.673   0.976   0.390  0.00  0.00    -0.009 C 
HETATM    2  C   UNK N   1       5.636  -0.527   0.129  0.00  0.00     0.001 C 
HETATM    3  C   UNK N   1       4.567  -1.261   0.972  0.00  0.00    -0.005 C 
HETATM    4  C   UNK N   1       3.159  -0.575   0.802  0.00  0.00    -0.002 C 
HETATM    5  C   UNK N   1       6.905   1.382  -0.446  0.00  0.00     0.065 C 
HETATM    6  C   UNK N   1       4.339   1.573  -0.050  0.00  0.00     0.013 C 
HETATM    7  C   UNK N   1       7.095  -0.944   0.331  0.00  0.00     0.009 C 
HETATM    8  C   UNK N   1       3.223   0.973   0.812  0.00  0.00     0.006 C 
HETATM    9  C   UNK N   1       7.925   0.298  -0.066  0.00  0.00     0.039 C 
HETATM   10  C   UNK N   1       2.414  -1.161  -0.412  0.00  0.00     0.019 C 
HETATM   11  C   UNK N   1       4.594  -2.745   0.522  0.00  0.00     0.009 C 
HETATM   12  C   UNK N   1       5.897   1.274   1.889  0.00  0.00     0.019 C 
HETATM   13  C   UNK N   1       3.251  -3.477   0.489  0.00  0.00     0.034 C 
HETATM   14  C   UNK N   1       2.133  -2.616  -0.025  0.00  0.00    -0.079 C 
HETATM   15  C   UNK N   1       1.132  -0.381  -0.769  0.00  0.00     0.010 C 
HETATM   16  C   UNK N   1      -0.054  -0.804   0.079  0.00  0.00     0.004 C 
HETATM   17  C   UNK N   1       0.879  -3.099   0.074  0.00  0.00    -0.024 C 
HETATM   18  C   UNK N   1      -0.331  -2.267  -0.236  0.00  0.00     0.027 C 
ENDROOT
BRANCH   5  19
HETATM   19  O   UNK N   1       6.622   1.236  -1.810  0.00  0.00    -0.389 OA
HETATM   20  H   UNK N   1       6.437   1.355  -2.754  0.00  0.00     0.210 HD
ENDBRANCH   5  19
BRANCH   5  21
HETATM   21  C   UNK N   1       7.419   2.820  -0.255  0.00  0.00     0.034 C 
HETATM   22  C   UNK N   1       8.020   3.119   1.110  0.00  0.00     0.008 C 
ENDBRANCH   5  21
TORSDOF 2
