REMARK  3 active torsions:
REMARK  status: ('A' for Active; 'I' for Inactive)
REMARK    1  A    between atoms: N_2  and  C_3 
REMARK    2  A    between atoms: C_3  and  C_4 
REMARK    3  A    between atoms: C_4  and  C_7 
ROOT
HETATM    1 Cl   UNK N   1       1.042  -4.416  -0.324  0.00  0.00    -0.084 Cl
HETATM    2  C   UNK N   1       1.998   0.001   0.216  0.00  0.00    -0.056 A 
HETATM    3  C   UNK N   1       2.966  -0.970   0.506  0.00  0.00     0.009 A 
HETATM    4  C   UNK N   1       0.733  -0.393  -0.234  0.00  0.00     0.009 A 
HETATM    5  C   UNK N   1       2.676  -2.326   0.327  0.00  0.00     0.024 A 
HETATM    6  C   UNK N   1       0.441  -1.751  -0.407  0.00  0.00     0.024 A 
HETATM    7  C   UNK N   1       1.413  -2.716  -0.125  0.00  0.00     0.034 A 
ENDROOT
BRANCH   2   8
HETATM    8  C   UNK N   1       2.275   1.456   0.465  0.00  0.00     0.068 C 
BRANCH   8   9
HETATM    9  C   UNK N   1       3.410   2.128  -0.327  0.00  0.00     0.019 C 
HETATM   10  C   UNK N   1       2.813   3.231  -1.174  0.00  0.00     0.037 C 
HETATM   11  C   UNK N   1       4.190   1.198  -1.244  0.00  0.00     0.037 C 
BRANCH   9  12
HETATM   12  N   UNK N   1       4.333   2.725   0.621  0.00  0.00    -0.422 N 
HETATM   13  H   UNK N   1       5.020   2.373   1.288  0.00  0.00     0.150 HD
HETATM   14  H   UNK N   1       4.282   3.743   0.621  0.00  0.00     0.150 HD
ENDBRANCH   9  12
ENDBRANCH   8   9
ENDBRANCH   2   8
TORSDOF 3
