REMARK  7 active torsions:
REMARK  status: ('A' for Active; 'I' for Inactive)
REMARK    1  A    between atoms: C_1  and  C_5 
REMARK    2  A    between atoms: C_6  and  O_7 
REMARK    3  A    between atoms: C_12  and  C_17 
REMARK    4  A    between atoms: C_17  and  N_19 
REMARK    5  A    between atoms: N_19  and  C_21 
REMARK    6  A    between atoms: C_21  and  C_22 
REMARK    7  A    between atoms: C_22  and  O_24 
ROOT
HETATM    1  C   UNK N   1      -2.732   0.255   0.030  0.00  0.00     0.092 A 
HETATM    2  C   UNK N   1      -2.768   1.666   0.325  0.00  0.00     0.084 A 
HETATM    3  C   UNK N   1      -1.569   2.356   0.477  0.00  0.00     0.038 A 
HETATM    4  C   UNK N   1      -0.342   1.731   0.358  0.00  0.00     0.016 A 
HETATM    5  C   UNK N   1      -0.240   0.369   0.089  0.00  0.00    -0.012 A 
HETATM    6  C   UNK N   1       1.041  -0.279  -0.035  0.00  0.00     0.013 A 
HETATM    7  C   UNK N   1       1.046  -1.658  -0.289  0.00  0.00     0.015 A 
HETATM    8  C   UNK N   1      -0.120  -2.388  -0.424  0.00  0.00     0.002 A 
HETATM    9  C   UNK N   1      -1.345  -1.754  -0.326  0.00  0.00     0.013 A 
HETATM   10  C   UNK N   1      -1.446  -0.382  -0.069  0.00  0.00    -0.007 A 
ENDROOT
BRANCH   6  11
HETATM   11  C   UNK N   1       2.404   0.409  -0.006  0.00  0.00     0.110 C 
HETATM   12  S   UNK N   1       2.513   1.845  -0.152  0.00  0.00    -0.060 SA
BRANCH  11  13
HETATM   13  N   UNK N   1       3.611  -0.378  -0.066  0.00  0.00    -0.366 N 
HETATM   14  C   UNK N   1       3.714  -1.642   0.627  0.00  0.00     0.151 C 
BRANCH  13  15
HETATM   15  C   UNK N   1       4.679  -0.009  -0.976  0.00  0.00     0.233 C 
BRANCH  15  16
HETATM   16  C   UNK N   1       5.973   0.227  -0.275  0.00  0.00     0.158 C 
HETATM   17  O   UNK N   1       6.107   1.190   0.460  0.00  0.00    -0.649 OA
BRANCH  16  18
HETATM   18  O   UNK N   1       7.012  -0.599  -0.499  0.00  0.00    -0.775 OA
HETATM   19  H   UNK N   1       6.876  -1.513  -0.655  0.00  0.00     0.167 HD
ENDBRANCH  16  18
ENDBRANCH  15  16
ENDBRANCH  13  15
ENDBRANCH  11  13
ENDBRANCH   6  11
BRANCH   1  20
HETATM   20  C   UNK N   1      -4.031  -0.542  -0.187  0.00  0.00     0.420 C 
HETATM   21  F   UNK N   1      -3.852  -1.867  -0.534  0.00  0.00    -0.166 F 
HETATM   22  F   UNK N   1      -4.780  -0.542   0.974  0.00  0.00    -0.166 F 
HETATM   23  F   UNK N   1      -4.750   0.028  -1.223  0.00  0.00    -0.166 F 
ENDBRANCH   1  20
BRANCH   2  24
HETATM   24  O   UNK N   1      -3.891   2.425   0.471  0.00  0.00    -0.355 OA
HETATM   25  C   UNK N   1      -5.207   2.037   0.491  0.00  0.00     0.210 C 
ENDBRANCH   2  24
TORSDOF 7
