REMARK  6 active torsions:
REMARK  status: ('A' for Active; 'I' for Inactive)
REMARK    1  A    between atoms: O_3  and  C_23 
REMARK    2  A    between atoms: N_4  and  C_12 
REMARK    3  A    between atoms: N_5  and  C_13 
REMARK    4  A    between atoms: C_6  and  C_7 
REMARK    5  A    between atoms: C_7  and  C_10 
REMARK    6  A    between atoms: C_10  and  C_11 
ROOT
HETATM    1  O   UNK N   1       0.442   0.121   0.717  0.00  0.00    -0.270 OA
HETATM    2  O   UNK N   1       4.115   2.895   0.286  0.00  0.00    -0.270 OA
HETATM    3  N   UNK N   1       2.642  -0.170   0.212  0.00  0.00    -0.214 N 
HETATM    4  N   UNK N   1       3.743   0.652   0.083  0.00  0.00    -0.214 N 
HETATM    5  C   UNK N   1       1.898   2.041   0.681  0.00  0.00     0.174 A 
HETATM    6  C   UNK N   1       1.562   0.578   0.546  0.00  0.00     0.257 A 
HETATM    7  C   UNK N   1       3.356   1.938   0.297  0.00  0.00     0.257 A 
ENDROOT
BRANCH   3   8
HETATM    8  C   UNK N   1       2.580  -1.601   0.030  0.00  0.00     0.060 A 
HETATM    9  C   UNK N   1       3.388  -2.270  -0.906  0.00  0.00     0.034 A 
HETATM   10  C   UNK N   1       3.336  -3.662  -1.031  0.00  0.00     0.039 A 
HETATM   11  C   UNK N   1       2.461  -4.404  -0.234  0.00  0.00     0.065 A 
HETATM   12  C   UNK N   1       1.616  -3.751   0.662  0.00  0.00     0.039 A 
HETATM   13  C   UNK N   1       1.668  -2.361   0.784  0.00  0.00     0.034 A 
BRANCH  11  14
HETATM   14  O   UNK N   1       2.433  -5.743  -0.329  0.00  0.00    -0.361 OA
HETATM   15  H   UNK N   1       1.614  -6.193  -0.396  0.00  0.00     0.217 HD
ENDBRANCH  11  14
ENDBRANCH   3   8
BRANCH   4  16
HETATM   16  C   UNK N   1       5.135   0.254  -0.026  0.00  0.00     0.060 A 
HETATM   17  C   UNK N   1       6.141   1.219  -0.239  0.00  0.00     0.031 A 
HETATM   18  C   UNK N   1       7.494   0.869  -0.241  0.00  0.00     0.002 A 
HETATM   19  C   UNK N   1       7.872  -0.455  -0.020  0.00  0.00     0.000 A 
HETATM   20  C   UNK N   1       6.896  -1.424   0.207  0.00  0.00     0.002 A 
HETATM   21  C   UNK N   1       5.547  -1.064   0.219  0.00  0.00     0.031 A 
ENDBRANCH   4  16
BRANCH   5  22
HETATM   22  C   UNK N   1       1.121   2.952  -0.248  0.00  0.00     0.024 C 
BRANCH  22  23
HETATM   23  C   UNK N   1       0.947   4.280   0.475  0.00  0.00     0.001 C 
BRANCH  23  24
HETATM   24  C   UNK N   1       1.014   5.449  -0.486  0.00  0.00    -0.005 C 
HETATM   25  C   UNK N   1       2.458   5.739  -0.847  0.00  0.00     0.005 C 
ENDBRANCH  23  24
ENDBRANCH  22  23
ENDBRANCH   5  22
TORSDOF 6
