REMARK  3 active torsions:
REMARK  status: ('A' for Active; 'I' for Inactive)
REMARK    1  A    between atoms: O_1  and  C_5 
REMARK    2  A    between atoms: O_1  and  C_10 
REMARK    3  A    between atoms: N_3  and  C_4 
REMARK       I    between atoms: N_3  and  C_12 
ROOT
HETATM    1  C   UNK N   1       2.437   1.220  -0.002  0.00  0.00     0.034 A 
HETATM    2  C   UNK N   1       1.804  -1.521   0.001  0.00  0.00     0.068 A 
HETATM    3  C   UNK N   1       3.450   0.249  -0.001  0.00  0.00     0.032 A 
HETATM    4  C   UNK N   1       1.098   0.808  -0.002  0.00  0.00     0.032 A 
HETATM    5  C   UNK N   1       3.135  -1.107   0.001  0.00  0.00     0.039 A 
HETATM    6  C   UNK N   1       0.780  -0.555  -0.001  0.00  0.00     0.039 A 
ENDROOT
BRANCH   1   7
HETATM    7  N   UNK N   1       2.739   2.613  -0.006  0.00  0.00    -0.328 N 
HETATM    8  C   UNK N   1       3.989   3.151   0.001  0.00  0.00     0.218 C 
HETATM    9  O   UNK N   1       4.987   2.443   0.017  0.00  0.00    -0.274 OA
HETATM   10  C   UNK N   1       4.153   4.629  -0.010  0.00  0.00     0.117 C 
HETATM   11  H   UNK N   1       1.979   3.239  -0.015  0.00  0.00     0.169 HD
ENDBRANCH   1   7
BRANCH   2  12
HETATM   12  O   UNK N   1       1.541  -2.847   0.002  0.00  0.00    -0.352 OA
BRANCH  12  13
HETATM   13  C   UNK N   1       0.271  -3.372   0.000  0.00  0.00     0.171 C 
HETATM   14  C   UNK N   1       0.364  -4.883   0.000  0.00  0.00     0.034 C 
ENDBRANCH  12  13
ENDBRANCH   2  12
TORSDOF 3
