REMARK  7 active torsions:
REMARK  status: ('A' for Active; 'I' for Inactive)
REMARK    1  A    between atoms: O_5  and  C_22 
REMARK    2  A    between atoms: N_7  and  C_9 
REMARK       I    between atoms: N_7  and  C_13 
REMARK    3  A    between atoms: C_8  and  C_11 
REMARK    4  A    between atoms: C_8  and  C_13 
REMARK    5  A    between atoms: C_10  and  C_14 
REMARK    6  A    between atoms: C_15  and  C_18 
REMARK    7  A    between atoms: C_15  and  C_22 
ROOT
HETATM    1  I   UNK N   1       1.626   0.835  -0.535  0.00  0.00    -0.041 I 
HETATM    2  I   UNK N   1       4.986  -4.338  -0.224  0.00  0.00    -0.042 I 
HETATM    3  I   UNK N   1       7.726   0.696   0.948  0.00  0.00    -0.044 I 
HETATM    4  C   UNK N   1       3.523  -1.562  -0.246  0.00  0.00     0.069 A 
HETATM    5  C   UNK N   1       4.670   0.595   0.069  0.00  0.00    -0.000 A 
HETATM    6  C   UNK N   1       3.496  -0.155  -0.202  0.00  0.00     0.046 A 
HETATM    7  C   UNK N   1       4.744  -2.237  -0.047  0.00  0.00     0.035 A 
HETATM    8  C   UNK N   1       5.879  -0.113   0.322  0.00  0.00     0.019 A 
HETATM    9  C   UNK N   1       5.889  -1.506   0.243  0.00  0.00     0.039 A 
ENDROOT
BRANCH   5  10
HETATM   10  C   UNK N   1       4.492   2.080   0.111  0.00  0.00     0.028 C 
HETATM   11  C   UNK N   1       5.238   3.155  -0.223  0.00  0.00     0.016 C 
BRANCH  11  12
HETATM   12  C   UNK N   1       6.589   3.049  -0.864  0.00  0.00     0.041 C 
HETATM   13  C   UNK N   1       7.621   3.864  -0.093  0.00  0.00     0.010 C 
ENDBRANCH  11  12
BRANCH  11  14
HETATM   14  C   UNK N   1       4.616   4.501  -0.086  0.00  0.00     0.172 C 
HETATM   15  O   UNK N   1       3.483   4.617   0.357  0.00  0.00    -0.646 OA
BRANCH  14  16
HETATM   16  O   UNK N   1       5.284   5.604  -0.478  0.00  0.00    -0.773 OA
HETATM   17  H   UNK N   1       6.181   5.585  -0.751  0.00  0.00     0.167 HD
ENDBRANCH  14  16
ENDBRANCH  11  14
ENDBRANCH   5  10
BRANCH   4  18
HETATM   18  N   UNK N   1       2.306  -2.258  -0.517  0.00  0.00    -0.325 N 
HETATM   19  C   UNK N   1       1.805  -3.260   0.254  0.00  0.00     0.222 C 
HETATM   20  O   UNK N   1       2.354  -3.589   1.292  0.00  0.00    -0.273 OA
HETATM   21  H   UNK N   1       1.795  -1.995  -1.316  0.00  0.00     0.169 HD
BRANCH  19  22
HETATM   22  C   UNK N   1       0.502  -3.890  -0.123  0.00  0.00     0.103 C 
BRANCH  22  23
HETATM   23  C   UNK N   1       0.658  -5.387  -0.313  0.00  0.00     0.005 C 
HETATM   24  C   UNK N   1      -0.703  -6.045  -0.214  0.00  0.00     0.005 C 
ENDBRANCH  22  23
ENDBRANCH  19  22
ENDBRANCH   4  18
TORSDOF 7
