REMARK  1 active torsions:
REMARK  status: ('A' for Active; 'I' for Inactive)
REMARK    1  A    between atoms: O_3  and  C_8 
ROOT
HETATM    1  I   UNK N   1      -0.126  -1.724   0.000  0.00  0.00    -0.042 I 
HETATM    2 Cl   UNK N   1       2.626   3.262   0.000  0.00  0.00    -0.083 Cl
HETATM    3  N   UNK N   1       5.332  -1.151  -0.000  0.00  0.00    -0.363 N 
ATOM      4  HN  UNK N   1       5.374  -2.170  -0.000  1.00  0.00     0.165 HD
HETATM    5  C   UNK N   1       4.042   0.878  -0.000  0.00  0.00     0.015 A 
HETATM    6  C   UNK N   1       4.114  -0.535  -0.000  0.00  0.00     0.079 A 
HETATM    7  C   UNK N   1       2.935  -1.297   0.000  0.00  0.00     0.110 A 
HETATM    8  C   UNK N   1       2.785   1.513   0.000  0.00  0.00     0.048 A 
HETATM    9  C   UNK N   1       5.229   1.617  -0.000  0.00  0.00     0.017 A 
HETATM   10  C   UNK N   1       1.688  -0.649   0.000  0.00  0.00     0.043 A 
HETATM   11  C   UNK N   1       1.623   0.743   0.000  0.00  0.00     0.046 A 
HETATM   12  C   UNK N   1       6.459   0.958  -0.000  0.00  0.00     0.018 A 
HETATM   13  C   UNK N   1       6.490  -0.438  -0.000  0.00  0.00     0.088 A 
ENDROOT
BRANCH   7  14
HETATM   14  O   UNK N   1       2.997  -2.641  -0.000  0.00  0.00    -0.357 OA
HETATM   15  H   UNK N   1       2.209  -3.146  -0.000  0.00  0.00     0.217 HD
ENDBRANCH   7  14
TORSDOF 1
