REMARK  13 active torsions:
REMARK  status: ('A' for Active; 'I' for Inactive)
REMARK    1  A    between atoms: O_1  and  C_9 
REMARK    2  A    between atoms: O_1  and  C_14 
REMARK    3  A    between atoms: O_3  and  C_18 
REMARK    4  A    between atoms: O_3  and  C_19 
REMARK    5  A    between atoms: N_4  and  C_17 
REMARK    6  A    between atoms: N_4  and  C_21 
REMARK    7  A    between atoms: N_4  and  C_22 
REMARK    8  A    between atoms: C_5  and  C_6 
REMARK    9  A    between atoms: C_5  and  C_7 
REMARK   10  A    between atoms: C_5  and  C_8 
REMARK   11  A    between atoms: C_5  and  C_9 
REMARK   12  A    between atoms: C_14  and  C_18 
REMARK   13  A    between atoms: C_17  and  C_19 
ROOT
HETATM    1  O   UNK N   1       2.911  -1.284  -1.484  0.00  0.00    -0.264 OA
HETATM    2  C   UNK N   1       2.663  -0.991  -0.323  0.00  0.00     0.272 C 
ENDROOT
BRANCH   2   3
HETATM    3  O   UNK N   1       2.644   0.310   0.066  0.00  0.00    -0.319 OA
BRANCH   3   4
HETATM    4  C   UNK N   1       3.326   1.289  -0.617  0.00  0.00     0.205 C 
BRANCH   4   5
HETATM    5  C   UNK N   1       4.816   1.045  -0.429  0.00  0.00     0.194 C 
BRANCH   5   6
HETATM    6  O   UNK N   1       5.537   2.207  -0.670  0.00  0.00    -0.387 OA
BRANCH   6   7
HETATM    7  C   UNK N   1       6.009   2.592   0.587  0.00  0.00     0.198 C 
BRANCH   7   8
HETATM    8  C   UNK N   1       6.266   4.088   0.591  0.00  0.00     0.298 C 
BRANCH   8   9
HETATM    9  N   UNK N   1       7.185   4.438  -0.487  0.00  0.00     0.089 N 
BRANCH   9  10
HETATM   10  C   UNK N   1       7.049   5.861  -0.818  0.00  0.00     0.268 C 
HETATM   11  C   UNK N   1       7.428   6.786   0.337  0.00  0.00     0.037 C 
ENDBRANCH   9  10
BRANCH   9  12
HETATM   12  C   UNK N   1       8.554   4.118  -0.089  0.00  0.00     0.268 C 
HETATM   13  C   UNK N   1       9.430   3.957  -1.317  0.00  0.00     0.037 C 
ENDBRANCH   9  12
ENDBRANCH   8   9
ENDBRANCH   7   8
ENDBRANCH   6   7
ENDBRANCH   5   6
ENDBRANCH   4   5
ENDBRANCH   3   4
ENDBRANCH   2   3
BRANCH   2  14
HETATM   14  C   UNK N   1       2.455  -2.067   0.730  0.00  0.00     0.074 C 
BRANCH  14  15
HETATM   15  C   UNK N   1       3.468  -1.841   1.870  0.00  0.00     0.020 C 
HETATM   16  C   UNK N   1       4.929  -1.784   1.433  0.00  0.00     0.006 C 
ENDBRANCH  14  15
BRANCH  14  17
HETATM   17  C   UNK N   1       1.071  -1.862   1.375  0.00  0.00     0.020 C 
HETATM   18  C   UNK N   1      -0.085  -1.900   0.383  0.00  0.00     0.006 C 
ENDBRANCH  14  17
BRANCH  14  19
HETATM   19  C   UNK N   1       2.637  -3.485   0.167  0.00  0.00    -0.040 A 
HETATM   20  C   UNK N   1       3.847  -3.849  -0.453  0.00  0.00     0.008 A 
HETATM   21  C   UNK N   1       4.035  -5.139  -0.953  0.00  0.00     0.001 A 
HETATM   22  C   UNK N   1       3.018  -6.087  -0.838  0.00  0.00     0.000 A 
HETATM   23  C   UNK N   1       1.811  -5.744  -0.225  0.00  0.00     0.001 A 
HETATM   24  C   UNK N   1       1.621  -4.452   0.274  0.00  0.00     0.008 A 
ENDBRANCH  14  19
ENDBRANCH   2  14
TORSDOF 13
