REMARK  4 active torsions:
REMARK  status: ('A' for Active; 'I' for Inactive)
REMARK    1  A    between atoms: O_2  and  C_23 
REMARK    2  A    between atoms: O_3  and  C_24 
REMARK    3  A    between atoms: C_5  and  C_8 
REMARK    4  A    between atoms: C_5  and  C_9 
ROOT
HETATM    1  O   UNK N   1       4.630  -1.180  -2.226  0.00  0.00    -0.271 OA
HETATM    2  N   UNK N   1       3.373  -2.708  -1.175  0.00  0.00    -0.325 N 
HETATM    3  C   UNK N   1       3.741  -0.606  -0.022  0.00  0.00     0.124 A 
HETATM    4  C   UNK N   1       2.872  -1.598   0.757  0.00  0.00    -0.004 A 
HETATM    5  C   UNK N   1       3.971  -1.507  -1.256  0.00  0.00     0.244 A 
HETATM    6  C   UNK N   1       2.691  -2.755   0.027  0.00  0.00     0.043 A 
HETATM    7  C   UNK N   1       2.211  -1.436   1.980  0.00  0.00     0.011 A 
HETATM    8  C   UNK N   1       1.861  -3.788   0.450  0.00  0.00     0.030 A 
HETATM    9  C   UNK N   1       1.363  -2.466   2.434  0.00  0.00     0.001 A 
HETATM   10  C   UNK N   1       1.187  -3.637   1.669  0.00  0.00     0.002 A 
HETATM   11  H   UNK N   1       3.414  -3.424  -1.849  0.00  0.00     0.169 HD
ENDROOT
BRANCH   3  12
HETATM   12  C   UNK N   1       2.955   0.649  -0.382  0.00  0.00    -0.031 A 
HETATM   13  C   UNK N   1       2.154   1.267   0.598  0.00  0.00     0.012 A 
HETATM   14  C   UNK N   1       1.634   2.544   0.395  0.00  0.00     0.037 A 
HETATM   15  C   UNK N   1       1.935   3.237  -0.777  0.00  0.00     0.065 A 
HETATM   16  C   UNK N   1       2.742   2.646  -1.752  0.00  0.00     0.037 A 
HETATM   17  C   UNK N   1       3.268   1.369  -1.546  0.00  0.00     0.012 A 
BRANCH  15  18
HETATM   18  O   UNK N   1       1.458   4.478  -0.961  0.00  0.00    -0.361 OA
HETATM   19  H   UNK N   1       2.042   5.199  -1.090  0.00  0.00     0.217 HD
ENDBRANCH  15  18
ENDBRANCH   3  12
BRANCH   3  20
HETATM   20  C   UNK N   1       5.080  -0.139   0.588  0.00  0.00    -0.031 A 
HETATM   21  C   UNK N   1       5.108   1.015   1.401  0.00  0.00     0.012 A 
HETATM   22  C   UNK N   1       6.307   1.687   1.655  0.00  0.00     0.037 A 
HETATM   23  C   UNK N   1       7.500   1.220   1.102  0.00  0.00     0.065 A 
HETATM   24  C   UNK N   1       7.502   0.050   0.341  0.00  0.00     0.037 A 
HETATM   25  C   UNK N   1       6.302  -0.611   0.070  0.00  0.00     0.012 A 
BRANCH  23  26
HETATM   26  O   UNK N   1       8.642   1.902   1.288  0.00  0.00    -0.361 OA
HETATM   27  H   UNK N   1       9.452   1.451   1.417  0.00  0.00     0.217 HD
ENDBRANCH  23  26
ENDBRANCH   3  20
TORSDOF 4
