REMARK  3 active torsions:
REMARK  status: ('A' for Active; 'I' for Inactive)
REMARK       I    between atoms: N_4  and  C_16 
REMARK    1  A    between atoms: N_4  and  C_21 
REMARK    2  A    between atoms: N_4  and  C_22 
REMARK    3  A    between atoms: C_8  and  C_16 
ROOT
HETATM    1  N   UNK N   1       4.716   1.248  -0.208  0.00  0.00     0.094 N 
HETATM    2  N   UNK N   1       6.363  -4.613  -0.291  0.00  0.00    -0.365 N 
HETATM    3  C   UNK N   1       4.806  -0.226  -0.371  0.00  0.00     0.260 C 
HETATM    4  C   UNK N   1       3.605  -0.973   0.238  0.00  0.00    -0.017 C 
HETATM    5  C   UNK N   1       6.155  -0.892   0.062  0.00  0.00     0.081 C 
HETATM    6  C   UNK N   1       2.667   1.125   1.179  0.00  0.00     0.129 C 
HETATM    7  C   UNK N   1       4.101   1.675   1.048  0.00  0.00     0.290 C 
HETATM    8  C   UNK N   1       6.038  -2.394  -0.115  0.00  0.00    -0.027 A 
HETATM    9  C   UNK N   1       3.612  -2.444   0.137  0.00  0.00    -0.015 A 
HETATM   10  C   UNK N   1       4.841  -3.025  -0.052  0.00  0.00     0.009 A 
HETATM   11  C   UNK N   1       2.633  -0.348   0.908  0.00  0.00    -0.001 C 
HETATM   12  C   UNK N   1       5.047  -4.352  -0.146  0.00  0.00     0.043 A 
HETATM   13  C   UNK N   1       6.007   1.910  -0.357  0.00  0.00     0.310 C 
HETATM   14  C   UNK N   1       6.992  -3.398  -0.264  0.00  0.00     0.096 A 
HETATM   15  C   UNK N   1       2.501  -3.299   0.279  0.00  0.00     0.013 A 
HETATM   16  C   UNK N   1       3.980  -5.248  -0.050  0.00  0.00     0.030 A 
HETATM   17  C   UNK N   1       2.687  -4.704   0.170  0.00  0.00     0.003 A 
HETATM   18  H   UNK N   1       6.785  -5.496  -0.396  0.00  0.00     0.165 HD
ENDROOT
BRANCH   6  19
HETATM   19  C   UNK N   1       1.442   1.822   0.591  0.00  0.00     0.229 C 
HETATM   20  O   UNK N   1       0.353   1.308   0.828  0.00  0.00    -0.273 OA
HETATM   21  N   UNK N   1       1.473   2.984  -0.136  0.00  0.00    -0.352 N 
BRANCH  21  22
HETATM   22  C   UNK N   1       2.710   3.661  -0.456  0.00  0.00     0.121 C 
HETATM   23  C   UNK N   1       2.958   4.804   0.512  0.00  0.00     0.026 C 
ENDBRANCH  21  22
BRANCH  21  24
HETATM   24  C   UNK N   1       0.231   3.538  -0.640  0.00  0.00     0.121 C 
HETATM   25  C   UNK N   1      -0.169   4.783   0.133  0.00  0.00     0.026 C 
ENDBRANCH  21  24
ENDBRANCH   6  19
TORSDOF 3
