REMARK  6 active torsions:
REMARK  status: ('A' for Active; 'I' for Inactive)
REMARK    1  A    between atoms: O_4  and  C_9 
REMARK    2  A    between atoms: O_4  and  C_17 
REMARK    3  A    between atoms: O_6  and  C_20 
REMARK    4  A    between atoms: C_8  and  C_12 
REMARK    5  A    between atoms: C_12  and  C_15 
REMARK    6  A    between atoms: C_17  and  C_20 
ROOT
HETATM    1 Cl   UNK N   1       0.151   1.557  -0.000  0.00  0.00    -0.081 Cl
HETATM    2 Cl   UNK N   1       0.302  -1.602  -0.000  0.00  0.00    -0.080 Cl
HETATM    3  C   UNK N   1       2.949   1.520   0.000  0.00  0.00     0.039 A 
HETATM    4  C   UNK N   1       3.026  -1.311  -0.000  0.00  0.00     0.092 A 
HETATM    5  C   UNK N   1       1.734   0.769  -0.000  0.00  0.00     0.072 A 
HETATM    6  C   UNK N   1       4.157   0.821   0.000  0.00  0.00     0.020 A 
HETATM    7  C   UNK N   1       1.786  -0.649  -0.000  0.00  0.00     0.090 A 
HETATM    8  C   UNK N   1       4.202  -0.559   0.000  0.00  0.00     0.039 A 
ENDROOT
BRANCH   3   9
HETATM    9  C   UNK N   1       3.003   3.025   0.000  0.00  0.00     0.200 C 
HETATM   10  O   UNK N   1       1.972   3.674   0.000  0.00  0.00    -0.286 OA
BRANCH   9  11
HETATM   11  C   UNK N   1       4.298   3.770   0.000  0.00  0.00     0.055 A 
HETATM   12  S   UNK N   1       4.457   5.417   0.000  0.00  0.00    -0.098 SA
HETATM   13  C   UNK N   1       6.113   5.554  -0.000  0.00  0.00     0.050 A 
HETATM   14  C   UNK N   1       6.607   4.244  -0.000  0.00  0.00     0.009 A 
HETATM   15  C   UNK N   1       5.594   3.246   0.000  0.00  0.00     0.023 A 
ENDBRANCH   9  11
ENDBRANCH   3   9
BRANCH   4  16
HETATM   16  O   UNK N   1       3.087  -2.668  -0.000  0.00  0.00    -0.339 OA
BRANCH  16  17
HETATM   17  C   UNK N   1       4.298  -3.335  -0.000  0.00  0.00     0.285 C 
BRANCH  17  18
HETATM   18  C   UNK N   1       4.142  -4.820  -0.000  0.00  0.00     0.164 C 
HETATM   19  O   UNK N   1       3.035  -5.334   0.000  0.00  0.00    -0.648 OA
BRANCH  18  20
HETATM   20  O   UNK N   1       5.241  -5.597   0.000  0.00  0.00    -0.775 OA
HETATM   21  H   UNK N   1       5.156  -6.530   0.000  0.00  0.00     0.167 HD
ENDBRANCH  18  20
ENDBRANCH  17  18
ENDBRANCH  16  17
ENDBRANCH   4  16
TORSDOF 6
