REMARK  4 active torsions:
REMARK  status: ('A' for Active; 'I' for Inactive)
REMARK    1  A    between atoms: N_2  and  C_6 
REMARK    2  A    between atoms: C_5  and  C_8 
REMARK    3  A    between atoms: C_5  and  C_9 
REMARK    4  A    between atoms: C_6  and  C_7 
ROOT
HETATM    1  C   UNK N   1       3.504   0.829   0.124  0.00  0.00    -0.016 C 
HETATM    2  C   UNK N   1       2.312   1.458   0.305  0.00  0.00     0.016 C 
ENDROOT
BRANCH   1   3
HETATM    3  C   UNK N   1       3.460  -0.681   0.033  0.00  0.00    -0.025 A 
HETATM    4  C   UNK N   1       4.629  -1.451  -0.090  0.00  0.00     0.013 A 
HETATM    5  C   UNK N   1       4.581  -2.845  -0.107  0.00  0.00     0.020 A 
HETATM    6  C   UNK N   1       3.356  -3.501  -0.002  0.00  0.00     0.011 A 
HETATM    7 Br   UNK N   1       3.300  -5.406   0.018  0.00  0.00    -0.051 Br
HETATM    8  C   UNK N   1       2.177  -2.760   0.106  0.00  0.00     0.020 A 
HETATM    9  C   UNK N   1       2.228  -1.362   0.125  0.00  0.00     0.013 A 
ENDBRANCH   1   3
BRANCH   1  10
HETATM   10  C   UNK N   1       4.818   1.597   0.067  0.00  0.00    -0.010 A 
HETATM   11  C   UNK N   1       4.858   3.000   0.139  0.00  0.00     0.015 A 
HETATM   12  C   UNK N   1       6.067   3.690   0.089  0.00  0.00     0.018 A 
HETATM   13  C   UNK N   1       7.254   2.973  -0.035  0.00  0.00     0.087 A 
HETATM   14  N   UNK N   1       7.222   1.618  -0.109  0.00  0.00    -0.374 N 
HETATM   15  C   UNK N   1       6.049   0.931  -0.062  0.00  0.00     0.099 A 
ATOM     16  HN  UNK N   1       8.097   1.103  -0.202  1.00  0.00     0.164 HD
ENDBRANCH   1  10
BRANCH   2  17
HETATM   17  C   UNK N   1       2.101   2.930   0.521  0.00  0.00     0.299 C 
BRANCH  17  18
HETATM   18  N   UNK N   1       1.404   3.535  -0.600  0.00  0.00     0.083 N 
HETATM   19  C   UNK N   1       1.771   4.940  -0.602  0.00  0.00     0.309 C 
HETATM   20  C   UNK N   1      -0.020   3.477  -0.318  0.00  0.00     0.309 C 
ENDBRANCH  17  18
ENDBRANCH   2  17
TORSDOF 4
