REMARK  2 active torsions:
REMARK  status: ('A' for Active; 'I' for Inactive)
REMARK    1  A    between atoms: C_2  and  C_16 
REMARK       I    between atoms: C_5  and  N_20 
REMARK    2  A    between atoms: C_16  and  C_17 
ROOT
HETATM    1  C   UNK N   1      -0.553  -1.677  -0.032  0.00  0.00     0.257 A 
HETATM    2  C   UNK N   1      -2.015  -1.357  -0.003  0.00  0.00     0.178 A 
HETATM    3  C   UNK N   1      -1.862   0.144  -0.076  0.00  0.00     0.273 A 
HETATM    4  N   UNK N   1      -0.544   0.535  -0.166  0.00  0.00    -0.041 N 
HETATM    5  C   UNK N   1       0.037   1.796  -0.241  0.00  0.00     0.704 A 
HETATM    6  N   UNK N   1       1.398   1.877  -0.280  0.00  0.00    -0.188 N 
ATOM      7  HN  UNK N   1       1.839   2.796  -0.321  1.00  0.00     0.184 HD
HETATM    8  C   UNK N   1       2.180   0.773  -0.267  0.00  0.00     0.078 A 
HETATM    9  C   UNK N   1       3.572   0.893  -0.330  0.00  0.00     0.033 A 
HETATM   10  C   UNK N   1       4.374  -0.251  -0.293  0.00  0.00     0.009 A 
HETATM   11  C   UNK N   1       3.785  -1.515  -0.191  0.00  0.00    -0.060 A 
HETATM   12  C   UNK N   1       2.393  -1.637  -0.139  0.00  0.00     0.040 A 
HETATM   13  C   UNK N   1       1.583  -0.490  -0.181  0.00  0.00     0.088 A 
HETATM   14  N   UNK N   1       0.220  -0.554  -0.132  0.00  0.00    -0.197 N 
HETATM   15  O   UNK N   1      -0.102  -2.812   0.024  0.00  0.00    -0.270 OA
HETATM   16  O   UNK N   1      -2.814   0.902  -0.034  0.00  0.00    -0.270 OA
HETATM   17  N   UNK N   1      -0.701   3.030  -0.264  0.00  0.00    -0.224 N 
HETATM   18  C   UNK N   1      -0.013   4.255   0.057  0.00  0.00     0.168 C 
HETATM   19  C   UNK N   1      -1.996   3.164  -0.870  0.00  0.00     0.168 C 
HETATM   20  C   UNK N   1       4.638  -2.730  -0.125  0.00  0.00     0.048 C 
ENDROOT
BRANCH   2  21
HETATM   21  C   UNK N   1      -2.667  -1.820   1.300  0.00  0.00     0.050 C 
BRANCH  21  22
HETATM   22  C   UNK N   1      -4.146  -1.575   1.303  0.00  0.00    -0.036 C 
HETATM   23  C   UNK N   1      -4.946  -2.224   0.458  0.00  0.00     0.007 C 
ENDBRANCH  21  22
ENDBRANCH   2  21
TORSDOF 2
