REMARK  1 active torsions:
REMARK  status: ('A' for Active; 'I' for Inactive)
REMARK    1  A    between atoms: C_17  and  O_20 
ROOT
HETATM    1  C   UNK N   1      15.282  -9.112  -0.254  0.00  0.00     0.021 C 
HETATM    2  C   UNK N   1      15.412 -10.471   0.421  0.00  0.00     0.006 C 
HETATM    3  C   UNK N   1      16.747 -11.030  -0.057  0.00  0.00     0.013 C 
HETATM    4  C   UNK N   1      17.664  -9.796  -0.034  0.00  0.00     0.079 C 
HETATM    5  C   UNK N   1      16.696  -8.670  -0.207  0.00  0.00     0.135 C 
HETATM    6  C   UNK N   1      14.292  -8.323   0.592  0.00  0.00     0.018 C 
HETATM    7  C   UNK N   1      12.912  -8.976   0.472  0.00  0.00     0.007 C 
HETATM    8  C   UNK N   1      12.835 -10.523   0.679  0.00  0.00     0.002 C 
HETATM    9  C   UNK N   1      14.145 -11.338   0.321  0.00  0.00    -0.004 C 
HETATM   10  C   UNK N   1      11.573 -11.024  -0.118  0.00  0.00    -0.013 C 
HETATM   11  C   UNK N   1      11.605 -12.538  -0.298  0.00  0.00    -0.034 C 
HETATM   12  C   UNK N   1      12.893 -13.172  -0.787  0.00  0.00     0.038 C 
HETATM   13  C   UNK N   1      14.001 -12.119  -0.986  0.00  0.00     0.010 C 
HETATM   14  C   UNK N   1      10.316 -10.529   0.624  0.00  0.00     0.022 C 
HETATM   15  C   UNK N   1       9.047 -11.187   0.116  0.00  0.00     0.087 C 
HETATM   16  C   UNK N   1       9.198 -12.670   0.206  0.00  0.00     0.182 C 
HETATM   17  C   UNK N   1      10.503 -13.302  -0.105  0.00  0.00     0.114 C 
HETATM   18  O   UNK N   1       8.216 -13.363   0.428  0.00  0.00    -0.290 OA
HETATM   19  O   UNK N   1      17.049  -7.525  -0.441  0.00  0.00    -0.297 OA
HETATM   20  C   UNK N   1      11.564 -10.446  -1.540  0.00  0.00     0.020 C 
HETATM   21  C   UNK N   1      14.856  -9.156  -1.724  0.00  0.00     0.024 C 
ENDROOT
BRANCH  17  22
HETATM   22  O   UNK N   1      10.571 -14.640  -0.247  0.00  0.00    -0.357 OA
HETATM   23  H   UNK N   1       9.789 -15.147  -0.346  0.00  0.00     0.218 HD
ENDBRANCH  17  22
TORSDOF 1
