REMARK  7 active torsions:
REMARK  status: ('A' for Active; 'I' for Inactive)
REMARK    1  A    between atoms: C_1  and  O_28 
REMARK    2  A    between atoms: C_12  and  C_13 
REMARK    3  A    between atoms: C_13  and  C_14 
REMARK    4  A    between atoms: C_14  and  C_15 
REMARK    5  A    between atoms: C_15  and  C_16 
REMARK    6  A    between atoms: C_16  and  O_26 
REMARK    7  A    between atoms: C_20  and  O_27 
ROOT
HETATM    1  C   UNK N   1      -4.541  -3.023  -0.754  0.00  0.00     0.118 C 
HETATM    2  C   UNK N   1      -3.963  -1.772  -1.438  0.00  0.00     0.032 C 
HETATM    3  C   UNK N   1      -2.563  -1.334  -0.963  0.00  0.00     0.012 C 
HETATM    4  C   UNK N   1      -3.487  -4.069  -0.394  0.00  0.00     0.037 C 
HETATM    5  C   UNK N   1      -2.175  -3.533   0.209  0.00  0.00    -0.004 C 
HETATM    6  C   UNK N   1      -1.065  -4.050  -0.711  0.00  0.00     0.006 C 
HETATM    7  C   UNK N   1       0.308  -3.636  -0.201  0.00  0.00     0.006 C 
HETATM    8  C   UNK N   1       0.411  -2.113  -0.198  0.00  0.00    -0.005 C 
HETATM    9  C   UNK N   1       1.787  -1.647   0.316  0.00  0.00     0.001 C 
HETATM   10  C   UNK N   1       2.937  -2.217  -0.515  0.00  0.00     0.006 C 
HETATM   11  C   UNK N   1       3.847  -1.056  -0.849  0.00  0.00     0.006 C 
HETATM   12  C   UNK N   1       2.921   0.140  -0.873  0.00  0.00     0.000 C 
HETATM   13  C   UNK N   1       1.938  -0.096   0.291  0.00  0.00    -0.010 C 
HETATM   14  C   UNK N   1       2.556   0.350   1.617  0.00  0.00     0.018 C 
HETATM   15  C   UNK N   1       0.586   0.643   0.088  0.00  0.00     0.127 C 
HETATM   16  C   UNK N   1      -0.544   0.012   0.916  0.00  0.00     0.038 C 
HETATM   17  C   UNK N   1      -0.673  -1.529   0.750  0.00  0.00     0.001 C 
HETATM   18  C   UNK N   1      -2.115  -1.977   0.359  0.00  0.00    -0.036 C 
HETATM   19  C   UNK N   1      -3.051  -1.514   1.480  0.00  0.00     0.016 C 
ENDROOT
BRANCH  12  20
HETATM   20  C   UNK N   1       3.710   1.463  -0.997  0.00  0.00    -0.013 C 
HETATM   21  C   UNK N   1       4.812   1.669   0.032  0.00  0.00     0.010 C 
BRANCH  20  22
HETATM   22  C   UNK N   1       2.919   2.731  -1.331  0.00  0.00     0.015 C 
BRANCH  22  23
HETATM   23  C   UNK N   1       2.001   3.258  -0.232  0.00  0.00     0.110 C 
BRANCH  23  24
HETATM   24  C   UNK N   1       2.704   4.124   0.764  0.00  0.00     0.139 C 
HETATM   25  O   UNK N   1       2.485   5.321   0.785  0.00  0.00    -0.650 OA
BRANCH  24  26
HETATM   26  O   UNK N   1       3.522   3.579   1.685  0.00  0.00    -0.776 OA
HETATM   27  H   UNK N   1       3.478   2.897   2.326  0.00  0.00     0.167 HD
ENDBRANCH  24  26
ENDBRANCH  23  24
ENDBRANCH  22  23
ENDBRANCH  20  22
ENDBRANCH  12  20
BRANCH  15  28
HETATM   28  O   UNK N   1       0.203   0.664  -1.257  0.00  0.00    -0.395 OA
HETATM   29  H   UNK N   1       0.083   0.902  -2.190  0.00  0.00     0.210 HD
ENDBRANCH  15  28
BRANCH   1  30
HETATM   30  O   UNK N   1      -5.302  -2.688   0.366  0.00  0.00    -0.396 OA
HETATM   31  H   UNK N   1      -5.366  -2.113   1.145  0.00  0.00     0.210 HD
ENDBRANCH   1  30
TORSDOF 7
