MODEL 1
REMARK VINA RESULT:      -7.3      0.000      0.000
REMARK  7 active torsions:
REMARK  status: ('A' for Active; 'I' for Inactive)
REMARK    1  A    between atoms: C_1  and  O_28 
REMARK    2  A    between atoms: C_12  and  C_13 
REMARK    3  A    between atoms: C_13  and  C_14 
REMARK    4  A    between atoms: C_14  and  C_15 
REMARK    5  A    between atoms: C_15  and  C_16 
REMARK    6  A    between atoms: C_16  and  O_26 
REMARK    7  A    between atoms: C_20  and  O_27 
ROOT
HETATM    1  C   UNK N   1      34.792  15.704   6.922  0.00  0.00     0.118 C 
HETATM    2  C   UNK N   1      34.224  16.413   5.681  0.00  0.00     0.032 C 
HETATM    3  C   UNK N   1      32.701  16.656   5.685  0.00  0.00     0.012 C 
HETATM    4  C   UNK N   1      34.073  16.068   8.221  0.00  0.00     0.037 C 
HETATM    5  C   UNK N   1      32.537  16.145   8.149  0.00  0.00    -0.004 C 
HETATM    6  C   UNK N   1      32.179  17.559   8.617  0.00  0.00     0.006 C 
HETATM    7  C   UNK N   1      30.671  17.762   8.648  0.00  0.00     0.006 C 
HETATM    8  C   UNK N   1      30.109  17.609   7.237  0.00  0.00    -0.005 C 
HETATM    9  C   UNK N   1      28.580  17.803   7.220  0.00  0.00     0.001 C 
HETATM   10  C   UNK N   1      28.166  19.168   7.770  0.00  0.00     0.006 C 
HETATM   11  C   UNK N   1      27.191  19.758   6.776  0.00  0.00     0.006 C 
HETATM   12  C   UNK N   1      27.605  19.152   5.453  0.00  0.00     0.000 C 
HETATM   13  C   UNK N   1      27.981  17.694   5.785  0.00  0.00    -0.010 C 
HETATM   14  C   UNK N   1      26.731  16.816   5.850  0.00  0.00     0.018 C 
HETATM   15  C   UNK N   1      28.975  17.086   4.757  0.00  0.00     0.127 C 
HETATM   16  C   UNK N   1      29.748  15.894   5.340  0.00  0.00     0.038 C 
HETATM   17  C   UNK N   1      30.411  16.175   6.719  0.00  0.00     0.001 C 
HETATM   18  C   UNK N   1      31.934  15.840   6.738  0.00  0.00    -0.036 C 
HETATM   19  C   UNK N   1      32.073  14.350   6.411  0.00  0.00     0.016 C 
ENDROOT
BRANCH  12  20
HETATM   20  C   UNK N   1      26.587  19.480   4.338  0.00  0.00    -0.013 C 
HETATM   21  C   UNK N   1      27.047  20.501   3.308  0.00  0.00     0.010 C 
BRANCH  20  22
HETATM   22  C   UNK N   1      25.115  19.614   4.739  0.00  0.00     0.015 C 
BRANCH  22  23
HETATM   23  C   UNK N   1      24.097  19.033   3.762  0.00  0.00     0.110 C 
BRANCH  23  24
HETATM   24  C   UNK N   1      23.160  20.055   3.203  0.00  0.00     0.139 C 
HETATM   25  O   UNK N   1      23.555  21.187   2.993  0.00  0.00    -0.650 OA
BRANCH  24  26
HETATM   26  O   UNK N   1      21.902  19.714   2.863  0.00  0.00    -0.776 OA
HETATM   27  H   UNK N   1      21.050  19.752   3.252  0.00  0.00     0.167 HD
ENDBRANCH  24  26
ENDBRANCH  23  24
ENDBRANCH  22  23
ENDBRANCH  20  22
ENDBRANCH  12  20
BRANCH  15  28
HETATM   28  O   UNK N   1      29.892  18.037   4.296  0.00  0.00    -0.395 OA
HETATM   29  H   UNK N   1      30.625  18.668   4.223  0.00  0.00     0.210 HD
ENDBRANCH  15  28
BRANCH   1  30
HETATM   30  O   UNK N   1      34.824  14.320   6.751  0.00  0.00    -0.396 OA
HETATM   31  H   UNK N   1      35.386  13.552   6.565  0.00  0.00     0.210 HD
ENDBRANCH   1  30
TORSDOF 7
ENDMDL
MODEL 2
REMARK VINA RESULT:      -7.2     10.695     12.794
REMARK  7 active torsions:
REMARK  status: ('A' for Active; 'I' for Inactive)
REMARK    1  A    between atoms: C_1  and  O_28 
REMARK    2  A    between atoms: C_12  and  C_13 
REMARK    3  A    between atoms: C_13  and  C_14 
REMARK    4  A    between atoms: C_14  and  C_15 
REMARK    5  A    between atoms: C_15  and  C_16 
REMARK    6  A    between atoms: C_16  and  O_26 
REMARK    7  A    between atoms: C_20  and  O_27 
ROOT
HETATM    1  C   UNK N   1      33.987  21.313  -4.594  0.00  0.00     0.118 C 
HETATM    2  C   UNK N   1      33.625  22.573  -5.399  0.00  0.00     0.032 C 
HETATM    3  C   UNK N   1      32.123  22.914  -5.472  0.00  0.00     0.012 C 
HETATM    4  C   UNK N   1      33.084  21.076  -3.385  0.00  0.00     0.037 C 
HETATM    5  C   UNK N   1      31.577  21.309  -3.605  0.00  0.00    -0.004 C 
HETATM    6  C   UNK N   1      31.171  22.355  -2.563  0.00  0.00     0.006 C 
HETATM    7  C   UNK N   1      29.679  22.647  -2.630  0.00  0.00     0.006 C 
HETATM    8  C   UNK N   1      29.337  23.232  -3.998  0.00  0.00    -0.005 C 
HETATM    9  C   UNK N   1      27.832  23.541  -4.113  0.00  0.00     0.001 C 
HETATM   10  C   UNK N   1      27.357  24.510  -3.030  0.00  0.00     0.006 C 
HETATM   11  C   UNK N   1      26.553  25.582  -3.731  0.00  0.00     0.006 C 
HETATM   12  C   UNK N   1      27.156  25.645  -5.116  0.00  0.00     0.000 C 
HETATM   13  C   UNK N   1      27.458  24.179  -5.485  0.00  0.00    -0.010 C 
HETATM   14  C   UNK N   1      26.201  23.486  -6.013  0.00  0.00     0.018 C 
HETATM   15  C   UNK N   1      28.589  24.051  -6.543  0.00  0.00     0.127 C 
HETATM   16  C   UNK N   1      29.248  22.663  -6.515  0.00  0.00     0.038 C 
HETATM   17  C   UNK N   1      29.696  22.197  -5.101  0.00  0.00     0.001 C 
HETATM   18  C   UNK N   1      31.194  21.765  -5.052  0.00  0.00    -0.036 C 
HETATM   19  C   UNK N   1      31.360  20.604  -6.038  0.00  0.00     0.016 C 
ENDROOT
BRANCH  12  20
HETATM   20  C   UNK N   1      26.325  26.550  -6.054  0.00  0.00    -0.013 C 
HETATM   21  C   UNK N   1      26.891  26.741  -7.453  0.00  0.00     0.010 C 
BRANCH  20  22
HETATM   22  C   UNK N   1      25.703  27.813  -5.451  0.00  0.00     0.015 C 
BRANCH  22  23
HETATM   23  C   UNK N   1      26.680  28.912  -5.042  0.00  0.00     0.110 C 
BRANCH  23  24
HETATM   24  C   UNK N   1      26.403  29.477  -3.686  0.00  0.00     0.139 C 
HETATM   25  O   UNK N   1      26.634  28.810  -2.694  0.00  0.00    -0.650 OA
BRANCH  24  26
HETATM   26  O   UNK N   1      25.968  30.745  -3.550  0.00  0.00    -0.776 OA
HETATM   27  H   UNK N   1      26.150  31.579  -3.936  0.00  0.00     0.167 HD
ENDBRANCH  24  26
ENDBRANCH  23  24
ENDBRANCH  22  23
ENDBRANCH  20  22
ENDBRANCH  12  20
BRANCH  15  28
HETATM   28  O   UNK N   1      29.578  25.024  -6.365  0.00  0.00    -0.395 OA
HETATM   29  H   UNK N   1      30.262  25.697  -6.509  0.00  0.00     0.210 HD
ENDBRANCH  15  28
BRANCH   1  30
HETATM   30  O   UNK N   1      34.026  20.180  -5.406  0.00  0.00    -0.396 OA
HETATM   31  H   UNK N   1      34.004  19.210  -5.426  0.00  0.00     0.210 HD
ENDBRANCH   1  30
TORSDOF 7
ENDMDL
MODEL 3
REMARK VINA RESULT:      -7.1     10.966     14.821
REMARK  7 active torsions:
REMARK  status: ('A' for Active; 'I' for Inactive)
REMARK    1  A    between atoms: C_1  and  O_28 
REMARK    2  A    between atoms: C_12  and  C_13 
REMARK    3  A    between atoms: C_13  and  C_14 
REMARK    4  A    between atoms: C_14  and  C_15 
REMARK    5  A    between atoms: C_15  and  C_16 
REMARK    6  A    between atoms: C_16  and  O_26 
REMARK    7  A    between atoms: C_20  and  O_27 
ROOT
HETATM    1  C   UNK N   1      25.584  28.042  -5.086  0.00  0.00     0.118 C 
HETATM    2  C   UNK N   1      27.117  28.111  -5.192  0.00  0.00     0.032 C 
HETATM    3  C   UNK N   1      27.860  26.766  -5.059  0.00  0.00     0.012 C 
HETATM    4  C   UNK N   1      24.983  26.768  -5.678  0.00  0.00     0.037 C 
HETATM    5  C   UNK N   1      25.727  25.456  -5.365  0.00  0.00    -0.004 C 
HETATM    6  C   UNK N   1      26.067  24.847  -6.728  0.00  0.00     0.006 C 
HETATM    7  C   UNK N   1      26.766  23.504  -6.571  0.00  0.00     0.006 C 
HETATM    8  C   UNK N   1      28.088  23.703  -5.834  0.00  0.00    -0.005 C 
HETATM    9  C   UNK N   1      28.830  22.365  -5.648  0.00  0.00     0.001 C 
HETATM   10  C   UNK N   1      29.109  21.669  -6.980  0.00  0.00     0.006 C 
HETATM   11  C   UNK N   1      30.567  21.269  -6.964  0.00  0.00     0.006 C 
HETATM   12  C   UNK N   1      31.220  22.300  -6.071  0.00  0.00     0.000 C 
HETATM   13  C   UNK N   1      30.205  22.541  -4.935  0.00  0.00    -0.010 C 
HETATM   14  C   UNK N   1      30.333  21.461  -3.860  0.00  0.00     0.018 C 
HETATM   15  C   UNK N   1      30.372  23.937  -4.273  0.00  0.00     0.127 C 
HETATM   16  C   UNK N   1      29.091  24.390  -3.556  0.00  0.00     0.038 C 
HETATM   17  C   UNK N   1      27.804  24.289  -4.423  0.00  0.00     0.001 C 
HETATM   18  C   UNK N   1      27.005  25.627  -4.480  0.00  0.00    -0.036 C 
HETATM   19  C   UNK N   1      26.614  25.981  -3.042  0.00  0.00     0.016 C 
ENDROOT
BRANCH  12  20
HETATM   20  C   UNK N   1      32.690  21.934  -5.764  0.00  0.00    -0.013 C 
HETATM   21  C   UNK N   1      33.718  23.000  -6.113  0.00  0.00     0.010 C 
BRANCH  20  22
HETATM   22  C   UNK N   1      33.141  20.503  -6.070  0.00  0.00     0.015 C 
BRANCH  22  23
HETATM   23  C   UNK N   1      33.300  19.578  -4.867  0.00  0.00     0.110 C 
BRANCH  23  24
HETATM   24  C   UNK N   1      34.072  20.192  -3.744  0.00  0.00     0.139 C 
HETATM   25  O   UNK N   1      35.258  20.427  -3.884  0.00  0.00    -0.650 OA
BRANCH  24  26
HETATM   26  O   UNK N   1      33.450  20.553  -2.605  0.00  0.00    -0.776 OA
HETATM   27  H   UNK N   1      33.084  21.335  -2.240  0.00  0.00     0.167 HD
ENDBRANCH  24  26
ENDBRANCH  23  24
ENDBRANCH  22  23
ENDBRANCH  20  22
ENDBRANCH  12  20
BRANCH  15  28
HETATM   28  O   UNK N   1      30.737  24.914  -5.206  0.00  0.00    -0.395 OA
HETATM   29  H   UNK N   1      31.081  25.378  -5.986  0.00  0.00     0.210 HD
ENDBRANCH  15  28
BRANCH   1  30
HETATM   30  O   UNK N   1      25.154  28.222  -3.771  0.00  0.00    -0.396 OA
HETATM   31  H   UNK N   1      25.108  27.829  -2.885  0.00  0.00     0.210 HD
ENDBRANCH   1  30
TORSDOF 7
ENDMDL
MODEL 4
REMARK VINA RESULT:      -7.0     10.707     13.028
REMARK  7 active torsions:
REMARK  status: ('A' for Active; 'I' for Inactive)
REMARK    1  A    between atoms: C_1  and  O_28 
REMARK    2  A    between atoms: C_12  and  C_13 
REMARK    3  A    between atoms: C_13  and  C_14 
REMARK    4  A    between atoms: C_14  and  C_15 
REMARK    5  A    between atoms: C_15  and  C_16 
REMARK    6  A    between atoms: C_16  and  O_26 
REMARK    7  A    between atoms: C_20  and  O_27 
ROOT
HETATM    1  C   UNK N   1      33.567  21.259  -4.259  0.00  0.00     0.118 C 
HETATM    2  C   UNK N   1      33.286  22.444  -5.199  0.00  0.00     0.032 C 
HETATM    3  C   UNK N   1      31.810  22.876  -5.311  0.00  0.00     0.012 C 
HETATM    4  C   UNK N   1      32.656  21.218  -3.032  0.00  0.00     0.037 C 
HETATM    5  C   UNK N   1      31.168  21.526  -3.280  0.00  0.00    -0.004 C 
HETATM    6  C   UNK N   1      30.839  22.705  -2.360  0.00  0.00     0.006 C 
HETATM    7  C   UNK N   1      29.370  23.088  -2.462  0.00  0.00     0.006 C 
HETATM    8  C   UNK N   1      29.060  23.541  -3.886  0.00  0.00    -0.005 C 
HETATM    9  C   UNK N   1      27.578  23.936  -4.037  0.00  0.00     0.001 C 
HETATM   10  C   UNK N   1      27.176  25.048  -3.069  0.00  0.00     0.006 C 
HETATM   11  C   UNK N   1      26.442  26.089  -3.885  0.00  0.00     0.006 C 
HETATM   12  C   UNK N   1      27.041  25.958  -5.268  0.00  0.00     0.000 C 
HETATM   13  C   UNK N   1      27.241  24.443  -5.472  0.00  0.00    -0.010 C 
HETATM   14  C   UNK N   1      25.937  23.783  -5.923  0.00  0.00     0.018 C 
HETATM   15  C   UNK N   1      28.355  24.124  -6.507  0.00  0.00     0.127 C 
HETATM   16  C   UNK N   1      28.919  22.706  -6.326  0.00  0.00     0.038 C 
HETATM   17  C   UNK N   1      29.342  22.370  -4.868  0.00  0.00     0.001 C 
HETATM   18  C   UNK N   1      30.808  21.845  -4.769  0.00  0.00    -0.036 C 
HETATM   19  C   UNK N   1      30.891  20.574  -5.620  0.00  0.00     0.016 C 
ENDROOT
BRANCH  12  20
HETATM   20  C   UNK N   1      26.267  26.809  -6.301  0.00  0.00    -0.013 C 
HETATM   21  C   UNK N   1      24.770  26.931  -6.060  0.00  0.00     0.010 C 
BRANCH  20  22
HETATM   22  C   UNK N   1      26.656  26.659  -7.774  0.00  0.00     0.015 C 
BRANCH  22  23
HETATM   23  C   UNK N   1      25.560  26.156  -8.709  0.00  0.00     0.110 C 
BRANCH  23  24
HETATM   24  C   UNK N   1      25.867  24.828  -9.323  0.00  0.00     0.139 C 
HETATM   25  O   UNK N   1      24.986  23.996  -9.437  0.00  0.00    -0.650 OA
BRANCH  24  26
HETATM   26  O   UNK N   1      27.094  24.572  -9.817  0.00  0.00    -0.776 OA
HETATM   27  H   UNK N   1      27.932  24.991  -9.828  0.00  0.00     0.167 HD
ENDBRANCH  24  26
ENDBRANCH  23  24
ENDBRANCH  22  23
ENDBRANCH  20  22
ENDBRANCH  12  20
BRANCH  15  28
HETATM   28  O   UNK N   1      29.408  25.042  -6.436  0.00  0.00    -0.395 OA
HETATM   29  H   UNK N   1      30.205  25.529  -6.176  0.00  0.00     0.210 HD
ENDBRANCH  15  28
BRANCH   1  30
HETATM   30  O   UNK N   1      33.526  20.043  -4.941  0.00  0.00    -0.396 OA
HETATM   31  H   UNK N   1      33.650  19.604  -5.797  0.00  0.00     0.210 HD
ENDBRANCH   1  30
TORSDOF 7
ENDMDL
MODEL 5
REMARK VINA RESULT:      -7.0     10.298     14.525
REMARK  7 active torsions:
REMARK  status: ('A' for Active; 'I' for Inactive)
REMARK    1  A    between atoms: C_1  and  O_28 
REMARK    2  A    between atoms: C_12  and  C_13 
REMARK    3  A    between atoms: C_13  and  C_14 
REMARK    4  A    between atoms: C_14  and  C_15 
REMARK    5  A    between atoms: C_15  and  C_16 
REMARK    6  A    between atoms: C_16  and  O_26 
REMARK    7  A    between atoms: C_20  and  O_27 
ROOT
HETATM    1  C   UNK N   1      36.068   8.452  21.337  0.00  0.00     0.118 C 
HETATM    2  C   UNK N   1      36.952   8.212  20.102  0.00  0.00     0.032 C 
HETATM    3  C   UNK N   1      36.524   8.949  18.817  0.00  0.00     0.012 C 
HETATM    4  C   UNK N   1      35.491   9.865  21.415  0.00  0.00     0.037 C 
HETATM    5  C   UNK N   1      34.958  10.455  20.097  0.00  0.00    -0.004 C 
HETATM    6  C   UNK N   1      35.734  11.760  19.894  0.00  0.00     0.006 C 
HETATM    7  C   UNK N   1      35.268  12.487  18.640  0.00  0.00     0.006 C 
HETATM    8  C   UNK N   1      35.541  11.616  17.417  0.00  0.00    -0.005 C 
HETATM    9  C   UNK N   1      35.081  12.312  16.121  0.00  0.00     0.001 C 
HETATM   10  C   UNK N   1      35.759  13.668  15.922  0.00  0.00     0.006 C 
HETATM   11  C   UNK N   1      36.273  13.691  14.500  0.00  0.00     0.006 C 
HETATM   12  C   UNK N   1      36.543  12.236  14.185  0.00  0.00     0.000 C 
HETATM   13  C   UNK N   1      35.386  11.465  14.849  0.00  0.00    -0.010 C 
HETATM   14  C   UNK N   1      34.146  11.477  13.953  0.00  0.00     0.018 C 
HETATM   15  C   UNK N   1      35.761   9.992  15.176  0.00  0.00     0.127 C 
HETATM   16  C   UNK N   1      34.865   9.401  16.275  0.00  0.00     0.038 C 
HETATM   17  C   UNK N   1      34.749  10.286  17.549  0.00  0.00     0.001 C 
HETATM   18  C   UNK N   1      35.094   9.510  18.857  0.00  0.00    -0.036 C 
HETATM   19  C   UNK N   1      34.105   8.345  18.966  0.00  0.00     0.016 C 
ENDROOT
BRANCH  12  20
HETATM   20  C   UNK N   1      36.884  12.035  12.691  0.00  0.00    -0.013 C 
HETATM   21  C   UNK N   1      37.824  10.879  12.382  0.00  0.00     0.010 C 
BRANCH  20  22
HETATM   22  C   UNK N   1      37.133  13.288  11.847  0.00  0.00     0.015 C 
BRANCH  22  23
HETATM   23  C   UNK N   1      35.987  13.723  10.938  0.00  0.00     0.110 C 
BRANCH  23  24
HETATM   24  C   UNK N   1      36.205  15.060  10.305  0.00  0.00     0.139 C 
HETATM   25  O   UNK N   1      35.586  15.362   9.302  0.00  0.00    -0.650 OA
BRANCH  24  26
HETATM   26  O   UNK N   1      37.027  15.960  10.878  0.00  0.00    -0.776 OA
HETATM   27  H   UNK N   1      37.846  15.951  11.334  0.00  0.00     0.167 HD
ENDBRANCH  24  26
ENDBRANCH  23  24
ENDBRANCH  22  23
ENDBRANCH  20  22
ENDBRANCH  12  20
BRANCH  15  28
HETATM   28  O   UNK N   1      37.097   9.872  15.569  0.00  0.00    -0.395 OA
HETATM   29  H   UNK N   1      38.032   9.619  15.636  0.00  0.00     0.210 HD
ENDBRANCH  15  28
BRANCH   1  30
HETATM   30  O   UNK N   1      35.051   7.501  21.431  0.00  0.00    -0.396 OA
HETATM   31  H   UNK N   1      34.277   7.207  21.937  0.00  0.00     0.210 HD
ENDBRANCH   1  30
TORSDOF 7
ENDMDL
MODEL 6
REMARK VINA RESULT:      -7.0      6.681      8.361
REMARK  7 active torsions:
REMARK  status: ('A' for Active; 'I' for Inactive)
REMARK    1  A    between atoms: C_1  and  O_28 
REMARK    2  A    between atoms: C_12  and  C_13 
REMARK    3  A    between atoms: C_13  and  C_14 
REMARK    4  A    between atoms: C_14  and  C_15 
REMARK    5  A    between atoms: C_15  and  C_16 
REMARK    6  A    between atoms: C_16  and  O_26 
REMARK    7  A    between atoms: C_20  and  O_27 
ROOT
HETATM    1  C   UNK N   1      22.972  11.746  10.395  0.00  0.00     0.118 C 
HETATM    2  C   UNK N   1      22.361  13.150  10.247  0.00  0.00     0.032 C 
HETATM    3  C   UNK N   1      22.551  13.823   8.873  0.00  0.00     0.012 C 
HETATM    4  C   UNK N   1      22.917  10.913   9.115  0.00  0.00     0.037 C 
HETATM    5  C   UNK N   1      23.265  11.651   7.808  0.00  0.00    -0.004 C 
HETATM    6  C   UNK N   1      22.044  11.468   6.902  0.00  0.00     0.006 C 
HETATM    7  C   UNK N   1      22.271  12.109   5.540  0.00  0.00     0.006 C 
HETATM    8  C   UNK N   1      22.471  13.612   5.713  0.00  0.00    -0.005 C 
HETATM    9  C   UNK N   1      22.708  14.303   4.356  0.00  0.00     0.001 C 
HETATM   10  C   UNK N   1      21.556  14.069   3.379  0.00  0.00     0.006 C 
HETATM   11  C   UNK N   1      21.189  15.421   2.809  0.00  0.00     0.006 C 
HETATM   12  C   UNK N   1      21.559  16.394   3.907  0.00  0.00     0.000 C 
HETATM   13  C   UNK N   1      22.875  15.847   4.495  0.00  0.00    -0.010 C 
HETATM   14  C   UNK N   1      24.068  16.282   3.643  0.00  0.00     0.018 C 
HETATM   15  C   UNK N   1      23.106  16.303   5.963  0.00  0.00     0.127 C 
HETATM   16  C   UNK N   1      24.076  15.373   6.708  0.00  0.00     0.038 C 
HETATM   17  C   UNK N   1      23.723  13.863   6.599  0.00  0.00     0.001 C 
HETATM   18  C   UNK N   1      23.622  13.163   7.989  0.00  0.00    -0.036 C 
HETATM   19  C   UNK N   1      24.987  13.310   8.669  0.00  0.00     0.016 C 
ENDROOT
BRANCH  12  20
HETATM   20  C   UNK N   1      21.447  17.858   3.425  0.00  0.00    -0.013 C 
HETATM   21  C   UNK N   1      21.393  18.908   4.525  0.00  0.00     0.010 C 
BRANCH  20  22
HETATM   22  C   UNK N   1      20.522  18.145   2.239  0.00  0.00     0.015 C 
BRANCH  22  23
HETATM   23  C   UNK N   1      20.021  19.580   2.111  0.00  0.00     0.110 C 
BRANCH  23  24
HETATM   24  C   UNK N   1      20.866  20.426   1.213  0.00  0.00     0.139 C 
HETATM   25  O   UNK N   1      21.843  20.996   1.663  0.00  0.00    -0.650 OA
BRANCH  24  26
HETATM   26  O   UNK N   1      20.596  20.503  -0.105  0.00  0.00    -0.776 OA
HETATM   27  H   UNK N   1      21.054  20.361  -0.910  0.00  0.00     0.167 HD
ENDBRANCH  24  26
ENDBRANCH  23  24
ENDBRANCH  22  23
ENDBRANCH  20  22
ENDBRANCH  12  20
BRANCH  15  28
HETATM   28  O   UNK N   1      21.907  16.373   6.679  0.00  0.00    -0.395 OA
HETATM   29  H   UNK N   1      21.128  16.683   7.168  0.00  0.00     0.210 HD
ENDBRANCH  15  28
BRANCH   1  30
HETATM   30  O   UNK N   1      24.276  11.805  10.886  0.00  0.00    -0.396 OA
HETATM   31  H   UNK N   1      24.886  11.493  11.574  0.00  0.00     0.210 HD
ENDBRANCH   1  30
TORSDOF 7
ENDMDL
MODEL 7
REMARK VINA RESULT:      -6.9      5.430     10.833
REMARK  7 active torsions:
REMARK  status: ('A' for Active; 'I' for Inactive)
REMARK    1  A    between atoms: C_1  and  O_28 
REMARK    2  A    between atoms: C_12  and  C_13 
REMARK    3  A    between atoms: C_13  and  C_14 
REMARK    4  A    between atoms: C_14  and  C_15 
REMARK    5  A    between atoms: C_15  and  C_16 
REMARK    6  A    between atoms: C_16  and  O_26 
REMARK    7  A    between atoms: C_20  and  O_27 
ROOT
HETATM    1  C   UNK N   1      32.175  16.247   5.556  0.00  0.00     0.118 C 
HETATM    2  C   UNK N   1      31.857  15.021   6.429  0.00  0.00     0.032 C 
HETATM    3  C   UNK N   1      32.939  14.629   7.456  0.00  0.00     0.012 C 
HETATM    4  C   UNK N   1      32.976  17.327   6.282  0.00  0.00     0.037 C 
HETATM    5  C   UNK N   1      34.131  16.834   7.173  0.00  0.00    -0.004 C 
HETATM    6  C   UNK N   1      33.834  17.395   8.568  0.00  0.00     0.006 C 
HETATM    7  C   UNK N   1      34.935  17.026   9.553  0.00  0.00     0.006 C 
HETATM    8  C   UNK N   1      35.003  15.508   9.693  0.00  0.00    -0.005 C 
HETATM    9  C   UNK N   1      36.109  15.087  10.681  0.00  0.00     0.001 C 
HETATM   10  C   UNK N   1      35.909  15.702  12.067  0.00  0.00     0.006 C 
HETATM   11  C   UNK N   1      36.055  14.575  13.065  0.00  0.00     0.006 C 
HETATM   12  C   UNK N   1      35.612  13.348  12.300  0.00  0.00     0.000 C 
HETATM   13  C   UNK N   1      36.175  13.542  10.878  0.00  0.00    -0.010 C 
HETATM   14  C   UNK N   1      37.641  13.111  10.815  0.00  0.00     0.018 C 
HETATM   15  C   UNK N   1      35.369  12.758   9.805  0.00  0.00     0.127 C 
HETATM   16  C   UNK N   1      35.562  13.344   8.398  0.00  0.00     0.038 C 
HETATM   17  C   UNK N   1      35.337  14.881   8.311  0.00  0.00     0.001 C 
HETATM   18  C   UNK N   1      34.309  15.280   7.208  0.00  0.00    -0.036 C 
HETATM   19  C   UNK N   1      34.864  14.779   5.871  0.00  0.00     0.016 C 
ENDROOT
BRANCH  12  20
HETATM   20  C   UNK N   1      35.889  12.054  13.098  0.00  0.00    -0.013 C 
HETATM   21  C   UNK N   1      34.726  11.077  13.188  0.00  0.00     0.010 C 
BRANCH  20  22
HETATM   22  C   UNK N   1      36.704  12.178  14.389  0.00  0.00     0.015 C 
BRANCH  22  23
HETATM   23  C   UNK N   1      35.968  11.843  15.682  0.00  0.00     0.110 C 
BRANCH  23  24
HETATM   24  C   UNK N   1      35.204  12.998  16.246  0.00  0.00     0.139 C 
HETATM   25  O   UNK N   1      35.773  13.816  16.944  0.00  0.00    -0.650 OA
BRANCH  24  26
HETATM   26  O   UNK N   1      33.907  13.178  15.928  0.00  0.00    -0.776 OA
HETATM   27  H   UNK N   1      33.349  13.895  15.697  0.00  0.00     0.167 HD
ENDBRANCH  24  26
ENDBRANCH  23  24
ENDBRANCH  22  23
ENDBRANCH  20  22
ENDBRANCH  12  20
BRANCH  15  28
HETATM   28  O   UNK N   1      34.002  12.731  10.101  0.00  0.00    -0.395 OA
HETATM   29  H   UNK N   1      33.086  12.452  10.256  0.00  0.00     0.210 HD
ENDBRANCH  15  28
BRANCH   1  30
HETATM   30  O   UNK N   1      32.810  15.879   4.370  0.00  0.00    -0.396 OA
HETATM   31  H   UNK N   1      33.452  15.277   3.961  0.00  0.00     0.210 HD
ENDBRANCH   1  30
TORSDOF 7
ENDMDL
MODEL 8
REMARK VINA RESULT:      -6.9      2.939      5.596
REMARK  7 active torsions:
REMARK  status: ('A' for Active; 'I' for Inactive)
REMARK    1  A    between atoms: C_1  and  O_28 
REMARK    2  A    between atoms: C_12  and  C_13 
REMARK    3  A    between atoms: C_13  and  C_14 
REMARK    4  A    between atoms: C_14  and  C_15 
REMARK    5  A    between atoms: C_15  and  C_16 
REMARK    6  A    between atoms: C_16  and  O_26 
REMARK    7  A    between atoms: C_20  and  O_27 
ROOT
HETATM    1  C   UNK N   1      36.339  12.676  11.961  0.00  0.00     0.118 C 
HETATM    2  C   UNK N   1      35.119  13.573  12.233  0.00  0.00     0.032 C 
HETATM    3  C   UNK N   1      34.542  14.310  11.008  0.00  0.00     0.012 C 
HETATM    4  C   UNK N   1      36.307  11.992  10.595  0.00  0.00     0.037 C 
HETATM    5  C   UNK N   1      35.849  12.863   9.409  0.00  0.00    -0.004 C 
HETATM    6  C   UNK N   1      34.656  12.121   8.799  0.00  0.00     0.006 C 
HETATM    7  C   UNK N   1      34.128  12.849   7.571  0.00  0.00     0.006 C 
HETATM    8  C   UNK N   1      33.627  14.233   7.976  0.00  0.00    -0.005 C 
HETATM    9  C   UNK N   1      33.085  15.009   6.760  0.00  0.00     0.001 C 
HETATM   10  C   UNK N   1      31.952  14.261   6.056  0.00  0.00     0.006 C 
HETATM   11  C   UNK N   1      30.832  15.259   5.859  0.00  0.00     0.006 C 
HETATM   12  C   UNK N   1      31.002  16.232   7.004  0.00  0.00     0.000 C 
HETATM   13  C   UNK N   1      32.527  16.411   7.150  0.00  0.00    -0.010 C 
HETATM   14  C   UNK N   1      33.048  17.435   6.140  0.00  0.00     0.018 C 
HETATM   15  C   UNK N   1      32.941  16.854   8.581  0.00  0.00     0.127 C 
HETATM   16  C   UNK N   1      34.410  16.520   8.883  0.00  0.00     0.038 C 
HETATM   17  C   UNK N   1      34.807  15.049   8.573  0.00  0.00     0.001 C 
HETATM   18  C   UNK N   1      35.475  14.334   9.788  0.00  0.00    -0.036 C 
HETATM   19  C   UNK N   1      36.736  15.129  10.141  0.00  0.00     0.016 C 
ENDROOT
BRANCH  12  20
HETATM   20  C   UNK N   1      30.065  17.452   6.853  0.00  0.00    -0.013 C 
HETATM   21  C   UNK N   1      29.417  17.945   8.139  0.00  0.00     0.010 C 
BRANCH  20  22
HETATM   22  C   UNK N   1      29.143  17.490   5.631  0.00  0.00     0.015 C 
BRANCH  22  23
HETATM   23  C   UNK N   1      27.860  18.301   5.784  0.00  0.00     0.110 C 
BRANCH  23  24
HETATM   24  C   UNK N   1      27.898  19.614   5.069  0.00  0.00     0.139 C 
HETATM   25  O   UNK N   1      27.849  20.650   5.706  0.00  0.00    -0.650 OA
BRANCH  24  26
HETATM   26  O   UNK N   1      28.060  19.658   3.733  0.00  0.00    -0.776 OA
HETATM   27  H   UNK N   1      28.519  20.191   3.113  0.00  0.00     0.167 HD
ENDBRANCH  24  26
ENDBRANCH  23  24
ENDBRANCH  22  23
ENDBRANCH  20  22
ENDBRANCH  12  20
BRANCH  15  28
HETATM   28  O   UNK N   1      32.133  16.266   9.560  0.00  0.00    -0.395 OA
HETATM   29  H   UNK N   1      31.490  15.713  10.031  0.00  0.00     0.210 HD
ENDBRANCH  15  28
BRANCH   1  30
HETATM   30  O   UNK N   1      37.535  13.373  12.132  0.00  0.00    -0.396 OA
HETATM   31  H   UNK N   1      38.081  14.111  11.818  0.00  0.00     0.210 HD
ENDBRANCH   1  30
TORSDOF 7
ENDMDL
MODEL 9
REMARK VINA RESULT:      -6.8     12.786     14.109
REMARK  7 active torsions:
REMARK  status: ('A' for Active; 'I' for Inactive)
REMARK    1  A    between atoms: C_1  and  O_28 
REMARK    2  A    between atoms: C_12  and  C_13 
REMARK    3  A    between atoms: C_13  and  C_14 
REMARK    4  A    between atoms: C_14  and  C_15 
REMARK    5  A    between atoms: C_15  and  C_16 
REMARK    6  A    between atoms: C_16  and  O_26 
REMARK    7  A    between atoms: C_20  and  O_27 
ROOT
HETATM    1  C   UNK N   1      32.124  19.059  -8.967  0.00  0.00     0.118 C 
HETATM    2  C   UNK N   1      31.411  20.193  -9.724  0.00  0.00     0.032 C 
HETATM    3  C   UNK N   1      30.401  21.018  -8.902  0.00  0.00     0.012 C 
HETATM    4  C   UNK N   1      32.405  19.382  -7.500  0.00  0.00     0.037 C 
HETATM    5  C   UNK N   1      31.270  20.081  -6.728  0.00  0.00    -0.004 C 
HETATM    6  C   UNK N   1      31.884  21.377  -6.190  0.00  0.00     0.006 C 
HETATM    7  C   UNK N   1      30.879  22.154  -5.352  0.00  0.00     0.006 C 
HETATM    8  C   UNK N   1      29.693  22.556  -6.224  0.00  0.00    -0.005 C 
HETATM    9  C   UNK N   1      28.646  23.345  -5.414  0.00  0.00     0.001 C 
HETATM   10  C   UNK N   1      29.236  24.602  -4.775  0.00  0.00     0.006 C 
HETATM   11  C   UNK N   1      28.292  25.737  -5.100  0.00  0.00     0.006 C 
HETATM   12  C   UNK N   1      27.664  25.327  -6.414  0.00  0.00     0.000 C 
HETATM   13  C   UNK N   1      27.441  23.807  -6.289  0.00  0.00    -0.010 C 
HETATM   14  C   UNK N   1      26.149  23.512  -5.525  0.00  0.00     0.018 C 
HETATM   15  C   UNK N   1      27.386  23.098  -7.671  0.00  0.00     0.127 C 
HETATM   16  C   UNK N   1      27.702  21.598  -7.560  0.00  0.00     0.038 C 
HETATM   17  C   UNK N   1      29.005  21.276  -6.774  0.00  0.00     0.001 C 
HETATM   18  C   UNK N   1      29.985  20.365  -7.574  0.00  0.00    -0.036 C 
HETATM   19  C   UNK N   1      29.245  19.057  -7.872  0.00  0.00     0.016 C 
ENDROOT
BRANCH  12  20
HETATM   20  C   UNK N   1      26.508  26.274  -6.807  0.00  0.00    -0.013 C 
HETATM   21  C   UNK N   1      26.267  26.430  -8.302  0.00  0.00     0.010 C 
BRANCH  20  22
HETATM   22  C   UNK N   1      26.351  27.571  -6.009  0.00  0.00     0.015 C 
BRANCH  22  23
HETATM   23  C   UNK N   1      25.240  27.586  -4.963  0.00  0.00     0.110 C 
BRANCH  23  24
HETATM   24  C   UNK N   1      25.690  28.083  -3.626  0.00  0.00     0.139 C 
HETATM   25  O   UNK N   1      25.948  27.288  -2.741  0.00  0.00    -0.650 OA
BRANCH  24  26
HETATM   26  O   UNK N   1      25.881  29.399  -3.416  0.00  0.00    -0.776 OA
HETATM   27  H   UNK N   1      25.413  30.196  -3.575  0.00  0.00     0.167 HD
ENDBRANCH  24  26
ENDBRANCH  23  24
ENDBRANCH  22  23
ENDBRANCH  20  22
ENDBRANCH  12  20
BRANCH  15  28
HETATM   28  O   UNK N   1      28.268  23.679  -8.588  0.00  0.00    -0.395 OA
HETATM   29  H   UNK N   1      29.029  23.871  -9.158  0.00  0.00     0.210 HD
ENDBRANCH  15  28
BRANCH   1  30
HETATM   30  O   UNK N   1      31.431  17.854  -9.080  0.00  0.00    -0.396 OA
HETATM   31  H   UNK N   1      30.559  17.441  -9.179  0.00  0.00     0.210 HD
ENDBRANCH   1  30
TORSDOF 7
ENDMDL
