MODEL 1
REMARK VINA RESULT:      -7.0      0.000      0.000
REMARK  4 active torsions:
REMARK  status: ('A' for Active; 'I' for Inactive)
REMARK    1  A    between atoms: O_1  and  C_7 
REMARK       I    between atoms: N_3  and  C_21 
REMARK    2  A    between atoms: C_16  and  N_4 
REMARK    3  A    between atoms: C_6  and  C_16 
REMARK    4  A    between atoms: C_16  and  C_21 
ROOT
HETATM    1  O   UNK N   1      28.245  18.503   8.203  0.00  0.00    -0.271 OA
HETATM    2  N   UNK N   1      27.854  19.289   6.125  0.00  0.00    -0.328 N 
HETATM    3  N   UNK N   1      28.367  17.006   3.502  0.00  0.00    -0.195 NA
HETATM    4  C   UNK N   1      26.842  20.232   6.561  0.00  0.00     0.093 A 
HETATM    5  C   UNK N   1      26.270  20.837   5.281  0.00  0.00     0.013 A 
HETATM    6  C   UNK N   1      27.199  21.659   6.151  0.00  0.00     0.032 A 
HETATM    7  C   UNK N   1      27.029  20.193   4.114  0.00  0.00     0.047 C 
HETATM    8  C   UNK N   1      28.469  18.422   7.001  0.00  0.00     0.244 C 
HETATM    9  C   UNK N   1      28.129  19.331   4.702  0.00  0.00     0.195 C 
HETATM   10  C   UNK N   1      28.233  18.039   4.007  0.00  0.00     0.085 C 
ENDROOT
BRANCH   8  11
HETATM   11  C   UNK N   1      29.211  17.203   6.472  0.00  0.00     0.176 C 
BRANCH  11  12
HETATM   12  N   UNK N   1      28.320  16.049   6.507  0.00  0.00    -0.418 N 
HETATM   13  H   UNK N   1      27.510  15.432   6.432  0.00  0.00     0.150 HD
HETATM   14  H   UNK N   1      28.986  15.365   6.867  0.00  0.00     0.150 HD
ENDBRANCH  11  12
BRANCH  11  15
HETATM   15  C   UNK N   1      30.726  16.853   6.601  0.00  0.00    -0.008 C 
HETATM   16  C   UNK N   1      31.362  17.280   7.942  0.00  0.00     0.050 C 
HETATM   17  C   UNK N   1      32.853  16.855   7.982  0.00  0.00     0.059 C 
HETATM   18  C   UNK N   1      33.618  17.497   6.813  0.00  0.00     0.042 C 
HETATM   19  C   UNK N   1      32.948  15.326   7.856  0.00  0.00     0.042 C 
HETATM   20  C   UNK N   1      32.998  17.061   5.479  0.00  0.00    -0.010 C 
HETATM   21  C   UNK N   1      31.519  17.506   5.449  0.00  0.00     0.016 C 
HETATM   22  C   UNK N   1      33.094  15.530   5.358  0.00  0.00     0.009 C 
HETATM   23  C   UNK N   1      32.341  14.872   6.520  0.00  0.00    -0.010 C 
HETATM   24  C   UNK N   1      30.878  15.314   6.455  0.00  0.00     0.016 C 
BRANCH  17  25
HETATM   25  O   UNK N   1      33.431  17.259   9.184  0.00  0.00    -0.390 OA
HETATM   26  H   UNK N   1      32.966  17.886   9.760  0.00  0.00     0.210 HD
ENDBRANCH  17  25
ENDBRANCH  11  15
ENDBRANCH   8  11
TORSDOF 4
ENDMDL
MODEL 2
REMARK VINA RESULT:      -6.9     11.058     12.957
REMARK  4 active torsions:
REMARK  status: ('A' for Active; 'I' for Inactive)
REMARK    1  A    between atoms: O_1  and  C_7 
REMARK       I    between atoms: N_3  and  C_21 
REMARK    2  A    between atoms: C_16  and  N_4 
REMARK    3  A    between atoms: C_6  and  C_16 
REMARK    4  A    between atoms: C_16  and  C_21 
ROOT
HETATM    1  O   UNK N   1      29.634  26.477  -6.179  0.00  0.00    -0.271 OA
HETATM    2  N   UNK N   1      27.573  25.664  -5.754  0.00  0.00    -0.328 N 
HETATM    3  N   UNK N   1      27.164  24.073  -2.646  0.00  0.00    -0.195 NA
HETATM    4  C   UNK N   1      26.900  26.667  -6.557  0.00  0.00     0.093 A 
HETATM    5  C   UNK N   1      25.407  26.438  -6.330  0.00  0.00     0.013 A 
HETATM    6  C   UNK N   1      26.040  26.024  -7.644  0.00  0.00     0.032 A 
HETATM    7  C   UNK N   1      25.288  25.245  -5.373  0.00  0.00     0.047 C 
HETATM    8  C   UNK N   1      28.938  25.672  -5.572  0.00  0.00     0.244 C 
HETATM    9  C   UNK N   1      26.682  24.690  -5.155  0.00  0.00     0.195 C 
HETATM   10  C   UNK N   1      26.916  24.356  -3.742  0.00  0.00     0.085 C 
ENDROOT
BRANCH   8  11
HETATM   11  C   UNK N   1      29.559  24.875  -4.433  0.00  0.00     0.176 C 
BRANCH  11  12
HETATM   12  N   UNK N   1      29.922  25.787  -3.355  0.00  0.00    -0.418 N 
HETATM   13  H   UNK N   1      30.263  26.183  -2.477  0.00  0.00     0.150 HD
HETATM   14  H   UNK N   1      29.613  26.655  -3.791  0.00  0.00     0.150 HD
ENDBRANCH  11  12
BRANCH  11  15
HETATM   15  C   UNK N   1      30.435  23.586  -4.510  0.00  0.00    -0.008 C 
HETATM   16  C   UNK N   1      30.963  23.097  -3.144  0.00  0.00     0.050 C 
HETATM   17  C   UNK N   1      31.787  21.796  -3.328  0.00  0.00     0.059 C 
HETATM   18  C   UNK N   1      32.965  22.046  -4.285  0.00  0.00     0.042 C 
HETATM   19  C   UNK N   1      30.885  20.706  -3.927  0.00  0.00     0.042 C 
HETATM   20  C   UNK N   1      32.441  22.516  -5.648  0.00  0.00    -0.010 C 
HETATM   21  C   UNK N   1      31.637  23.821  -5.449  0.00  0.00     0.016 C 
HETATM   22  C   UNK N   1      31.538  21.422  -6.243  0.00  0.00     0.009 C 
HETATM   23  C   UNK N   1      30.360  21.155  -5.299  0.00  0.00    -0.010 C 
HETATM   24  C   UNK N   1      29.572  22.456  -5.135  0.00  0.00     0.016 C 
BRANCH  17  25
HETATM   25  O   UNK N   1      32.281  21.367  -2.097  0.00  0.00    -0.390 OA
HETATM   26  H   UNK N   1      31.669  21.179  -1.368  0.00  0.00     0.210 HD
ENDBRANCH  17  25
ENDBRANCH  11  15
ENDBRANCH   8  11
TORSDOF 4
ENDMDL
MODEL 3
REMARK VINA RESULT:      -6.8      4.358      8.401
REMARK  4 active torsions:
REMARK  status: ('A' for Active; 'I' for Inactive)
REMARK    1  A    between atoms: O_1  and  C_7 
REMARK       I    between atoms: N_3  and  C_21 
REMARK    2  A    between atoms: C_16  and  N_4 
REMARK    3  A    between atoms: C_6  and  C_16 
REMARK    4  A    between atoms: C_16  and  C_21 
ROOT
HETATM    1  O   UNK N   1      34.894  12.318   7.362  0.00  0.00    -0.271 OA
HETATM    2  N   UNK N   1      36.096  12.963   9.159  0.00  0.00    -0.328 N 
HETATM    3  N   UNK N   1      34.298  14.591  11.703  0.00  0.00    -0.195 NA
HETATM    4  C   UNK N   1      37.059  11.885   9.030  0.00  0.00     0.093 A 
HETATM    5  C   UNK N   1      37.959  11.991  10.259  0.00  0.00     0.013 A 
HETATM    6  C   UNK N   1      38.483  12.424   8.904  0.00  0.00     0.032 A 
HETATM    7  C   UNK N   1      37.456  13.194  11.067  0.00  0.00     0.047 C 
HETATM    8  C   UNK N   1      35.012  13.076   8.318  0.00  0.00     0.244 C 
HETATM    9  C   UNK N   1      36.369  13.872  10.255  0.00  0.00     0.195 C 
HETATM   10  C   UNK N   1      35.228  14.260  11.097  0.00  0.00     0.085 C 
ENDROOT
BRANCH   8  11
HETATM   11  C   UNK N   1      33.831  13.952   8.712  0.00  0.00     0.176 C 
BRANCH  11  12
HETATM   12  N   UNK N   1      32.715  13.100   9.107  0.00  0.00    -0.418 N 
HETATM   13  H   UNK N   1      31.983  12.626   9.637  0.00  0.00     0.150 HD
HETATM   14  H   UNK N   1      32.542  12.663   8.202  0.00  0.00     0.150 HD
ENDBRANCH  11  12
BRANCH  11  15
HETATM   15  C   UNK N   1      33.410  15.339   8.133  0.00  0.00    -0.008 C 
HETATM   16  C   UNK N   1      34.494  16.432   8.258  0.00  0.00     0.050 C 
HETATM   17  C   UNK N   1      33.991  17.754   7.623  0.00  0.00     0.059 C 
HETATM   18  C   UNK N   1      32.699  18.217   8.317  0.00  0.00     0.042 C 
HETATM   19  C   UNK N   1      33.696  17.520   6.133  0.00  0.00     0.042 C 
HETATM   20  C   UNK N   1      31.616  17.140   8.180  0.00  0.00    -0.010 C 
HETATM   21  C   UNK N   1      32.127  15.835   8.832  0.00  0.00     0.016 C 
HETATM   22  C   UNK N   1      31.325  16.908   6.687  0.00  0.00     0.009 C 
HETATM   23  C   UNK N   1      32.604  16.451   5.976  0.00  0.00    -0.010 C 
HETATM   24  C   UNK N   1      33.077  15.150   6.628  0.00  0.00     0.016 C 
BRANCH  17  25
HETATM   25  O   UNK N   1      34.962  18.745   7.755  0.00  0.00    -0.390 OA
HETATM   26  H   UNK N   1      35.408  18.877   8.606  0.00  0.00     0.210 HD
ENDBRANCH  17  25
ENDBRANCH  11  15
ENDBRANCH   8  11
TORSDOF 4
ENDMDL
MODEL 4
REMARK VINA RESULT:      -6.7      1.309      2.067
REMARK  4 active torsions:
REMARK  status: ('A' for Active; 'I' for Inactive)
REMARK    1  A    between atoms: O_1  and  C_7 
REMARK       I    between atoms: N_3  and  C_21 
REMARK    2  A    between atoms: C_16  and  N_4 
REMARK    3  A    between atoms: C_6  and  C_16 
REMARK    4  A    between atoms: C_16  and  C_21 
ROOT
HETATM    1  O   UNK N   1      28.598  18.436   8.079  0.00  0.00    -0.271 OA
HETATM    2  N   UNK N   1      27.927  19.277   6.096  0.00  0.00    -0.328 N 
HETATM    3  N   UNK N   1      27.803  16.996   3.424  0.00  0.00    -0.195 NA
HETATM    4  C   UNK N   1      27.082  20.292   6.697  0.00  0.00     0.093 A 
HETATM    5  C   UNK N   1      26.353  20.958   5.533  0.00  0.00     0.013 A 
HETATM    6  C   UNK N   1      27.479  21.692   6.233  0.00  0.00     0.032 A 
HETATM    7  C   UNK N   1      26.850  20.272   4.254  0.00  0.00     0.047 C 
HETATM    8  C   UNK N   1      28.608  18.353   6.856  0.00  0.00     0.244 C 
HETATM    9  C   UNK N   1      27.960  19.317   4.648  0.00  0.00     0.195 C 
HETATM   10  C   UNK N   1      27.841  18.030   3.944  0.00  0.00     0.085 C 
ENDROOT
BRANCH   8  11
HETATM   11  C   UNK N   1      29.149  17.086   6.209  0.00  0.00     0.176 C 
BRANCH  11  12
HETATM   12  N   UNK N   1      28.224  15.987   6.463  0.00  0.00    -0.418 N 
HETATM   13  H   UNK N   1      27.387  15.432   6.644  0.00  0.00     0.150 HD
HETATM   14  H   UNK N   1      28.901  15.225   6.450  0.00  0.00     0.150 HD
ENDBRANCH  11  12
BRANCH  11  15
HETATM   15  C   UNK N   1      30.635  16.647   6.018  0.00  0.00    -0.008 C 
HETATM   16  C   UNK N   1      30.815  15.148   5.695  0.00  0.00     0.050 C 
HETATM   17  C   UNK N   1      32.318  14.826   5.490  0.00  0.00     0.059 C 
HETATM   18  C   UNK N   1      33.115  15.187   6.755  0.00  0.00     0.042 C 
HETATM   19  C   UNK N   1      32.857  15.653   4.312  0.00  0.00     0.042 C 
HETATM   20  C   UNK N   1      32.950  16.680   7.069  0.00  0.00    -0.010 C 
HETATM   21  C   UNK N   1      31.450  16.979   7.287  0.00  0.00     0.016 C 
HETATM   22  C   UNK N   1      33.490  17.503   5.887  0.00  0.00     0.009 C 
HETATM   23  C   UNK N   1      32.711  17.152   4.614  0.00  0.00    -0.010 C 
HETATM   24  C   UNK N   1      31.234  17.476   4.850  0.00  0.00     0.016 C 
BRANCH  17  25
HETATM   25  O   UNK N   1      32.482  13.468   5.218  0.00  0.00    -0.390 OA
HETATM   26  H   UNK N   1      32.846  12.878   5.897  0.00  0.00     0.210 HD
ENDBRANCH  17  25
ENDBRANCH  11  15
ENDBRANCH   8  11
TORSDOF 4
ENDMDL
MODEL 5
REMARK VINA RESULT:      -6.6     11.441     13.080
REMARK  4 active torsions:
REMARK  status: ('A' for Active; 'I' for Inactive)
REMARK    1  A    between atoms: O_1  and  C_7 
REMARK       I    between atoms: N_3  and  C_21 
REMARK    2  A    between atoms: C_16  and  N_4 
REMARK    3  A    between atoms: C_6  and  C_16 
REMARK    4  A    between atoms: C_16  and  C_21 
ROOT
HETATM    1  O   UNK N   1      26.717  24.570  -2.983  0.00  0.00    -0.271 OA
HETATM    2  N   UNK N   1      26.986  26.398  -4.276  0.00  0.00    -0.328 N 
HETATM    3  N   UNK N   1      27.819  25.791  -7.636  0.00  0.00    -0.195 NA
HETATM    4  C   UNK N   1      26.041  27.199  -3.519  0.00  0.00     0.093 A 
HETATM    5  C   UNK N   1      25.907  28.510  -4.290  0.00  0.00     0.013 A 
HETATM    6  C   UNK N   1      26.692  28.477  -2.994  0.00  0.00     0.032 A 
HETATM    7  C   UNK N   1      26.839  28.402  -5.504  0.00  0.00     0.047 C 
HETATM    8  C   UNK N   1      27.226  25.076  -3.976  0.00  0.00     0.244 C 
HETATM    9  C   UNK N   1      27.618  27.107  -5.371  0.00  0.00     0.195 C 
HETATM   10  C   UNK N   1      27.710  26.398  -6.657  0.00  0.00     0.085 C 
ENDROOT
BRANCH   8  11
HETATM   11  C   UNK N   1      27.896  24.172  -5.001  0.00  0.00     0.176 C 
BRANCH  11  12
HETATM   12  N   UNK N   1      26.871  23.432  -5.727  0.00  0.00    -0.418 N 
HETATM   13  H   UNK N   1      26.225  22.709  -6.049  0.00  0.00     0.150 HD
HETATM   14  H   UNK N   1      26.614  24.159  -6.394  0.00  0.00     0.150 HD
ENDBRANCH  11  12
BRANCH  11  15
HETATM   15  C   UNK N   1      29.273  23.443  -4.904  0.00  0.00    -0.008 C 
HETATM   16  C   UNK N   1      29.709  23.103  -3.463  0.00  0.00     0.050 C 
HETATM   17  C   UNK N   1      31.065  22.352  -3.482  0.00  0.00     0.059 C 
HETATM   18  C   UNK N   1      32.140  23.216  -4.163  0.00  0.00     0.042 C 
HETATM   19  C   UNK N   1      30.909  21.043  -4.272  0.00  0.00     0.042 C 
HETATM   20  C   UNK N   1      31.716  23.542  -5.600  0.00  0.00    -0.010 C 
HETATM   21  C   UNK N   1      30.372  24.304  -5.562  0.00  0.00     0.016 C 
HETATM   22  C   UNK N   1      31.559  22.229  -6.387  0.00  0.00     0.009 C 
HETATM   23  C   UNK N   1      30.495  21.350  -5.719  0.00  0.00    -0.010 C 
HETATM   24  C   UNK N   1      29.173  22.120  -5.712  0.00  0.00     0.016 C 
BRANCH  17  25
HETATM   25  O   UNK N   1      31.468  22.063  -2.179  0.00  0.00    -0.390 OA
HETATM   26  H   UNK N   1      31.495  22.767  -1.512  0.00  0.00     0.210 HD
ENDBRANCH  17  25
ENDBRANCH  11  15
ENDBRANCH   8  11
TORSDOF 4
ENDMDL
MODEL 6
REMARK VINA RESULT:      -6.5      3.408      6.752
REMARK  4 active torsions:
REMARK  status: ('A' for Active; 'I' for Inactive)
REMARK    1  A    between atoms: O_1  and  C_7 
REMARK       I    between atoms: N_3  and  C_21 
REMARK    2  A    between atoms: C_16  and  N_4 
REMARK    3  A    between atoms: C_6  and  C_16 
REMARK    4  A    between atoms: C_16  and  C_21 
ROOT
HETATM    1  O   UNK N   1      31.712  14.936   9.471  0.00  0.00    -0.271 OA
HETATM    2  N   UNK N   1      33.853  15.581   9.770  0.00  0.00    -0.328 N 
HETATM    3  N   UNK N   1      34.699  18.738   8.475  0.00  0.00    -0.195 NA
HETATM    4  C   UNK N   1      34.013  14.836  11.005  0.00  0.00     0.093 A 
HETATM    5  C   UNK N   1      35.392  15.217  11.536  0.00  0.00     0.013 A 
HETATM    6  C   UNK N   1      35.177  13.852  10.913  0.00  0.00     0.032 A 
HETATM    7  C   UNK N   1      35.996  16.199  10.524  0.00  0.00     0.047 C 
HETATM    8  C   UNK N   1      32.654  15.623   9.094  0.00  0.00     0.244 C 
HETATM    9  C   UNK N   1      35.048  16.282   9.343  0.00  0.00     0.195 C 
HETATM   10  C   UNK N   1      34.877  17.669   8.885  0.00  0.00     0.085 C 
ENDROOT
BRANCH   8  11
HETATM   11  C   UNK N   1      32.405  16.705   8.052  0.00  0.00     0.176 C 
BRANCH  11  12
HETATM   12  N   UNK N   1      31.669  17.802   8.669  0.00  0.00    -0.418 N 
HETATM   13  H   UNK N   1      31.287  18.720   8.899  0.00  0.00     0.150 HD
HETATM   14  H   UNK N   1      31.189  17.264   9.391  0.00  0.00     0.150 HD
ENDBRANCH  11  12
BRANCH  11  15
HETATM   15  C   UNK N   1      32.158  16.543   6.520  0.00  0.00    -0.008 C 
HETATM   16  C   UNK N   1      30.841  17.176   6.021  0.00  0.00     0.050 C 
HETATM   17  C   UNK N   1      30.711  16.992   4.487  0.00  0.00     0.059 C 
HETATM   18  C   UNK N   1      30.740  15.496   4.129  0.00  0.00     0.042 C 
HETATM   19  C   UNK N   1      31.890  17.690   3.790  0.00  0.00     0.042 C 
HETATM   20  C   UNK N   1      32.054  14.868   4.610  0.00  0.00    -0.010 C 
HETATM   21  C   UNK N   1      32.159  15.046   6.141  0.00  0.00     0.016 C 
HETATM   22  C   UNK N   1      33.231  15.571   3.911  0.00  0.00     0.009 C 
HETATM   23  C   UNK N   1      33.215  17.066   4.251  0.00  0.00    -0.010 C 
HETATM   24  C   UNK N   1      33.340  17.213   5.769  0.00  0.00     0.016 C 
BRANCH  17  25
HETATM   25  O   UNK N   1      29.512  17.546   4.040  0.00  0.00    -0.390 OA
HETATM   26  H   UNK N   1      29.137  18.318   4.492  0.00  0.00     0.210 HD
ENDBRANCH  17  25
ENDBRANCH  11  15
ENDBRANCH   8  11
TORSDOF 4
ENDMDL
MODEL 7
REMARK VINA RESULT:      -6.5      4.728      8.574
REMARK  4 active torsions:
REMARK  status: ('A' for Active; 'I' for Inactive)
REMARK    1  A    between atoms: O_1  and  C_7 
REMARK       I    between atoms: N_3  and  C_21 
REMARK    2  A    between atoms: C_16  and  N_4 
REMARK    3  A    between atoms: C_6  and  C_16 
REMARK    4  A    between atoms: C_16  and  C_21 
ROOT
HETATM    1  O   UNK N   1      33.816  12.277   9.622  0.00  0.00    -0.271 OA
HETATM    2  N   UNK N   1      35.965  12.931   9.832  0.00  0.00    -0.328 N 
HETATM    3  N   UNK N   1      36.462  16.257  10.855  0.00  0.00    -0.195 NA
HETATM    4  C   UNK N   1      36.442  11.606  10.180  0.00  0.00     0.093 A 
HETATM    5  C   UNK N   1      37.916  11.782  10.534  0.00  0.00     0.013 A 
HETATM    6  C   UNK N   1      37.531  11.137   9.218  0.00  0.00     0.032 A 
HETATM    7  C   UNK N   1      38.237  13.270  10.348  0.00  0.00     0.047 C 
HETATM    8  C   UNK N   1      34.629  13.194   9.622  0.00  0.00     0.244 C 
HETATM    9  C   UNK N   1      37.009  13.934   9.755  0.00  0.00     0.195 C 
HETATM   10  C   UNK N   1      36.734  15.230  10.394  0.00  0.00     0.085 C 
ENDROOT
BRANCH   8  11
HETATM   11  C   UNK N   1      34.121  14.628   9.656  0.00  0.00     0.176 C 
BRANCH  11  12
HETATM   12  N   UNK N   1      33.494  14.883  10.947  0.00  0.00    -0.418 N 
HETATM   13  H   UNK N   1      33.313  15.165  11.911  0.00  0.00     0.150 HD
HETATM   14  H   UNK N   1      32.570  14.508  10.733  0.00  0.00     0.150 HD
ENDBRANCH  11  12
BRANCH  11  15
HETATM   15  C   UNK N   1      33.557  15.489   8.483  0.00  0.00    -0.008 C 
HETATM   16  C   UNK N   1      34.225  15.216   7.118  0.00  0.00     0.050 C 
HETATM   17  C   UNK N   1      33.569  16.092   6.020  0.00  0.00     0.059 C 
HETATM   18  C   UNK N   1      33.706  17.582   6.379  0.00  0.00     0.042 C 
HETATM   19  C   UNK N   1      32.076  15.743   5.917  0.00  0.00     0.042 C 
HETATM   20  C   UNK N   1      33.028  17.859   7.727  0.00  0.00    -0.010 C 
HETATM   21  C   UNK N   1      33.704  16.990   8.812  0.00  0.00     0.016 C 
HETATM   22  C   UNK N   1      31.535  17.506   7.620  0.00  0.00     0.009 C 
HETATM   23  C   UNK N   1      31.378  16.025   7.256  0.00  0.00    -0.010 C 
HETATM   24  C   UNK N   1      32.038  15.189   8.354  0.00  0.00     0.016 C 
BRANCH  17  25
HETATM   25  O   UNK N   1      34.187  15.859   4.792  0.00  0.00    -0.390 OA
HETATM   26  H   UNK N   1      33.670  15.520   4.045  0.00  0.00     0.210 HD
ENDBRANCH  17  25
ENDBRANCH  11  15
ENDBRANCH   8  11
TORSDOF 4
ENDMDL
MODEL 8
REMARK VINA RESULT:      -6.4      6.155      9.067
REMARK  4 active torsions:
REMARK  status: ('A' for Active; 'I' for Inactive)
REMARK    1  A    between atoms: O_1  and  C_7 
REMARK       I    between atoms: N_3  and  C_21 
REMARK    2  A    between atoms: C_16  and  N_4 
REMARK    3  A    between atoms: C_6  and  C_16 
REMARK    4  A    between atoms: C_16  and  C_21 
ROOT
HETATM    1  O   UNK N   1      36.860  12.967   8.253  0.00  0.00    -0.271 OA
HETATM    2  N   UNK N   1      35.406  14.686   8.122  0.00  0.00    -0.328 N 
HETATM    3  N   UNK N   1      35.583  17.046  10.721  0.00  0.00    -0.195 NA
HETATM    4  C   UNK N   1      35.359  14.670   6.672  0.00  0.00     0.093 A 
HETATM    5  C   UNK N   1      34.517  15.880   6.277  0.00  0.00     0.013 A 
HETATM    6  C   UNK N   1      33.930  14.488   6.164  0.00  0.00     0.032 A 
HETATM    7  C   UNK N   1      34.086  16.559   7.583  0.00  0.00     0.047 C 
HETATM    8  C   UNK N   1      36.224  13.838   8.835  0.00  0.00     0.244 C 
HETATM    9  C   UNK N   1      34.545  15.680   8.731  0.00  0.00     0.195 C 
HETATM   10  C   UNK N   1      35.119  16.477   9.825  0.00  0.00     0.085 C 
ENDROOT
BRANCH   8  11
HETATM   11  C   UNK N   1      36.549  14.138  10.291  0.00  0.00     0.176 C 
BRANCH  11  12
HETATM   12  N   UNK N   1      37.802  14.882  10.357  0.00  0.00    -0.418 N 
HETATM   13  H   UNK N   1      38.650  15.348  10.681  0.00  0.00     0.150 HD
HETATM   14  H   UNK N   1      37.903  15.081   9.361  0.00  0.00     0.150 HD
ENDBRANCH  11  12
BRANCH  11  15
HETATM   15  C   UNK N   1      36.243  13.276  11.555  0.00  0.00    -0.008 C 
HETATM   16  C   UNK N   1      35.029  12.335  11.400  0.00  0.00     0.050 C 
HETATM   17  C   UNK N   1      34.835  11.502  12.694  0.00  0.00     0.059 C 
HETATM   18  C   UNK N   1      34.623  12.434  13.898  0.00  0.00     0.042 C 
HETATM   19  C   UNK N   1      36.091  10.651  12.942  0.00  0.00     0.042 C 
HETATM   20  C   UNK N   1      35.835  13.360  14.063  0.00  0.00    -0.010 C 
HETATM   21  C   UNK N   1      36.004  14.193  12.773  0.00  0.00     0.016 C 
HETATM   22  C   UNK N   1      37.089  12.504  14.310  0.00  0.00     0.009 C 
HETATM   23  C   UNK N   1      37.314  11.562  13.121  0.00  0.00    -0.010 C 
HETATM   24  C   UNK N   1      37.497  12.413  11.863  0.00  0.00     0.016 C 
BRANCH  17  25
HETATM   25  O   UNK N   1      33.726  10.667  12.560  0.00  0.00    -0.390 OA
HETATM   26  H   UNK N   1      32.965  10.773  13.152  0.00  0.00     0.210 HD
ENDBRANCH  17  25
ENDBRANCH  11  15
ENDBRANCH   8  11
TORSDOF 4
ENDMDL
MODEL 9
REMARK VINA RESULT:      -6.4      7.098     10.359
REMARK  4 active torsions:
REMARK  status: ('A' for Active; 'I' for Inactive)
REMARK    1  A    between atoms: O_1  and  C_7 
REMARK       I    between atoms: N_3  and  C_21 
REMARK    2  A    between atoms: C_16  and  N_4 
REMARK    3  A    between atoms: C_6  and  C_16 
REMARK    4  A    between atoms: C_16  and  C_21 
ROOT
HETATM    1  O   UNK N   1      36.565  15.099  13.768  0.00  0.00    -0.271 OA
HETATM    2  N   UNK N   1      35.776  13.090  14.421  0.00  0.00    -0.328 N 
HETATM    3  N   UNK N   1      36.232  10.450  12.145  0.00  0.00    -0.195 NA
HETATM    4  C   UNK N   1      35.981  13.353  15.833  0.00  0.00     0.093 A 
HETATM    5  C   UNK N   1      35.649  12.044  16.545  0.00  0.00     0.013 A 
HETATM    6  C   UNK N   1      34.680  13.208  16.620  0.00  0.00     0.032 A 
HETATM    7  C   UNK N   1      35.232  11.047  15.457  0.00  0.00     0.047 C 
HETATM    8  C   UNK N   1      36.146  13.993  13.449  0.00  0.00     0.244 C 
HETATM    9  C   UNK N   1      35.181  11.798  14.140  0.00  0.00     0.195 C 
HETATM   10  C   UNK N   1      35.777  11.014  13.048  0.00  0.00     0.085 C 
ENDROOT
BRANCH   8  11
HETATM   11  C   UNK N   1      36.289  13.540  12.003  0.00  0.00     0.176 C 
BRANCH  11  12
HETATM   12  N   UNK N   1      37.701  13.330  11.706  0.00  0.00    -0.418 N 
HETATM   13  H   UNK N   1      38.714  13.232  11.778  0.00  0.00     0.150 HD
HETATM   14  H   UNK N   1      37.611  13.156  10.705  0.00  0.00     0.150 HD
ENDBRANCH  11  12
BRANCH  11  15
HETATM   15  C   UNK N   1      35.421  13.936  10.768  0.00  0.00    -0.008 C 
HETATM   16  C   UNK N   1      34.007  14.446  11.125  0.00  0.00     0.050 C 
HETATM   17  C   UNK N   1      33.246  14.845   9.835  0.00  0.00     0.059 C 
HETATM   18  C   UNK N   1      33.142  13.639   8.886  0.00  0.00     0.042 C 
HETATM   19  C   UNK N   1      34.010  15.971   9.122  0.00  0.00     0.042 C 
HETATM   20  C   UNK N   1      34.545  13.141   8.517  0.00  0.00    -0.010 C 
HETATM   21  C   UNK N   1      35.284  12.733   9.812  0.00  0.00     0.016 C 
HETATM   22  C   UNK N   1      35.308  14.272   7.805  0.00  0.00     0.009 C 
HETATM   23  C   UNK N   1      35.416  15.487   8.735  0.00  0.00    -0.010 C 
HETATM   24  C   UNK N   1      36.167  15.059   9.998  0.00  0.00     0.016 C 
BRANCH  17  25
HETATM   25  O   UNK N   1      31.962  15.285  10.156  0.00  0.00    -0.390 OA
HETATM   26  H   UNK N   1      31.832  15.907  10.889  0.00  0.00     0.210 HD
ENDBRANCH  17  25
ENDBRANCH  11  15
ENDBRANCH   8  11
TORSDOF 4
ENDMDL
