REMARK  4 active torsions:
REMARK  status: ('A' for Active; 'I' for Inactive)
REMARK    1  A    between atoms: O_1  and  C_7 
REMARK       I    between atoms: N_3  and  C_21 
REMARK    2  A    between atoms: C_16  and  N_4 
REMARK    3  A    between atoms: C_6  and  C_16 
REMARK    4  A    between atoms: C_16  and  C_21 
ROOT
HETATM    1  O   UNK N   1       6.804   1.459  -1.101  0.00  0.00    -0.271 OA
HETATM    2  N   UNK N   1       7.170  -0.550  -0.143  0.00  0.00    -0.328 N 
HETATM    3  N   UNK N   1       4.757  -3.022  -0.795  0.00  0.00    -0.195 NA
HETATM    4  C   UNK N   1       8.614  -0.411  -0.162  0.00  0.00     0.093 A 
HETATM    5  C   UNK N   1       9.160  -1.752   0.322  0.00  0.00     0.013 A 
HETATM    6  C   UNK N   1       9.204  -0.547   1.240  0.00  0.00     0.032 A 
HETATM    7  C   UNK N   1       7.944  -2.636   0.627  0.00  0.00     0.047 C 
HETATM    8  C   UNK N   1       6.338   0.406  -0.682  0.00  0.00     0.244 C 
HETATM    9  C   UNK N   1       6.702  -1.781   0.463  0.00  0.00     0.195 C 
HETATM   10  C   UNK N   1       5.636  -2.507  -0.244  0.00  0.00     0.085 C 
ENDROOT
BRANCH   8  11
HETATM   11  C   UNK N   1       4.891   0.062  -1.004  0.00  0.00     0.176 C 
BRANCH  11  12
HETATM   12  N   UNK N   1       4.794  -0.334  -2.404  0.00  0.00    -0.418 N 
HETATM   13  H   UNK N   1       4.520  -0.414  -3.384  0.00  0.00     0.150 HD
HETATM   14  H   UNK N   1       5.530  -1.040  -2.404  0.00  0.00     0.150 HD
ENDBRANCH  11  12
BRANCH  11  15
HETATM   15  C   UNK N   1       3.587   0.690  -0.419  0.00  0.00    -0.008 C 
HETATM   16  C   UNK N   1       3.577   2.234  -0.411  0.00  0.00     0.050 C 
HETATM   17  C   UNK N   1       2.229   2.753   0.153  0.00  0.00     0.059 C 
HETATM   18  C   UNK N   1       2.012   2.222   1.580  0.00  0.00     0.042 C 
HETATM   19  C   UNK N   1       1.081   2.257  -0.740  0.00  0.00     0.042 C 
HETATM   20  C   UNK N   1       2.006   0.688   1.572  0.00  0.00    -0.010 C 
HETATM   21  C   UNK N   1       3.361   0.188   1.023  0.00  0.00     0.016 C 
HETATM   22  C   UNK N   1       0.856   0.196   0.676  0.00  0.00     0.009 C 
HETATM   23  C   UNK N   1       1.052   0.721  -0.751  0.00  0.00    -0.010 C 
HETATM   24  C   UNK N   1       2.390   0.196  -1.276  0.00  0.00     0.016 C 
BRANCH  17  25
HETATM   25  O   UNK N   1       2.229   4.147   0.179  0.00  0.00    -0.390 OA
HETATM   26  H   UNK N   1       3.069   4.632   0.197  0.00  0.00     0.210 HD
ENDBRANCH  17  25
ENDBRANCH  11  15
ENDBRANCH   8  11
TORSDOF 4
