REMARK  27 active torsions:
REMARK  status: ('A' for Active; 'I' for Inactive)
REMARK    1  A    between atoms: O_3  and  C_42 
REMARK    2  A    between atoms: O_4  and  C_41 
REMARK    3  A    between atoms: O_11  and  C_72 
REMARK    4  A    between atoms: O_12  and  C_71 
REMARK    5  A    between atoms: O_13  and  C_74 
REMARK    6  A    between atoms: O_14  and  C_73 
REMARK    7  A    between atoms: O_15  and  C_76 
REMARK    8  A    between atoms: O_17  and  C_84 
REMARK    9  A    between atoms: O_18  and  C_83 
REMARK   10  A    between atoms: O_19  and  C_85 
REMARK   11  A    between atoms: O_20  and  C_86 
REMARK   12  A    between atoms: O_21  and  C_90 
REMARK   13  A    between atoms: O_22  and  C_89 
REMARK   14  A    between atoms: O_29  and  C_108 
REMARK   15  A    between atoms: O_30  and  C_107 
REMARK   16  A    between atoms: O_31  and  C_110 
REMARK   17  A    between atoms: O_32  and  C_109 
REMARK   18  A    between atoms: O_33  and  C_114 
REMARK   19  A    between atoms: O_34  and  C_113 
REMARK   20  A    between atoms: C_39  and  C_51 
REMARK   21  A    between atoms: C_40  and  C_52 
REMARK   22  A    between atoms: C_65  and  C_85 
REMARK   23  A    between atoms: C_66  and  C_86 
REMARK   24  A    between atoms: C_67  and  C_90 
REMARK   25  A    between atoms: C_68  and  C_89 
REMARK   26  A    between atoms: C_69  and  C_87 
REMARK   27  A    between atoms: C_70  and  C_88 
ROOT
HETATM    1  O   UNK N   1      13.279   0.427  -2.150  0.00  0.00    -0.390 OA
HETATM    2  O   UNK N   1      18.074   2.351   1.186  0.00  0.00    -0.323 OA
HETATM    3  O   UNK N   1      18.068   0.759  -0.353  0.00  0.00    -0.323 OA
HETATM    4  C   UNK N   1      11.899   1.542  -0.544  0.00  0.00     0.058 C 
HETATM    5  C   UNK N   1      11.921   2.092   0.882  0.00  0.00     0.105 C 
HETATM    6  C   UNK N   1      13.175   2.917   1.213  0.00  0.00     0.067 C 
HETATM    7  C   UNK N   1      13.118   0.635  -0.778  0.00  0.00     0.158 C 
HETATM    8  C   UNK N   1      14.424   2.148   0.845  0.00  0.00    -0.037 A 
HETATM    9  C   UNK N   1      14.408   1.118  -0.147  0.00  0.00    -0.019 A 
HETATM   10  C   UNK N   1      15.656   2.588   1.381  0.00  0.00     0.048 A 
HETATM   11  C   UNK N   1      15.633   0.559  -0.577  0.00  0.00     0.050 A 
HETATM   12  C   UNK N   1      16.818   2.031   0.886  0.00  0.00     0.105 A 
HETATM   13  C   UNK N   1      16.812   1.073  -0.043  0.00  0.00     0.105 A 
HETATM   14  C   UNK N   1      18.926   1.565   0.405  0.00  0.00     0.352 A 
HETATM   15  H   UNK N   1      13.210   0.258  -3.102  0.00  0.00     0.210 HD
ENDROOT
BRANCH   4  16
HETATM   16  C   UNK N   1      10.623   0.777  -0.894  0.00  0.00     0.172 C 
BRANCH  16  17
HETATM   17  O   UNK N   1      10.473  -0.350  -0.083  0.00  0.00    -0.400 OA
HETATM   18  H   UNK N   1       9.743  -0.652   0.480  0.00  0.00     0.209 HD
ENDBRANCH  16  17
ENDBRANCH   4  16
BRANCH   5  19
HETATM   19  C   UNK N   1      10.627   2.453   1.577  0.00  0.00     0.145 C 
HETATM   20  O   UNK N   1      10.287   3.615   1.718  0.00  0.00    -0.650 OA
BRANCH  19  21
HETATM   21  O   UNK N   1       9.864   1.477   2.101  0.00  0.00    -0.776 OA
HETATM   22  H   UNK N   1       9.009   1.597   2.466  0.00  0.00     0.167 HD
ENDBRANCH  19  21
ENDBRANCH   5  19
BRANCH   6  23
HETATM   23  C   UNK N   1      13.281   4.326   0.602  0.00  0.00    -0.043 A 
HETATM   24  C   UNK N   1      14.500   4.746   0.038  0.00  0.00     0.047 A 
HETATM   25  C   UNK N   1      14.751   6.051  -0.324  0.00  0.00     0.104 A 
HETATM   26  C   UNK N   1      13.724   6.996  -0.153  0.00  0.00     0.135 A 
HETATM   27  C   UNK N   1      12.445   6.578   0.277  0.00  0.00     0.104 A 
HETATM   28  C   UNK N   1      12.250   5.260   0.698  0.00  0.00     0.047 A 
BRANCH  25  29
HETATM   29  O   UNK N   1      15.992   6.343  -0.797  0.00  0.00    -0.353 OA
HETATM   30  C   UNK N   1      16.380   7.535  -1.363  0.00  0.00     0.210 C 
ENDBRANCH  25  29
BRANCH  26  31
HETATM   31  O   UNK N   1      13.972   8.301  -0.305  0.00  0.00    -0.351 OA
HETATM   32  C   UNK N   1      14.692   8.920   0.695  0.00  0.00     0.210 C 
ENDBRANCH  26  31
BRANCH  27  33
HETATM   33  O   UNK N   1      11.399   7.426   0.303  0.00  0.00    -0.353 OA
HETATM   34  C   UNK N   1      11.200   8.341  -0.708  0.00  0.00     0.210 C 
ENDBRANCH  27  33
ENDBRANCH   6  23
TORSDOF 27
