MODEL 1
REMARK VINA RESULT:      -7.6      0.000      0.000
REMARK  27 active torsions:
REMARK  status: ('A' for Active; 'I' for Inactive)
REMARK    1  A    between atoms: O_3  and  C_42 
REMARK    2  A    between atoms: O_4  and  C_41 
REMARK    3  A    between atoms: O_11  and  C_72 
REMARK    4  A    between atoms: O_12  and  C_71 
REMARK    5  A    between atoms: O_13  and  C_74 
REMARK    6  A    between atoms: O_14  and  C_73 
REMARK    7  A    between atoms: O_15  and  C_76 
REMARK    8  A    between atoms: O_17  and  C_84 
REMARK    9  A    between atoms: O_18  and  C_83 
REMARK   10  A    between atoms: O_19  and  C_85 
REMARK   11  A    between atoms: O_20  and  C_86 
REMARK   12  A    between atoms: O_21  and  C_90 
REMARK   13  A    between atoms: O_22  and  C_89 
REMARK   14  A    between atoms: O_29  and  C_108 
REMARK   15  A    between atoms: O_30  and  C_107 
REMARK   16  A    between atoms: O_31  and  C_110 
REMARK   17  A    between atoms: O_32  and  C_109 
REMARK   18  A    between atoms: O_33  and  C_114 
REMARK   19  A    between atoms: O_34  and  C_113 
REMARK   20  A    between atoms: C_39  and  C_51 
REMARK   21  A    between atoms: C_40  and  C_52 
REMARK   22  A    between atoms: C_65  and  C_85 
REMARK   23  A    between atoms: C_66  and  C_86 
REMARK   24  A    between atoms: C_67  and  C_90 
REMARK   25  A    between atoms: C_68  and  C_89 
REMARK   26  A    between atoms: C_69  and  C_87 
REMARK   27  A    between atoms: C_70  and  C_88 
ROOT
HETATM    1  O   UNK N   1      27.864  19.345   3.852  0.00  0.00    -0.390 OA
HETATM    2  O   UNK N   1      29.243  13.385   3.223  0.00  0.00    -0.323 OA
HETATM    3  O   UNK N   1      28.188  14.675   1.765  0.00  0.00    -0.323 OA
HETATM    4  C   UNK N   1      28.290  19.048   6.188  0.00  0.00     0.058 C 
HETATM    5  C   UNK N   1      28.392  17.965   7.262  0.00  0.00     0.105 C 
HETATM    6  C   UNK N   1      29.218  16.741   6.836  0.00  0.00     0.067 C 
HETATM    7  C   UNK N   1      27.637  18.474   4.921  0.00  0.00     0.158 C 
HETATM    8  C   UNK N   1      28.739  16.221   5.500  0.00  0.00    -0.037 A 
HETATM    9  C   UNK N   1      28.054  17.061   4.567  0.00  0.00    -0.019 A 
HETATM   10  C   UNK N   1      29.137  14.920   5.113  0.00  0.00     0.048 A 
HETATM   11  C   UNK N   1      27.790  16.573   3.268  0.00  0.00     0.050 A 
HETATM   12  C   UNK N   1      28.886  14.521   3.815  0.00  0.00     0.105 A 
HETATM   13  C   UNK N   1      28.252  15.301   2.938  0.00  0.00     0.105 A 
HETATM   14  C   UNK N   1      28.825  13.434   1.890  0.00  0.00     0.352 A 
HETATM   15  H   UNK N   1      27.978  20.080   3.230  0.00  0.00     0.210 HD
ENDROOT
BRANCH   4  16
HETATM   16  C   UNK N   1      27.524  20.293   6.634  0.00  0.00     0.172 C 
BRANCH  16  17
HETATM   17  O   UNK N   1      26.164  20.181   6.338  0.00  0.00    -0.400 OA
HETATM   18  H   UNK N   1      25.566  19.417   6.314  0.00  0.00     0.209 HD
ENDBRANCH  16  17
ENDBRANCH   4  16
BRANCH   5  19
HETATM   19  C   UNK N   1      28.382  18.344   8.726  0.00  0.00     0.145 C 
HETATM   20  O   UNK N   1      29.335  18.903   9.242  0.00  0.00    -0.650 OA
BRANCH  19  21
HETATM   21  O   UNK N   1      27.326  18.007   9.489  0.00  0.00    -0.776 OA
HETATM   22  H   UNK N   1      27.089  17.132   9.726  0.00  0.00     0.167 HD
ENDBRANCH  19  21
ENDBRANCH   5  19
BRANCH   6  23
HETATM   23  C   UNK N   1      30.747  16.904   6.768  0.00  0.00    -0.043 A 
HETATM   24  C   UNK N   1      31.356  17.211   5.537  0.00  0.00     0.047 A 
HETATM   25  C   UNK N   1      32.718  17.154   5.337  0.00  0.00     0.104 A 
HETATM   26  C   UNK N   1      33.535  16.807   6.428  0.00  0.00     0.135 A 
HETATM   27  C   UNK N   1      32.965  16.633   7.709  0.00  0.00     0.104 A 
HETATM   28  C   UNK N   1      31.576  16.632   7.857  0.00  0.00     0.047 A 
BRANCH  25  29
HETATM   29  O   UNK N   1      33.179  17.410   4.084  0.00  0.00    -0.353 OA
HETATM   30  C   UNK N   1      32.645  16.924   2.913  0.00  0.00     0.210 C 
ENDBRANCH  25  29
BRANCH  26  31
HETATM   31  O   UNK N   1      34.834  16.551   6.246  0.00  0.00    -0.351 OA
HETATM   32  C   UNK N   1      35.172  15.261   5.893  0.00  0.00     0.210 C 
ENDBRANCH  26  31
BRANCH  27  33
HETATM   33  O   UNK N   1      33.731  16.454   8.802  0.00  0.00    -0.353 OA
HETATM   34  C   UNK N   1      33.788  15.233   9.439  0.00  0.00     0.210 C 
ENDBRANCH  27  33
ENDBRANCH   6  23
TORSDOF 27
ENDMDL
MODEL 2
REMARK VINA RESULT:      -7.3      6.797      9.985
REMARK  27 active torsions:
REMARK  status: ('A' for Active; 'I' for Inactive)
REMARK    1  A    between atoms: O_3  and  C_42 
REMARK    2  A    between atoms: O_4  and  C_41 
REMARK    3  A    between atoms: O_11  and  C_72 
REMARK    4  A    between atoms: O_12  and  C_71 
REMARK    5  A    between atoms: O_13  and  C_74 
REMARK    6  A    between atoms: O_14  and  C_73 
REMARK    7  A    between atoms: O_15  and  C_76 
REMARK    8  A    between atoms: O_17  and  C_84 
REMARK    9  A    between atoms: O_18  and  C_83 
REMARK   10  A    between atoms: O_19  and  C_85 
REMARK   11  A    between atoms: O_20  and  C_86 
REMARK   12  A    between atoms: O_21  and  C_90 
REMARK   13  A    between atoms: O_22  and  C_89 
REMARK   14  A    between atoms: O_29  and  C_108 
REMARK   15  A    between atoms: O_30  and  C_107 
REMARK   16  A    between atoms: O_31  and  C_110 
REMARK   17  A    between atoms: O_32  and  C_109 
REMARK   18  A    between atoms: O_33  and  C_114 
REMARK   19  A    between atoms: O_34  and  C_113 
REMARK   20  A    between atoms: C_39  and  C_51 
REMARK   21  A    between atoms: C_40  and  C_52 
REMARK   22  A    between atoms: C_65  and  C_85 
REMARK   23  A    between atoms: C_66  and  C_86 
REMARK   24  A    between atoms: C_67  and  C_90 
REMARK   25  A    between atoms: C_68  and  C_89 
REMARK   26  A    between atoms: C_69  and  C_87 
REMARK   27  A    between atoms: C_70  and  C_88 
ROOT
HETATM    1  O   UNK N   1      21.223  20.015   4.085  0.00  0.00    -0.390 OA
HETATM    2  O   UNK N   1      26.562  17.299   5.480  0.00  0.00    -0.323 OA
HETATM    3  O   UNK N   1      26.207  19.459   5.143  0.00  0.00    -0.323 OA
HETATM    4  C   UNK N   1      20.429  17.832   3.507  0.00  0.00     0.058 C 
HETATM    5  C   UNK N   1      20.924  16.434   3.137  0.00  0.00     0.105 C 
HETATM    6  C   UNK N   1      22.053  15.912   4.040  0.00  0.00     0.067 C 
HETATM    7  C   UNK N   1      21.587  18.840   3.421  0.00  0.00     0.158 C 
HETATM    8  C   UNK N   1      23.162  16.936   4.142  0.00  0.00    -0.037 A 
HETATM    9  C   UNK N   1      22.923  18.328   3.918  0.00  0.00    -0.019 A 
HETATM   10  C   UNK N   1      24.415  16.509   4.637  0.00  0.00     0.048 A 
HETATM   11  C   UNK N   1      23.951  19.256   4.201  0.00  0.00     0.050 A 
HETATM   12  C   UNK N   1      25.360  17.470   4.934  0.00  0.00     0.105 A 
HETATM   13  C   UNK N   1      25.144  18.772   4.733  0.00  0.00     0.105 A 
HETATM   14  C   UNK N   1      27.151  18.556   5.647  0.00  0.00     0.352 A 
HETATM   15  H   UNK N   1      20.811  20.808   4.459  0.00  0.00     0.210 HD
ENDROOT
BRANCH   4  16
HETATM   16  C   UNK N   1      19.263  18.324   2.651  0.00  0.00     0.172 C 
BRANCH  16  17
HETATM   17  O   UNK N   1      19.635  19.427   1.880  0.00  0.00    -0.400 OA
HETATM   18  H   UNK N   1      20.190  20.198   2.075  0.00  0.00     0.209 HD
ENDBRANCH  16  17
ENDBRANCH   4  16
BRANCH   5  19
HETATM   19  C   UNK N   1      19.971  15.426   2.535  0.00  0.00     0.145 C 
HETATM   20  O   UNK N   1      20.019  15.138   1.351  0.00  0.00    -0.650 OA
BRANCH  19  21
HETATM   21  O   UNK N   1      19.014  14.878   3.305  0.00  0.00    -0.776 OA
HETATM   22  H   UNK N   1      19.113  14.099   3.817  0.00  0.00     0.167 HD
ENDBRANCH  19  21
ENDBRANCH   5  19
BRANCH   6  23
HETATM   23  C   UNK N   1      21.677  15.469   5.466  0.00  0.00    -0.043 A 
HETATM   24  C   UNK N   1      21.478  14.102   5.735  0.00  0.00     0.047 A 
HETATM   25  C   UNK N   1      20.926  13.640   6.910  0.00  0.00     0.104 A 
HETATM   26  C   UNK N   1      20.582  14.581   7.896  0.00  0.00     0.135 A 
HETATM   27  C   UNK N   1      20.900  15.945   7.712  0.00  0.00     0.104 A 
HETATM   28  C   UNK N   1      21.397  16.382   6.481  0.00  0.00     0.047 A 
BRANCH  25  29
HETATM   29  O   UNK N   1      20.724  12.300   7.023  0.00  0.00    -0.353 OA
HETATM   30  C   UNK N   1      20.973  11.361   6.050  0.00  0.00     0.210 C 
ENDBRANCH  25  29
BRANCH  26  31
HETATM   31  O   UNK N   1      19.872  14.211   8.967  0.00  0.00    -0.351 OA
HETATM   32  C   UNK N   1      20.576  13.696  10.035  0.00  0.00     0.210 C 
ENDBRANCH  26  31
BRANCH  27  33
HETATM   33  O   UNK N   1      20.727  16.848   8.696  0.00  0.00    -0.353 OA
HETATM   34  C   UNK N   1      19.603  17.643   8.742  0.00  0.00     0.210 C 
ENDBRANCH  27  33
ENDBRANCH   6  23
TORSDOF 27
ENDMDL
MODEL 3
REMARK VINA RESULT:      -7.2      6.200      8.946
REMARK  27 active torsions:
REMARK  status: ('A' for Active; 'I' for Inactive)
REMARK    1  A    between atoms: O_3  and  C_42 
REMARK    2  A    between atoms: O_4  and  C_41 
REMARK    3  A    between atoms: O_11  and  C_72 
REMARK    4  A    between atoms: O_12  and  C_71 
REMARK    5  A    between atoms: O_13  and  C_74 
REMARK    6  A    between atoms: O_14  and  C_73 
REMARK    7  A    between atoms: O_15  and  C_76 
REMARK    8  A    between atoms: O_17  and  C_84 
REMARK    9  A    between atoms: O_18  and  C_83 
REMARK   10  A    between atoms: O_19  and  C_85 
REMARK   11  A    between atoms: O_20  and  C_86 
REMARK   12  A    between atoms: O_21  and  C_90 
REMARK   13  A    between atoms: O_22  and  C_89 
REMARK   14  A    between atoms: O_29  and  C_108 
REMARK   15  A    between atoms: O_30  and  C_107 
REMARK   16  A    between atoms: O_31  and  C_110 
REMARK   17  A    between atoms: O_32  and  C_109 
REMARK   18  A    between atoms: O_33  and  C_114 
REMARK   19  A    between atoms: O_34  and  C_113 
REMARK   20  A    between atoms: C_39  and  C_51 
REMARK   21  A    between atoms: C_40  and  C_52 
REMARK   22  A    between atoms: C_65  and  C_85 
REMARK   23  A    between atoms: C_66  and  C_86 
REMARK   24  A    between atoms: C_67  and  C_90 
REMARK   25  A    between atoms: C_68  and  C_89 
REMARK   26  A    between atoms: C_69  and  C_87 
REMARK   27  A    between atoms: C_70  and  C_88 
ROOT
HETATM    1  O   UNK N   1      19.643  15.875   2.387  0.00  0.00    -0.390 OA
HETATM    2  O   UNK N   1      21.079  16.550   8.328  0.00  0.00    -0.323 OA
HETATM    3  O   UNK N   1      19.634  15.117   7.456  0.00  0.00    -0.323 OA
HETATM    4  C   UNK N   1      20.658  18.015   2.047  0.00  0.00     0.058 C 
HETATM    5  C   UNK N   1      21.076  19.279   2.799  0.00  0.00     0.105 C 
HETATM    6  C   UNK N   1      21.821  19.004   4.115  0.00  0.00     0.067 C 
HETATM    7  C   UNK N   1      19.732  17.160   2.927  0.00  0.00     0.158 C 
HETATM    8  C   UNK N   1      21.042  18.026   4.967  0.00  0.00    -0.037 A 
HETATM    9  C   UNK N   1      20.108  17.108   4.394  0.00  0.00    -0.019 A 
HETATM   10  C   UNK N   1      21.386  17.917   6.334  0.00  0.00     0.048 A 
HETATM   11  C   UNK N   1      19.545  16.100   5.210  0.00  0.00     0.050 A 
HETATM   12  C   UNK N   1      20.834  16.884   7.064  0.00  0.00     0.105 A 
HETATM   13  C   UNK N   1      19.965  16.020   6.536  0.00  0.00     0.105 A 
HETATM   14  C   UNK N   1      20.335  15.406   8.633  0.00  0.00     0.352 A 
HETATM   15  H   UNK N   1      19.563  15.070   1.852  0.00  0.00     0.210 HD
ENDROOT
BRANCH   4  16
HETATM   16  C   UNK N   1      19.976  18.288   0.707  0.00  0.00     0.172 C 
BRANCH  16  17
HETATM   17  O   UNK N   1      20.289  17.299  -0.228  0.00  0.00    -0.400 OA
HETATM   18  H   UNK N   1      20.178  16.335  -0.215  0.00  0.00     0.209 HD
ENDBRANCH  16  17
ENDBRANCH   4  16
BRANCH   5  19
HETATM   19  C   UNK N   1      21.420  20.538   2.036  0.00  0.00     0.145 C 
HETATM   20  O   UNK N   1      21.638  20.512   0.837  0.00  0.00    -0.650 OA
BRANCH  19  21
HETATM   21  O   UNK N   1      21.545  21.701   2.701  0.00  0.00    -0.776 OA
HETATM   22  H   UNK N   1      21.354  21.826   3.610  0.00  0.00     0.167 HD
ENDBRANCH  19  21
ENDBRANCH   5  19
BRANCH   6  23
HETATM   23  C   UNK N   1      23.274  18.506   4.019  0.00  0.00    -0.043 A 
HETATM   24  C   UNK N   1      23.535  17.123   4.044  0.00  0.00     0.047 A 
HETATM   25  C   UNK N   1      24.801  16.600   4.188  0.00  0.00     0.104 A 
HETATM   26  C   UNK N   1      25.883  17.494   4.279  0.00  0.00     0.135 A 
HETATM   27  C   UNK N   1      25.667  18.880   4.115  0.00  0.00     0.104 A 
HETATM   28  C   UNK N   1      24.363  19.377   4.038  0.00  0.00     0.047 A 
BRANCH  25  29
HETATM   29  O   UNK N   1      24.915  15.247   4.264  0.00  0.00    -0.353 OA
HETATM   30  C   UNK N   1      25.094  14.392   3.201  0.00  0.00     0.210 C 
ENDBRANCH  25  29
BRANCH  26  31
HETATM   31  O   UNK N   1      27.100  17.053   4.610  0.00  0.00    -0.351 OA
HETATM   32  C   UNK N   1      27.383  16.952   5.956  0.00  0.00     0.210 C 
ENDBRANCH  26  31
BRANCH  27  33
HETATM   33  O   UNK N   1      26.694  19.748   4.041  0.00  0.00    -0.353 OA
HETATM   34  C   UNK N   1      26.915  20.675   5.036  0.00  0.00     0.210 C 
ENDBRANCH  27  33
ENDBRANCH   6  23
TORSDOF 27
ENDMDL
MODEL 4
REMARK VINA RESULT:      -7.1      6.095      8.824
REMARK  27 active torsions:
REMARK  status: ('A' for Active; 'I' for Inactive)
REMARK    1  A    between atoms: O_3  and  C_42 
REMARK    2  A    between atoms: O_4  and  C_41 
REMARK    3  A    between atoms: O_11  and  C_72 
REMARK    4  A    between atoms: O_12  and  C_71 
REMARK    5  A    between atoms: O_13  and  C_74 
REMARK    6  A    between atoms: O_14  and  C_73 
REMARK    7  A    between atoms: O_15  and  C_76 
REMARK    8  A    between atoms: O_17  and  C_84 
REMARK    9  A    between atoms: O_18  and  C_83 
REMARK   10  A    between atoms: O_19  and  C_85 
REMARK   11  A    between atoms: O_20  and  C_86 
REMARK   12  A    between atoms: O_21  and  C_90 
REMARK   13  A    between atoms: O_22  and  C_89 
REMARK   14  A    between atoms: O_29  and  C_108 
REMARK   15  A    between atoms: O_30  and  C_107 
REMARK   16  A    between atoms: O_31  and  C_110 
REMARK   17  A    between atoms: O_32  and  C_109 
REMARK   18  A    between atoms: O_33  and  C_114 
REMARK   19  A    between atoms: O_34  and  C_113 
REMARK   20  A    between atoms: C_39  and  C_51 
REMARK   21  A    between atoms: C_40  and  C_52 
REMARK   22  A    between atoms: C_65  and  C_85 
REMARK   23  A    between atoms: C_66  and  C_86 
REMARK   24  A    between atoms: C_67  and  C_90 
REMARK   25  A    between atoms: C_68  and  C_89 
REMARK   26  A    between atoms: C_69  and  C_87 
REMARK   27  A    between atoms: C_70  and  C_88 
ROOT
HETATM    1  O   UNK N   1      19.634  15.979   2.469  0.00  0.00    -0.390 OA
HETATM    2  O   UNK N   1      21.096  16.291   8.434  0.00  0.00    -0.323 OA
HETATM    3  O   UNK N   1      19.550  15.009   7.501  0.00  0.00    -0.323 OA
HETATM    4  C   UNK N   1      20.809  18.049   2.221  0.00  0.00     0.058 C 
HETATM    5  C   UNK N   1      21.318  19.245   3.026  0.00  0.00     0.105 C 
HETATM    6  C   UNK N   1      22.035  18.859   4.330  0.00  0.00     0.067 C 
HETATM    7  C   UNK N   1      19.817  17.230   3.063  0.00  0.00     0.158 C 
HETATM    8  C   UNK N   1      21.182  17.907   5.138  0.00  0.00    -0.037 A 
HETATM    9  C   UNK N   1      20.183  17.087   4.526  0.00  0.00    -0.019 A 
HETATM   10  C   UNK N   1      21.512  17.714   6.500  0.00  0.00     0.048 A 
HETATM   11  C   UNK N   1      19.543  16.091   5.299  0.00  0.00     0.050 A 
HETATM   12  C   UNK N   1      20.881  16.696   7.185  0.00  0.00     0.105 A 
HETATM   13  C   UNK N   1      19.951  15.923   6.620  0.00  0.00     0.105 A 
HETATM   14  C   UNK N   1      20.267  15.194   8.689  0.00  0.00     0.352 A 
HETATM   15  H   UNK N   1      19.496  15.206   1.900  0.00  0.00     0.210 HD
ENDROOT
BRANCH   4  16
HETATM   16  C   UNK N   1      20.153  18.429   0.893  0.00  0.00     0.172 C 
BRANCH  16  17
HETATM   17  O   UNK N   1      20.341  17.431  -0.065  0.00  0.00    -0.400 OA
HETATM   18  H   UNK N   1      20.171  17.408  -1.020  0.00  0.00     0.209 HD
ENDBRANCH  16  17
ENDBRANCH   4  16
BRANCH   5  19
HETATM   19  C   UNK N   1      21.758  20.506   2.317  0.00  0.00     0.145 C 
HETATM   20  O   UNK N   1      22.723  20.509   1.572  0.00  0.00    -0.650 OA
BRANCH  19  21
HETATM   21  O   UNK N   1      21.110  21.660   2.558  0.00  0.00    -0.776 OA
HETATM   22  H   UNK N   1      20.302  21.738   3.027  0.00  0.00     0.167 HD
ENDBRANCH  19  21
ENDBRANCH   5  19
BRANCH   6  23
HETATM   23  C   UNK N   1      23.447  18.257   4.213  0.00  0.00    -0.043 A 
HETATM   24  C   UNK N   1      24.567  19.109   4.247  0.00  0.00     0.047 A 
HETATM   25  C   UNK N   1      25.840  18.691   3.928  0.00  0.00     0.104 A 
HETATM   26  C   UNK N   1      26.028  17.339   3.588  0.00  0.00     0.135 A 
HETATM   27  C   UNK N   1      24.950  16.431   3.683  0.00  0.00     0.104 A 
HETATM   28  C   UNK N   1      23.663  16.906   3.944  0.00  0.00     0.047 A 
BRANCH  25  29
HETATM   29  O   UNK N   1      26.828  19.625   3.935  0.00  0.00    -0.353 OA
HETATM   30  C   UNK N   1      27.329  20.262   5.046  0.00  0.00     0.210 C 
ENDBRANCH  25  29
BRANCH  26  31
HETATM   31  O   UNK N   1      27.196  16.923   3.088  0.00  0.00    -0.351 OA
HETATM   32  C   UNK N   1      28.162  16.537   3.993  0.00  0.00     0.210 C 
ENDBRANCH  26  31
BRANCH  27  33
HETATM   33  O   UNK N   1      25.129  15.106   3.517  0.00  0.00    -0.353 OA
HETATM   34  C   UNK N   1      24.718  14.473   2.364  0.00  0.00     0.210 C 
ENDBRANCH  27  33
ENDBRANCH   6  23
TORSDOF 27
ENDMDL
MODEL 5
REMARK VINA RESULT:      -6.7      6.713      9.886
REMARK  27 active torsions:
REMARK  status: ('A' for Active; 'I' for Inactive)
REMARK    1  A    between atoms: O_3  and  C_42 
REMARK    2  A    between atoms: O_4  and  C_41 
REMARK    3  A    between atoms: O_11  and  C_72 
REMARK    4  A    between atoms: O_12  and  C_71 
REMARK    5  A    between atoms: O_13  and  C_74 
REMARK    6  A    between atoms: O_14  and  C_73 
REMARK    7  A    between atoms: O_15  and  C_76 
REMARK    8  A    between atoms: O_17  and  C_84 
REMARK    9  A    between atoms: O_18  and  C_83 
REMARK   10  A    between atoms: O_19  and  C_85 
REMARK   11  A    between atoms: O_20  and  C_86 
REMARK   12  A    between atoms: O_21  and  C_90 
REMARK   13  A    between atoms: O_22  and  C_89 
REMARK   14  A    between atoms: O_29  and  C_108 
REMARK   15  A    between atoms: O_30  and  C_107 
REMARK   16  A    between atoms: O_31  and  C_110 
REMARK   17  A    between atoms: O_32  and  C_109 
REMARK   18  A    between atoms: O_33  and  C_114 
REMARK   19  A    between atoms: O_34  and  C_113 
REMARK   20  A    between atoms: C_39  and  C_51 
REMARK   21  A    between atoms: C_40  and  C_52 
REMARK   22  A    between atoms: C_65  and  C_85 
REMARK   23  A    between atoms: C_66  and  C_86 
REMARK   24  A    between atoms: C_67  and  C_90 
REMARK   25  A    between atoms: C_68  and  C_89 
REMARK   26  A    between atoms: C_69  and  C_87 
REMARK   27  A    between atoms: C_70  and  C_88 
ROOT
HETATM    1  O   UNK N   1      21.400  19.911   4.027  0.00  0.00    -0.390 OA
HETATM    2  O   UNK N   1      26.401  16.714   5.636  0.00  0.00    -0.323 OA
HETATM    3  O   UNK N   1      26.233  18.910   5.409  0.00  0.00    -0.323 OA
HETATM    4  C   UNK N   1      20.495  17.833   3.259  0.00  0.00     0.058 C 
HETATM    5  C   UNK N   1      20.913  16.423   2.841  0.00  0.00     0.105 C 
HETATM    6  C   UNK N   1      21.927  15.766   3.790  0.00  0.00     0.067 C 
HETATM    7  C   UNK N   1      21.726  18.751   3.320  0.00  0.00     0.158 C 
HETATM    8  C   UNK N   1      23.097  16.692   4.035  0.00  0.00    -0.037 A 
HETATM    9  C   UNK N   1      22.979  18.109   3.880  0.00  0.00    -0.019 A 
HETATM   10  C   UNK N   1      24.274  16.142   4.593  0.00  0.00     0.048 A 
HETATM   11  C   UNK N   1      24.048  18.937   4.294  0.00  0.00     0.050 A 
HETATM   12  C   UNK N   1      25.261  17.009   5.016  0.00  0.00     0.105 A 
HETATM   13  C   UNK N   1      25.157  18.332   4.880  0.00  0.00     0.105 A 
HETATM   14  C   UNK N   1      27.066  17.910   5.924  0.00  0.00     0.352 A 
HETATM   15  H   UNK N   1      21.020  20.713   4.418  0.00  0.00     0.210 HD
ENDROOT
BRANCH   4  16
HETATM   16  C   UNK N   1      19.438  18.461   2.352  0.00  0.00     0.172 C 
BRANCH  16  17
HETATM   17  O   UNK N   1      19.983  19.491   1.582  0.00  0.00    -0.400 OA
HETATM   18  H   UNK N   1      19.596  20.303   1.217  0.00  0.00     0.209 HD
ENDBRANCH  16  17
ENDBRANCH   4  16
BRANCH   5  19
HETATM   19  C   UNK N   1      19.938  15.528   2.109  0.00  0.00     0.145 C 
HETATM   20  O   UNK N   1      19.955  15.433   0.894  0.00  0.00    -0.650 OA
BRANCH  19  21
HETATM   21  O   UNK N   1      18.996  14.868   2.807  0.00  0.00    -0.776 OA
HETATM   22  H   UNK N   1      18.699  13.998   2.624  0.00  0.00     0.167 HD
ENDBRANCH  19  21
ENDBRANCH   5  19
BRANCH   6  23
HETATM   23  C   UNK N   1      21.410  15.274   5.154  0.00  0.00    -0.043 A 
HETATM   24  C   UNK N   1      21.203  16.202   6.191  0.00  0.00     0.047 A 
HETATM   25  C   UNK N   1      20.961  15.831   7.495  0.00  0.00     0.104 A 
HETATM   26  C   UNK N   1      20.882  14.458   7.790  0.00  0.00     0.135 A 
HETATM   27  C   UNK N   1      20.944  13.508   6.747  0.00  0.00     0.104 A 
HETATM   28  C   UNK N   1      21.258  13.920   5.449  0.00  0.00     0.047 A 
BRANCH  25  29
HETATM   29  O   UNK N   1      20.844  16.822   8.418  0.00  0.00    -0.353 OA
HETATM   30  C   UNK N   1      19.679  17.466   8.767  0.00  0.00     0.210 C 
ENDBRANCH  25  29
BRANCH  26  31
HETATM   31  O   UNK N   1      20.842  14.039   9.059  0.00  0.00    -0.351 OA
HETATM   32  C   UNK N   1      22.051  13.778   9.669  0.00  0.00     0.210 C 
ENDBRANCH  26  31
BRANCH  27  33
HETATM   33  O   UNK N   1      20.718  12.199   6.973  0.00  0.00    -0.353 OA
HETATM   34  C   UNK N   1      21.529  11.232   6.420  0.00  0.00     0.210 C 
ENDBRANCH  27  33
ENDBRANCH   6  23
TORSDOF 27
ENDMDL
MODEL 6
REMARK VINA RESULT:      -6.2      6.119      9.109
REMARK  27 active torsions:
REMARK  status: ('A' for Active; 'I' for Inactive)
REMARK    1  A    between atoms: O_3  and  C_42 
REMARK    2  A    between atoms: O_4  and  C_41 
REMARK    3  A    between atoms: O_11  and  C_72 
REMARK    4  A    between atoms: O_12  and  C_71 
REMARK    5  A    between atoms: O_13  and  C_74 
REMARK    6  A    between atoms: O_14  and  C_73 
REMARK    7  A    between atoms: O_15  and  C_76 
REMARK    8  A    between atoms: O_17  and  C_84 
REMARK    9  A    between atoms: O_18  and  C_83 
REMARK   10  A    between atoms: O_19  and  C_85 
REMARK   11  A    between atoms: O_20  and  C_86 
REMARK   12  A    between atoms: O_21  and  C_90 
REMARK   13  A    between atoms: O_22  and  C_89 
REMARK   14  A    between atoms: O_29  and  C_108 
REMARK   15  A    between atoms: O_30  and  C_107 
REMARK   16  A    between atoms: O_31  and  C_110 
REMARK   17  A    between atoms: O_32  and  C_109 
REMARK   18  A    between atoms: O_33  and  C_114 
REMARK   19  A    between atoms: O_34  and  C_113 
REMARK   20  A    between atoms: C_39  and  C_51 
REMARK   21  A    between atoms: C_40  and  C_52 
REMARK   22  A    between atoms: C_65  and  C_85 
REMARK   23  A    between atoms: C_66  and  C_86 
REMARK   24  A    between atoms: C_67  and  C_90 
REMARK   25  A    between atoms: C_68  and  C_89 
REMARK   26  A    between atoms: C_69  and  C_87 
REMARK   27  A    between atoms: C_70  and  C_88 
ROOT
HETATM    1  O   UNK N   1      21.887  18.618   6.712  0.00  0.00    -0.390 OA
HETATM    2  O   UNK N   1      20.777  19.469   0.723  0.00  0.00    -0.323 OA
HETATM    3  O   UNK N   1      20.723  20.998   2.323  0.00  0.00    -0.323 OA
HETATM    4  C   UNK N   1      21.595  16.282   6.286  0.00  0.00     0.058 C 
HETATM    5  C   UNK N   1      20.985  15.313   5.273  0.00  0.00     0.105 C 
HETATM    6  C   UNK N   1      21.304  15.659   3.810  0.00  0.00     0.067 C 
HETATM    7  C   UNK N   1      21.077  17.706   6.030  0.00  0.00     0.158 C 
HETATM    8  C   UNK N   1      20.978  17.108   3.528  0.00  0.00    -0.037 A 
HETATM    9  C   UNK N   1      20.941  18.087   4.570  0.00  0.00    -0.019 A 
HETATM   10  C   UNK N   1      20.880  17.516   2.178  0.00  0.00     0.048 A 
HETATM   11  C   UNK N   1      20.809  19.452   4.226  0.00  0.00     0.050 A 
HETATM   12  C   UNK N   1      20.797  18.867   1.909  0.00  0.00     0.105 A 
HETATM   13  C   UNK N   1      20.766  19.787   2.875  0.00  0.00     0.105 A 
HETATM   14  C   UNK N   1      20.741  20.850   0.931  0.00  0.00     0.352 A 
HETATM   15  H   UNK N   1      22.436  19.133   7.323  0.00  0.00     0.210 HD
ENDROOT
BRANCH   4  16
HETATM   16  C   UNK N   1      21.333  15.901   7.743  0.00  0.00     0.172 C 
BRANCH  16  17
HETATM   17  O   UNK N   1      20.652  16.919   8.415  0.00  0.00    -0.400 OA
HETATM   18  H   UNK N   1      19.710  17.060   8.596  0.00  0.00     0.209 HD
ENDBRANCH  16  17
ENDBRANCH   4  16
BRANCH   5  19
HETATM   19  C   UNK N   1      20.793  13.857   5.635  0.00  0.00     0.145 C 
HETATM   20  O   UNK N   1      19.680  13.389   5.807  0.00  0.00    -0.650 OA
BRANCH  19  21
HETATM   21  O   UNK N   1      21.871  13.076   5.827  0.00  0.00    -0.776 OA
HETATM   22  H   UNK N   1      21.909  12.341   6.408  0.00  0.00     0.167 HD
ENDBRANCH  19  21
ENDBRANCH   5  19
BRANCH   6  23
HETATM   23  C   UNK N   1      22.733  15.382   3.308  0.00  0.00    -0.043 A 
HETATM   24  C   UNK N   1      23.800  16.161   3.793  0.00  0.00     0.047 A 
HETATM   25  C   UNK N   1      25.062  16.135   3.241  0.00  0.00     0.104 A 
HETATM   26  C   UNK N   1      25.297  15.260   2.166  0.00  0.00     0.135 A 
HETATM   27  C   UNK N   1      24.287  14.364   1.750  0.00  0.00     0.104 A 
HETATM   28  C   UNK N   1      23.002  14.468   2.290  0.00  0.00     0.047 A 
BRANCH  25  29
HETATM   29  O   UNK N   1      25.990  16.984   3.757  0.00  0.00    -0.353 OA
HETATM   30  C   UNK N   1      25.954  18.357   3.688  0.00  0.00     0.210 C 
ENDBRANCH  25  29
BRANCH  26  31
HETATM   31  O   UNK N   1      26.438  15.331   1.472  0.00  0.00    -0.351 OA
HETATM   32  C   UNK N   1      27.518  14.637   1.974  0.00  0.00     0.210 C 
ENDBRANCH  26  31
BRANCH  27  33
HETATM   33  O   UNK N   1      24.527  13.409   0.831  0.00  0.00    -0.353 OA
HETATM   34  C   UNK N   1      23.530  12.966  -0.010  0.00  0.00     0.210 C 
ENDBRANCH  27  33
ENDBRANCH   6  23
TORSDOF 27
ENDMDL
MODEL 7
REMARK VINA RESULT:      -6.2      7.009      9.991
REMARK  27 active torsions:
REMARK  status: ('A' for Active; 'I' for Inactive)
REMARK    1  A    between atoms: O_3  and  C_42 
REMARK    2  A    between atoms: O_4  and  C_41 
REMARK    3  A    between atoms: O_11  and  C_72 
REMARK    4  A    between atoms: O_12  and  C_71 
REMARK    5  A    between atoms: O_13  and  C_74 
REMARK    6  A    between atoms: O_14  and  C_73 
REMARK    7  A    between atoms: O_15  and  C_76 
REMARK    8  A    between atoms: O_17  and  C_84 
REMARK    9  A    between atoms: O_18  and  C_83 
REMARK   10  A    between atoms: O_19  and  C_85 
REMARK   11  A    between atoms: O_20  and  C_86 
REMARK   12  A    between atoms: O_21  and  C_90 
REMARK   13  A    between atoms: O_22  and  C_89 
REMARK   14  A    between atoms: O_29  and  C_108 
REMARK   15  A    between atoms: O_30  and  C_107 
REMARK   16  A    between atoms: O_31  and  C_110 
REMARK   17  A    between atoms: O_32  and  C_109 
REMARK   18  A    between atoms: O_33  and  C_114 
REMARK   19  A    between atoms: O_34  and  C_113 
REMARK   20  A    between atoms: C_39  and  C_51 
REMARK   21  A    between atoms: C_40  and  C_52 
REMARK   22  A    between atoms: C_65  and  C_85 
REMARK   23  A    between atoms: C_66  and  C_86 
REMARK   24  A    between atoms: C_67  and  C_90 
REMARK   25  A    between atoms: C_68  and  C_89 
REMARK   26  A    between atoms: C_69  and  C_87 
REMARK   27  A    between atoms: C_70  and  C_88 
ROOT
HETATM    1  O   UNK N   1      24.509  13.717   2.375  0.00  0.00    -0.390 OA
HETATM    2  O   UNK N   1      18.385  13.707   1.807  0.00  0.00    -0.323 OA
HETATM    3  O   UNK N   1      19.835  12.470   0.680  0.00  0.00    -0.323 OA
HETATM    4  C   UNK N   1      24.255  15.805   3.517  0.00  0.00     0.058 C 
HETATM    5  C   UNK N   1      23.269  16.957   3.707  0.00  0.00     0.105 C 
HETATM    6  C   UNK N   1      21.824  16.504   3.970  0.00  0.00     0.067 C 
HETATM    7  C   UNK N   1      23.825  14.934   2.325  0.00  0.00     0.158 C 
HETATM    8  C   UNK N   1      21.386  15.504   2.923  0.00  0.00    -0.037 A 
HETATM    9  C   UNK N   1      22.331  14.713   2.198  0.00  0.00    -0.019 A 
HETATM   10  C   UNK N   1      20.004  15.238   2.797  0.00  0.00     0.048 A 
HETATM   11  C   UNK N   1      21.861  13.672   1.365  0.00  0.00     0.050 A 
HETATM   12  C   UNK N   1      19.614  14.179   2.001  0.00  0.00     0.105 A 
HETATM   13  C   UNK N   1      20.490  13.433   1.324  0.00  0.00     0.105 A 
HETATM   14  C   UNK N   1      18.470  12.593   0.967  0.00  0.00     0.352 A 
HETATM   15  H   UNK N   1      25.129  12.976   2.447  0.00  0.00     0.210 HD
ENDROOT
BRANCH   4  16
HETATM   16  C   UNK N   1      25.703  16.254   3.320  0.00  0.00     0.172 C 
BRANCH  16  17
HETATM   17  O   UNK N   1      26.161  15.930   2.042  0.00  0.00    -0.400 OA
HETATM   18  H   UNK N   1      26.701  15.195   1.713  0.00  0.00     0.209 HD
ENDBRANCH  16  17
ENDBRANCH   4  16
BRANCH   5  19
HETATM   19  C   UNK N   1      23.730  18.258   4.325  0.00  0.00     0.145 C 
HETATM   20  O   UNK N   1      23.761  19.290   3.677  0.00  0.00    -0.650 OA
BRANCH  19  21
HETATM   21  O   UNK N   1      24.171  18.266   5.596  0.00  0.00    -0.776 OA
HETATM   22  H   UNK N   1      23.738  18.682   6.315  0.00  0.00     0.167 HD
ENDBRANCH  19  21
ENDBRANCH   5  19
BRANCH   6  23
HETATM   23  C   UNK N   1      21.503  15.918   5.357  0.00  0.00    -0.043 A 
HETATM   24  C   UNK N   1      21.334  14.528   5.500  0.00  0.00     0.047 A 
HETATM   25  C   UNK N   1      20.830  13.945   6.641  0.00  0.00     0.104 A 
HETATM   26  C   UNK N   1      20.506  14.780   7.725  0.00  0.00     0.135 A 
HETATM   27  C   UNK N   1      20.797  16.161   7.663  0.00  0.00     0.104 A 
HETATM   28  C   UNK N   1      21.244  16.724   6.465  0.00  0.00     0.047 A 
BRANCH  25  29
HETATM   29  O   UNK N   1      20.653  12.597   6.631  0.00  0.00    -0.353 OA
HETATM   30  C   UNK N   1      21.611  11.655   6.924  0.00  0.00     0.210 C 
ENDBRANCH  25  29
BRANCH  26  31
HETATM   31  O   UNK N   1      19.839  14.296   8.778  0.00  0.00    -0.351 OA
HETATM   32  C   UNK N   1      20.592  13.875   9.853  0.00  0.00     0.210 C 
ENDBRANCH  26  31
BRANCH  27  33
HETATM   33  O   UNK N   1      20.644  16.962   8.736  0.00  0.00    -0.353 OA
HETATM   34  C   UNK N   1      19.551  17.794   8.852  0.00  0.00     0.210 C 
ENDBRANCH  27  33
ENDBRANCH   6  23
TORSDOF 27
ENDMDL
MODEL 8
REMARK VINA RESULT:      -6.2     11.654     14.621
REMARK  27 active torsions:
REMARK  status: ('A' for Active; 'I' for Inactive)
REMARK    1  A    between atoms: O_3  and  C_42 
REMARK    2  A    between atoms: O_4  and  C_41 
REMARK    3  A    between atoms: O_11  and  C_72 
REMARK    4  A    between atoms: O_12  and  C_71 
REMARK    5  A    between atoms: O_13  and  C_74 
REMARK    6  A    between atoms: O_14  and  C_73 
REMARK    7  A    between atoms: O_15  and  C_76 
REMARK    8  A    between atoms: O_17  and  C_84 
REMARK    9  A    between atoms: O_18  and  C_83 
REMARK   10  A    between atoms: O_19  and  C_85 
REMARK   11  A    between atoms: O_20  and  C_86 
REMARK   12  A    between atoms: O_21  and  C_90 
REMARK   13  A    between atoms: O_22  and  C_89 
REMARK   14  A    between atoms: O_29  and  C_108 
REMARK   15  A    between atoms: O_30  and  C_107 
REMARK   16  A    between atoms: O_31  and  C_110 
REMARK   17  A    between atoms: O_32  and  C_109 
REMARK   18  A    between atoms: O_33  and  C_114 
REMARK   19  A    between atoms: O_34  and  C_113 
REMARK   20  A    between atoms: C_39  and  C_51 
REMARK   21  A    between atoms: C_40  and  C_52 
REMARK   22  A    between atoms: C_65  and  C_85 
REMARK   23  A    between atoms: C_66  and  C_86 
REMARK   24  A    between atoms: C_67  and  C_90 
REMARK   25  A    between atoms: C_68  and  C_89 
REMARK   26  A    between atoms: C_69  and  C_87 
REMARK   27  A    between atoms: C_70  and  C_88 
ROOT
HETATM    1  O   UNK N   1      30.450  22.182  -8.220  0.00  0.00    -0.390 OA
HETATM    2  O   UNK N   1      31.877  21.925  -2.243  0.00  0.00    -0.323 OA
HETATM    3  O   UNK N   1      32.949  20.950  -3.918  0.00  0.00    -0.323 OA
HETATM    4  C   UNK N   1      28.300  22.971  -7.525  0.00  0.00     0.058 C 
HETATM    5  C   UNK N   1      27.373  23.015  -6.311  0.00  0.00     0.105 C 
HETATM    6  C   UNK N   1      28.074  23.420  -5.004  0.00  0.00     0.067 C 
HETATM    7  C   UNK N   1      29.436  21.964  -7.284  0.00  0.00     0.158 C 
HETATM    8  C   UNK N   1      29.311  22.578  -4.787  0.00  0.00    -0.037 A 
HETATM    9  C   UNK N   1      29.993  21.948  -5.875  0.00  0.00    -0.019 A 
HETATM   10  C   UNK N   1      29.886  22.565  -3.495  0.00  0.00     0.048 A 
HETATM   11  C   UNK N   1      31.239  21.325  -5.636  0.00  0.00     0.050 A 
HETATM   12  C   UNK N   1      31.125  21.977  -3.340  0.00  0.00     0.105 A 
HETATM   13  C   UNK N   1      31.770  21.392  -4.351  0.00  0.00     0.105 A 
HETATM   14  C   UNK N   1      33.075  21.279  -2.563  0.00  0.00     0.352 A 
HETATM   15  H   UNK N   1      31.016  22.347  -8.989  0.00  0.00     0.210 HD
ENDROOT
BRANCH   4  16
HETATM   16  C   UNK N   1      27.591  22.632  -8.835  0.00  0.00     0.172 C 
BRANCH  16  17
HETATM   17  O   UNK N   1      27.742  21.281  -9.155  0.00  0.00    -0.400 OA
HETATM   18  H   UNK N   1      27.096  20.584  -9.350  0.00  0.00     0.209 HD
ENDBRANCH  16  17
ENDBRANCH   4  16
BRANCH   5  19
HETATM   19  C   UNK N   1      25.916  23.384  -6.481  0.00  0.00     0.145 C 
HETATM   20  O   UNK N   1      25.573  24.537  -6.678  0.00  0.00    -0.650 OA
BRANCH  19  21
HETATM   21  O   UNK N   1      24.974  22.431  -6.356  0.00  0.00    -0.776 OA
HETATM   22  H   UNK N   1      24.368  22.181  -7.025  0.00  0.00     0.167 HD
ENDBRANCH  19  21
ENDBRANCH   5  19
BRANCH   6  23
HETATM   23  C   UNK N   1      28.465  24.900  -4.837  0.00  0.00    -0.043 A 
HETATM   24  C   UNK N   1      27.640  25.753  -4.080  0.00  0.00     0.047 A 
HETATM   25  C   UNK N   1      27.788  27.122  -4.063  0.00  0.00     0.104 A 
HETATM   26  C   UNK N   1      28.838  27.685  -4.810  0.00  0.00     0.135 A 
HETATM   27  C   UNK N   1      29.768  26.846  -5.464  0.00  0.00     0.104 A 
HETATM   28  C   UNK N   1      29.544  25.467  -5.514  0.00  0.00     0.047 A 
BRANCH  25  29
HETATM   29  O   UNK N   1      26.886  27.841  -3.344  0.00  0.00    -0.353 OA
HETATM   30  C   UNK N   1      25.573  28.063  -3.688  0.00  0.00     0.210 C 
ENDBRANCH  25  29
BRANCH  26  31
HETATM   31  O   UNK N   1      28.912  29.008  -4.983  0.00  0.00    -0.351 OA
HETATM   32  C   UNK N   1      28.187  29.542  -6.028  0.00  0.00     0.210 C 
ENDBRANCH  26  31
BRANCH  27  33
HETATM   33  O   UNK N   1      30.870  27.343  -6.057  0.00  0.00    -0.353 OA
HETATM   34  C   UNK N   1      31.042  27.261  -7.421  0.00  0.00     0.210 C 
ENDBRANCH  27  33
ENDBRANCH   6  23
TORSDOF 27
ENDMDL
MODEL 9
REMARK VINA RESULT:      -6.1     11.760     14.925
REMARK  27 active torsions:
REMARK  status: ('A' for Active; 'I' for Inactive)
REMARK    1  A    between atoms: O_3  and  C_42 
REMARK    2  A    between atoms: O_4  and  C_41 
REMARK    3  A    between atoms: O_11  and  C_72 
REMARK    4  A    between atoms: O_12  and  C_71 
REMARK    5  A    between atoms: O_13  and  C_74 
REMARK    6  A    between atoms: O_14  and  C_73 
REMARK    7  A    between atoms: O_15  and  C_76 
REMARK    8  A    between atoms: O_17  and  C_84 
REMARK    9  A    between atoms: O_18  and  C_83 
REMARK   10  A    between atoms: O_19  and  C_85 
REMARK   11  A    between atoms: O_20  and  C_86 
REMARK   12  A    between atoms: O_21  and  C_90 
REMARK   13  A    between atoms: O_22  and  C_89 
REMARK   14  A    between atoms: O_29  and  C_108 
REMARK   15  A    between atoms: O_30  and  C_107 
REMARK   16  A    between atoms: O_31  and  C_110 
REMARK   17  A    between atoms: O_32  and  C_109 
REMARK   18  A    between atoms: O_33  and  C_114 
REMARK   19  A    between atoms: O_34  and  C_113 
REMARK   20  A    between atoms: C_39  and  C_51 
REMARK   21  A    between atoms: C_40  and  C_52 
REMARK   22  A    between atoms: C_65  and  C_85 
REMARK   23  A    between atoms: C_66  and  C_86 
REMARK   24  A    between atoms: C_67  and  C_90 
REMARK   25  A    between atoms: C_68  and  C_89 
REMARK   26  A    between atoms: C_69  and  C_87 
REMARK   27  A    between atoms: C_70  and  C_88 
ROOT
HETATM    1  O   UNK N   1      32.138  21.485  -6.031  0.00  0.00    -0.390 OA
HETATM    2  O   UNK N   1      31.144  27.181  -8.126  0.00  0.00    -0.323 OA
HETATM    3  O   UNK N   1      32.763  25.797  -8.731  0.00  0.00    -0.323 OA
HETATM    4  C   UNK N   1      30.684  22.054  -4.217  0.00  0.00     0.058 C 
HETATM    5  C   UNK N   1      30.091  23.259  -3.487  0.00  0.00     0.105 C 
HETATM    6  C   UNK N   1      29.540  24.347  -4.423  0.00  0.00     0.067 C 
HETATM    7  C   UNK N   1      31.841  22.505  -5.124  0.00  0.00     0.158 C 
HETATM    8  C   UNK N   1      30.574  24.721  -5.461  0.00  0.00    -0.037 A 
HETATM    9  C   UNK N   1      31.619  23.822  -5.841  0.00  0.00    -0.019 A 
HETATM   10  C   UNK N   1      30.386  25.923  -6.181  0.00  0.00     0.048 A 
HETATM   11  C   UNK N   1      32.445  24.153  -6.938  0.00  0.00     0.050 A 
HETATM   12  C   UNK N   1      31.200  26.165  -7.269  0.00  0.00     0.105 A 
HETATM   13  C   UNK N   1      32.173  25.328  -7.633  0.00  0.00     0.105 A 
HETATM   14  C   UNK N   1      32.127  26.989  -9.100  0.00  0.00     0.352 A 
HETATM   15  H   UNK N   1      32.329  20.668  -6.516  0.00  0.00     0.210 HD
ENDROOT
BRANCH   4  16
HETATM   16  C   UNK N   1      31.172  20.944  -3.287  0.00  0.00     0.172 C 
BRANCH  16  17
HETATM   17  O   UNK N   1      32.180  21.405  -2.438  0.00  0.00    -0.400 OA
HETATM   18  H   UNK N   1      33.077  21.731  -2.612  0.00  0.00     0.209 HD
ENDBRANCH  16  17
ENDBRANCH   4  16
BRANCH   5  19
HETATM   19  C   UNK N   1      29.431  23.080  -2.138  0.00  0.00     0.145 C 
HETATM   20  O   UNK N   1      28.220  22.989  -2.032  0.00  0.00    -0.650 OA
BRANCH  19  21
HETATM   21  O   UNK N   1      30.189  23.078  -1.026  0.00  0.00    -0.776 OA
HETATM   22  H   UNK N   1      29.875  22.917  -0.158  0.00  0.00     0.167 HD
ENDBRANCH  19  21
ENDBRANCH   5  19
BRANCH   6  23
HETATM   23  C   UNK N   1      28.214  24.056  -5.149  0.00  0.00    -0.043 A 
HETATM   24  C   UNK N   1      28.140  22.974  -6.047  0.00  0.00     0.047 A 
HETATM   25  C   UNK N   1      27.077  22.777  -6.900  0.00  0.00     0.104 A 
HETATM   26  C   UNK N   1      26.002  23.682  -6.841  0.00  0.00     0.135 A 
HETATM   27  C   UNK N   1      25.984  24.692  -5.854  0.00  0.00     0.104 A 
HETATM   28  C   UNK N   1      27.110  24.901  -5.053  0.00  0.00     0.047 A 
BRANCH  25  29
HETATM   29  O   UNK N   1      27.153  21.732  -7.766  0.00  0.00    -0.353 OA
HETATM   30  C   UNK N   1      27.924  21.682  -8.904  0.00  0.00     0.210 C 
ENDBRANCH  25  29
BRANCH  26  31
HETATM   31  O   UNK N   1      25.040  23.653  -7.769  0.00  0.00    -0.351 OA
HETATM   32  C   UNK N   1      25.284  24.335  -8.942  0.00  0.00     0.210 C 
ENDBRANCH  26  31
BRANCH  27  33
HETATM   33  O   UNK N   1      24.905  25.476  -5.668  0.00  0.00    -0.353 OA
HETATM   34  C   UNK N   1      25.001  26.849  -5.742  0.00  0.00     0.210 C 
ENDBRANCH  27  33
ENDBRANCH   6  23
TORSDOF 27
ENDMDL
