MODEL 1
REMARK VINA RESULT:      -3.7      0.000      0.000
REMARK  0 active torsions:
REMARK  status: ('A' for Active; 'I' for Inactive)
ROOT
HETATM    1  N   UNK N   1      17.742  19.354  11.016  0.00  0.00    -0.312 N 
HETATM    2  N   UNK N   1      18.948  19.789  10.681  0.00  0.00    -0.312 N 
ATOM      3  HN  UNK N   1      19.394  20.631  11.042  1.00  0.00     0.186 HD
HETATM    4  C   UNK N   1      18.574  17.938   9.562  0.00  0.00    -0.028 A 
HETATM    5  C   UNK N   1      17.481  18.216  10.344  0.00  0.00     0.115 A 
HETATM    6  C   UNK N   1      18.731  16.777   8.651  0.00  0.00     0.051 C 
HETATM    7  C   UNK N   1      19.490  18.940   9.786  0.00  0.00     0.115 A 
HETATM    8  H   UNK N   1      17.134  19.793  11.653  0.00  0.00     0.186 HD
ENDROOT
TORSDOF 0
ENDMDL
MODEL 2
REMARK VINA RESULT:      -3.6      7.519      8.034
REMARK  0 active torsions:
REMARK  status: ('A' for Active; 'I' for Inactive)
ROOT
HETATM    1  N   UNK N   1      24.861  12.362  11.261  0.00  0.00    -0.312 N 
HETATM    2  N   UNK N   1      24.655  13.067  10.159  0.00  0.00    -0.312 N 
ATOM      3  HN  UNK N   1      25.382  13.489   9.583  1.00  0.00     0.186 HD
HETATM    4  C   UNK N   1      22.695  12.443  10.925  0.00  0.00    -0.028 A 
HETATM    5  C   UNK N   1      23.675  11.962  11.758  0.00  0.00     0.115 A 
HETATM    6  C   UNK N   1      21.232  12.247  11.084  0.00  0.00     0.051 C 
HETATM    7  C   UNK N   1      23.330  13.137   9.922  0.00  0.00     0.115 A 
HETATM    8  H   UNK N   1      25.741  12.161  11.654  0.00  0.00     0.186 HD
ENDROOT
TORSDOF 0
ENDMDL
MODEL 3
REMARK VINA RESULT:      -3.5      7.379      7.919
REMARK  0 active torsions:
REMARK  status: ('A' for Active; 'I' for Inactive)
ROOT
HETATM    1  N   UNK N   1      22.323  11.538  12.501  0.00  0.00    -0.312 N 
HETATM    2  N   UNK N   1      21.294  11.830  11.720  0.00  0.00    -0.312 N 
ATOM      3  HN  UNK N   1      20.315  11.652  11.942  1.00  0.00     0.186 HD
HETATM    4  C   UNK N   1      23.120  12.457  10.677  0.00  0.00    -0.028 A 
HETATM    5  C   UNK N   1      23.463  11.911  11.889  0.00  0.00     0.115 A 
HETATM    6  C   UNK N   1      24.056  13.005   9.663  0.00  0.00     0.051 C 
HETATM    7  C   UNK N   1      21.749  12.398  10.586  0.00  0.00     0.115 A 
HETATM    8  H   UNK N   1      22.264  11.115  13.388  0.00  0.00     0.186 HD
ENDROOT
TORSDOF 0
ENDMDL
MODEL 4
REMARK VINA RESULT:      -3.4     25.689     25.867
REMARK  0 active torsions:
REMARK  status: ('A' for Active; 'I' for Inactive)
ROOT
HETATM    1  N   UNK N   1      43.561  23.573   4.107  0.00  0.00    -0.312 N 
HETATM    2  N   UNK N   1      42.896  23.696   2.968  0.00  0.00    -0.312 N 
ATOM      3  HN  UNK N   1      42.626  24.577   2.533  1.00  0.00     0.186 HD
HETATM    4  C   UNK N   1      43.162  21.552   3.354  0.00  0.00    -0.028 A 
HETATM    5  C   UNK N   1      43.741  22.265   4.374  0.00  0.00     0.115 A 
HETATM    6  C   UNK N   1      43.118  20.073   3.231  0.00  0.00     0.051 C 
HETATM    7  C   UNK N   1      42.634  22.469   2.477  0.00  0.00     0.115 A 
HETATM    8  H   UNK N   1      43.874  24.318   4.669  0.00  0.00     0.186 HD
ENDROOT
TORSDOF 0
ENDMDL
MODEL 5
REMARK VINA RESULT:      -3.3      8.925      9.575
REMARK  0 active torsions:
REMARK  status: ('A' for Active; 'I' for Inactive)
ROOT
HETATM    1  N   UNK N   1      26.337  20.651   7.801  0.00  0.00    -0.312 N 
HETATM    2  N   UNK N   1      27.205  19.707   8.132  0.00  0.00    -0.312 N 
ATOM      3  HN  UNK N   1      27.323  19.313   9.065  1.00  0.00     0.186 HD
HETATM    4  C   UNK N   1      27.448  20.111   5.989  0.00  0.00    -0.028 A 
HETATM    5  C   UNK N   1      26.461  20.923   6.488  0.00  0.00     0.115 A 
HETATM    6  C   UNK N   1      27.923  20.067   4.583  0.00  0.00     0.051 C 
HETATM    7  C   UNK N   1      27.906  19.350   7.039  0.00  0.00     0.115 A 
HETATM    8  H   UNK N   1      25.704  21.085   8.417  0.00  0.00     0.186 HD
ENDROOT
TORSDOF 0
ENDMDL
MODEL 6
REMARK VINA RESULT:      -3.2     19.452     19.913
REMARK  0 active torsions:
REMARK  status: ('A' for Active; 'I' for Inactive)
ROOT
HETATM    1  N   UNK N   1      35.367  13.011  20.131  0.00  0.00    -0.312 N 
HETATM    2  N   UNK N   1      35.187  13.858  19.128  0.00  0.00    -0.312 N 
ATOM      3  HN  UNK N   1      35.102  14.870  19.217  1.00  0.00     0.186 HD
HETATM    4  C   UNK N   1      35.289  11.836  18.281  0.00  0.00    -0.028 A 
HETATM    5  C   UNK N   1      35.434  11.758  19.644  0.00  0.00     0.115 A 
HETATM    6  C   UNK N   1      35.299  10.697  17.329  0.00  0.00     0.051 C 
HETATM    7  C   UNK N   1      35.135  13.167  17.973  0.00  0.00     0.115 A 
HETATM    8  H   UNK N   1      35.439  13.259  21.081  0.00  0.00     0.186 HD
ENDROOT
TORSDOF 0
ENDMDL
MODEL 7
REMARK VINA RESULT:      -3.2     10.251     10.891
REMARK  0 active torsions:
REMARK  status: ('A' for Active; 'I' for Inactive)
ROOT
HETATM    1  N   UNK N   1      27.700  17.655   8.026  0.00  0.00    -0.312 N 
HETATM    2  N   UNK N   1      27.771  18.329   9.165  0.00  0.00    -0.312 N 
ATOM      3  HN  UNK N   1      26.973  18.673   9.698  1.00  0.00     0.186 HD
HETATM    4  C   UNK N   1      29.823  17.880   8.530  0.00  0.00    -0.028 A 
HETATM    5  C   UNK N   1      28.947  17.363   7.608  0.00  0.00     0.115 A 
HETATM    6  C   UNK N   1      31.304  17.796   8.477  0.00  0.00     0.051 C 
HETATM    7  C   UNK N   1      29.065  18.485   9.505  0.00  0.00     0.115 A 
HETATM    8  H   UNK N   1      26.870  17.408   7.560  0.00  0.00     0.186 HD
ENDROOT
TORSDOF 0
ENDMDL
MODEL 8
REMARK VINA RESULT:      -3.1     18.756     19.246
REMARK  0 active torsions:
REMARK  status: ('A' for Active; 'I' for Inactive)
ROOT
HETATM    1  N   UNK N   1      36.643  14.635  13.679  0.00  0.00    -0.312 N 
HETATM    2  N   UNK N   1      37.241  15.218  14.708  0.00  0.00    -0.312 N 
ATOM      3  HN  UNK N   1      37.825  16.053  14.657  1.00  0.00     0.186 HD
HETATM    4  C   UNK N   1      36.144  13.480  15.475  0.00  0.00    -0.028 A 
HETATM    5  C   UNK N   1      35.959  13.561  14.118  0.00  0.00     0.115 A 
HETATM    6  C   UNK N   1      35.574  12.449  16.380  0.00  0.00     0.051 C 
HETATM    7  C   UNK N   1      36.954  14.532  15.831  0.00  0.00     0.115 A 
HETATM    8  H   UNK N   1      36.692  14.938  12.744  0.00  0.00     0.186 HD
ENDROOT
TORSDOF 0
ENDMDL
MODEL 9
REMARK VINA RESULT:      -3.0     14.313     15.086
REMARK  0 active torsions:
REMARK  status: ('A' for Active; 'I' for Inactive)
ROOT
HETATM    1  N   UNK N   1      33.785  17.529   9.210  0.00  0.00    -0.312 N 
HETATM    2  N   UNK N   1      32.487  17.297   9.083  0.00  0.00    -0.312 N 
ATOM      3  HN  UNK N   1      31.831  17.175   9.854  1.00  0.00     0.186 HD
HETATM    4  C   UNK N   1      33.332  17.459   7.065  0.00  0.00    -0.028 A 
HETATM    5  C   UNK N   1      34.336  17.634   7.985  0.00  0.00     0.115 A 
HETATM    6  C   UNK N   1      33.479  17.493   5.588  0.00  0.00     0.051 C 
HETATM    7  C   UNK N   1      32.174  17.247   7.774  0.00  0.00     0.115 A 
HETATM    8  H   UNK N   1      34.269  17.611  10.062  0.00  0.00     0.186 HD
ENDROOT
TORSDOF 0
ENDMDL
