MODEL 1
REMARK VINA RESULT:      -6.0      0.000      0.000
REMARK  9 active torsions:
REMARK  status: ('A' for Active; 'I' for Inactive)
REMARK    1  A    between atoms: O_1  and  C_9 
REMARK    2  A    between atoms: O_1  and  C_10 
REMARK    3  A    between atoms: O_2  and  C_6 
REMARK    4  A    between atoms: O_3  and  C_14 
REMARK    5  A    between atoms: O_3  and  C_21 
REMARK    6  A    between atoms: N_5  and  C_7 
REMARK    7  A    between atoms: N_5  and  C_8 
REMARK    8  A    between atoms: C_6  and  C_7 
REMARK    9  A    between atoms: C_6  and  C_9 
ROOT
HETATM    1  C   UNK N   1      28.020  17.813   6.736  0.00  0.00     0.075 A 
HETATM    2  C   UNK N   1      27.674  17.096   5.582  0.00  0.00    -0.020 A 
HETATM    3  C   UNK N   1      27.182  17.772   4.452  0.00  0.00    -0.019 A 
HETATM    4  C   UNK N   1      27.391  19.895   5.632  0.00  0.00    -0.025 A 
HETATM    5  C   UNK N   1      27.040  19.177   4.451  0.00  0.00     0.091 A 
HETATM    6  C   UNK N   1      27.870  19.206   6.747  0.00  0.00     0.047 A 
HETATM    7  C   UNK N   1      27.812  15.604   5.575  0.00  0.00     0.052 C 
HETATM    8  C   UNK N   1      26.794  16.998   3.228  0.00  0.00     0.052 C 
HETATM    9  C   UNK N   1      27.207  21.364   5.785  0.00  0.00     0.051 C 
ENDROOT
BRANCH   1  10
HETATM   10  O   UNK N   1      28.467  17.146   7.829  0.00  0.00    -0.348 OA
BRANCH  10  11
HETATM   11  C   UNK N   1      28.119  17.481   9.121  0.00  0.00     0.209 C 
BRANCH  11  12
HETATM   12  C   UNK N   1      29.340  17.414  10.032  0.00  0.00     0.159 C 
BRANCH  12  13
HETATM   13  O   UNK N   1      29.672  18.696  10.471  0.00  0.00    -0.392 OA
HETATM   14  H   UNK N   1      29.258  19.557  10.307  0.00  0.00     0.210 HD
ENDBRANCH  12  13
BRANCH  12  15
HETATM   15  C   UNK N   1      30.526  16.847   9.267  0.00  0.00     0.147 C 
BRANCH  15  16
HETATM   16  N   UNK N   1      31.369  17.916   8.758  0.00  0.00    -0.415 N 
HETATM   17  H   UNK N   1      31.294  18.908   8.979  0.00  0.00     0.153 HD
BRANCH  16  18
HETATM   18  C   UNK N   1      32.341  17.298   7.872  0.00  0.00     0.068 C 
HETATM   19  C   UNK N   1      33.576  18.171   7.797  0.00  0.00     0.031 C 
HETATM   20  C   UNK N   1      31.749  17.146   6.486  0.00  0.00     0.031 C 
ENDBRANCH  16  18
ENDBRANCH  15  16
ENDBRANCH  12  15
ENDBRANCH  11  12
ENDBRANCH  10  11
ENDBRANCH   1  10
BRANCH   5  21
HETATM   21  O   UNK N   1      26.532  19.749   3.318  0.00  0.00    -0.278 OA
BRANCH  21  22
HETATM   22  C   UNK N   1      25.280  20.178   3.005  0.00  0.00     0.260 C 
HETATM   23  O   UNK N   1      25.071  20.911   2.052  0.00  0.00    -0.265 OA
HETATM   24  C   UNK N   1      24.122  19.621   3.758  0.00  0.00     0.126 C 
ENDBRANCH  21  22
ENDBRANCH   5  21
TORSDOF 9
ENDMDL
MODEL 2
REMARK VINA RESULT:      -5.8      7.852     12.625
REMARK  9 active torsions:
REMARK  status: ('A' for Active; 'I' for Inactive)
REMARK    1  A    between atoms: O_1  and  C_9 
REMARK    2  A    between atoms: O_1  and  C_10 
REMARK    3  A    between atoms: O_2  and  C_6 
REMARK    4  A    between atoms: O_3  and  C_14 
REMARK    5  A    between atoms: O_3  and  C_21 
REMARK    6  A    between atoms: N_5  and  C_7 
REMARK    7  A    between atoms: N_5  and  C_8 
REMARK    8  A    between atoms: C_6  and  C_7 
REMARK    9  A    between atoms: C_6  and  C_9 
ROOT
HETATM    1  C   UNK N   1      35.443  13.123  12.761  0.00  0.00     0.075 A 
HETATM    2  C   UNK N   1      34.961  11.905  13.259  0.00  0.00    -0.020 A 
HETATM    3  C   UNK N   1      35.163  11.564  14.608  0.00  0.00    -0.019 A 
HETATM    4  C   UNK N   1      36.328  13.676  14.966  0.00  0.00    -0.025 A 
HETATM    5  C   UNK N   1      35.838  12.441  15.485  0.00  0.00     0.091 A 
HETATM    6  C   UNK N   1      36.125  13.993  13.622  0.00  0.00     0.047 A 
HETATM    7  C   UNK N   1      34.252  10.962  12.336  0.00  0.00     0.052 C 
HETATM    8  C   UNK N   1      34.663  10.251  15.130  0.00  0.00     0.052 C 
HETATM    9  C   UNK N   1      37.126  14.644  15.766  0.00  0.00     0.051 C 
ENDROOT
BRANCH   1  10
HETATM   10  O   UNK N   1      35.267  13.427  11.451  0.00  0.00    -0.348 OA
BRANCH  10  11
HETATM   11  C   UNK N   1      36.296  13.788  10.608  0.00  0.00     0.209 C 
BRANCH  11  12
HETATM   12  C   UNK N   1      36.094  15.214  10.105  0.00  0.00     0.159 C 
BRANCH  12  13
HETATM   13  O   UNK N   1      36.900  16.090  10.834  0.00  0.00    -0.392 OA
HETATM   14  H   UNK N   1      37.514  16.783  10.548  0.00  0.00     0.210 HD
ENDBRANCH  12  13
BRANCH  12  15
HETATM   15  C   UNK N   1      34.643  15.628  10.296  0.00  0.00     0.147 C 
BRANCH  15  16
HETATM   16  N   UNK N   1      34.480  17.055  10.077  0.00  0.00    -0.415 N 
HETATM   17  H   UNK N   1      34.603  17.795  10.768  0.00  0.00     0.153 HD
BRANCH  16  18
HETATM   18  C   UNK N   1      34.110  17.227   8.682  0.00  0.00     0.068 C 
HETATM   19  C   UNK N   1      34.648  18.551   8.181  0.00  0.00     0.031 C 
HETATM   20  C   UNK N   1      32.601  17.214   8.547  0.00  0.00     0.031 C 
ENDBRANCH  16  18
ENDBRANCH  15  16
ENDBRANCH  12  15
ENDBRANCH  11  12
ENDBRANCH  10  11
ENDBRANCH   1  10
BRANCH   5  21
HETATM   21  O   UNK N   1      36.010  12.019  16.773  0.00  0.00    -0.278 OA
BRANCH  21  22
HETATM   22  C   UNK N   1      35.364  12.344  17.926  0.00  0.00     0.260 C 
HETATM   23  O   UNK N   1      34.794  13.415  18.063  0.00  0.00    -0.265 OA
HETATM   24  C   UNK N   1      35.229  11.309  18.988  0.00  0.00     0.126 C 
ENDBRANCH  21  22
ENDBRANCH   5  21
TORSDOF 9
ENDMDL
MODEL 3
REMARK VINA RESULT:      -5.7      2.573      6.714
REMARK  9 active torsions:
REMARK  status: ('A' for Active; 'I' for Inactive)
REMARK    1  A    between atoms: O_1  and  C_9 
REMARK    2  A    between atoms: O_1  and  C_10 
REMARK    3  A    between atoms: O_2  and  C_6 
REMARK    4  A    between atoms: O_3  and  C_14 
REMARK    5  A    between atoms: O_3  and  C_21 
REMARK    6  A    between atoms: N_5  and  C_7 
REMARK    7  A    between atoms: N_5  and  C_8 
REMARK    8  A    between atoms: C_6  and  C_7 
REMARK    9  A    between atoms: C_6  and  C_9 
ROOT
HETATM    1  C   UNK N   1      28.599  16.878   6.447  0.00  0.00     0.075 A 
HETATM    2  C   UNK N   1      29.068  17.641   7.525  0.00  0.00    -0.020 A 
HETATM    3  C   UNK N   1      30.436  17.630   7.854  0.00  0.00    -0.019 A 
HETATM    4  C   UNK N   1      30.866  16.090   6.014  0.00  0.00    -0.025 A 
HETATM    5  C   UNK N   1      31.356  16.867   7.105  0.00  0.00     0.091 A 
HETATM    6  C   UNK N   1      29.504  16.108   5.707  0.00  0.00     0.047 A 
HETATM    7  C   UNK N   1      28.099  18.448   8.334  0.00  0.00     0.052 C 
HETATM    8  C   UNK N   1      30.929  18.433   9.020  0.00  0.00     0.052 C 
HETATM    9  C   UNK N   1      31.720  15.182   5.202  0.00  0.00     0.051 C 
ENDROOT
BRANCH   1  10
HETATM   10  O   UNK N   1      27.273  16.874   6.158  0.00  0.00    -0.348 OA
BRANCH  10  11
HETATM   11  C   UNK N   1      26.769  16.626   4.899  0.00  0.00     0.209 C 
BRANCH  11  12
HETATM   12  C   UNK N   1      25.378  17.235   4.756  0.00  0.00     0.159 C 
BRANCH  12  13
HETATM   13  O   UNK N   1      24.706  16.631   3.693  0.00  0.00    -0.392 OA
HETATM   14  H   UNK N   1      23.761  16.568   3.485  0.00  0.00     0.210 HD
ENDBRANCH  12  13
BRANCH  12  15
HETATM   15  C   UNK N   1      25.493  18.724   4.466  0.00  0.00     0.147 C 
BRANCH  15  16
HETATM   16  N   UNK N   1      25.856  19.457   5.667  0.00  0.00    -0.415 N 
HETATM   17  H   UNK N   1      25.595  19.223   6.625  0.00  0.00     0.153 HD
BRANCH  16  18
HETATM   18  C   UNK N   1      26.664  20.587   5.242  0.00  0.00     0.068 C 
HETATM   19  C   UNK N   1      27.984  20.082   4.698  0.00  0.00     0.031 C 
HETATM   20  C   UNK N   1      26.924  21.504   6.419  0.00  0.00     0.031 C 
ENDBRANCH  16  18
ENDBRANCH  15  16
ENDBRANCH  12  15
ENDBRANCH  11  12
ENDBRANCH  10  11
ENDBRANCH   1  10
BRANCH   5  21
HETATM   21  O   UNK N   1      32.662  16.897   7.509  0.00  0.00    -0.278 OA
BRANCH  21  22
HETATM   22  C   UNK N   1      33.717  17.655   7.105  0.00  0.00     0.260 C 
HETATM   23  O   UNK N   1      33.965  17.834   5.924  0.00  0.00    -0.265 OA
HETATM   24  C   UNK N   1      34.500  18.398   8.131  0.00  0.00     0.126 C 
ENDBRANCH  21  22
ENDBRANCH   5  21
TORSDOF 9
ENDMDL
MODEL 4
REMARK VINA RESULT:      -5.7      3.161      7.106
REMARK  9 active torsions:
REMARK  status: ('A' for Active; 'I' for Inactive)
REMARK    1  A    between atoms: O_1  and  C_9 
REMARK    2  A    between atoms: O_1  and  C_10 
REMARK    3  A    between atoms: O_2  and  C_6 
REMARK    4  A    between atoms: O_3  and  C_14 
REMARK    5  A    between atoms: O_3  and  C_21 
REMARK    6  A    between atoms: N_5  and  C_7 
REMARK    7  A    between atoms: N_5  and  C_8 
REMARK    8  A    between atoms: C_6  and  C_7 
REMARK    9  A    between atoms: C_6  and  C_9 
ROOT
HETATM    1  C   UNK N   1      31.027  17.280   6.567  0.00  0.00     0.075 A 
HETATM    2  C   UNK N   1      31.531  16.802   5.349  0.00  0.00    -0.020 A 
HETATM    3  C   UNK N   1      32.881  16.418   5.246  0.00  0.00    -0.019 A 
HETATM    4  C   UNK N   1      33.220  16.985   7.593  0.00  0.00    -0.025 A 
HETATM    5  C   UNK N   1      33.743  16.493   6.361  0.00  0.00     0.091 A 
HETATM    6  C   UNK N   1      31.880  17.368   7.674  0.00  0.00     0.047 A 
HETATM    7  C   UNK N   1      30.627  16.727   4.157  0.00  0.00     0.052 C 
HETATM    8  C   UNK N   1      33.419  15.927   3.937  0.00  0.00     0.052 C 
HETATM    9  C   UNK N   1      34.047  17.190   8.813  0.00  0.00     0.051 C 
ENDROOT
BRANCH   1  10
HETATM   10  O   UNK N   1      29.732  17.674   6.645  0.00  0.00    -0.348 OA
BRANCH  10  11
HETATM   11  C   UNK N   1      28.883  17.303   7.667  0.00  0.00     0.209 C 
BRANCH  11  12
HETATM   12  C   UNK N   1      28.449  18.528   8.466  0.00  0.00     0.159 C 
BRANCH  12  13
HETATM   13  O   UNK N   1      27.409  18.183   9.330  0.00  0.00    -0.392 OA
HETATM   14  H   UNK N   1      26.468  18.417   9.327  0.00  0.00     0.210 HD
ENDBRANCH  12  13
BRANCH  12  15
HETATM   15  C   UNK N   1      27.948  19.609   7.522  0.00  0.00     0.147 C 
BRANCH  15  16
HETATM   16  N   UNK N   1      26.984  19.066   6.580  0.00  0.00    -0.415 N 
HETATM   17  H   UNK N   1      26.508  18.167   6.647  0.00  0.00     0.153 HD
BRANCH  16  18
HETATM   18  C   UNK N   1      26.829  20.050   5.522  0.00  0.00     0.068 C 
HETATM   19  C   UNK N   1      27.892  19.823   4.467  0.00  0.00     0.031 C 
HETATM   20  C   UNK N   1      26.978  21.445   6.094  0.00  0.00     0.031 C 
ENDBRANCH  16  18
ENDBRANCH  15  16
ENDBRANCH  12  15
ENDBRANCH  11  12
ENDBRANCH  10  11
ENDBRANCH   1  10
BRANCH   5  21
HETATM   21  O   UNK N   1      35.044  16.121   6.165  0.00  0.00    -0.278 OA
BRANCH  21  22
HETATM   22  C   UNK N   1      35.703  14.961   6.429  0.00  0.00     0.260 C 
HETATM   23  O   UNK N   1      35.447  14.286   7.413  0.00  0.00    -0.265 OA
HETATM   24  C   UNK N   1      36.658  14.432   5.415  0.00  0.00     0.126 C 
ENDBRANCH  21  22
ENDBRANCH   5  21
TORSDOF 9
ENDMDL
MODEL 5
REMARK VINA RESULT:      -5.7      2.692      4.125
REMARK  9 active torsions:
REMARK  status: ('A' for Active; 'I' for Inactive)
REMARK    1  A    between atoms: O_1  and  C_9 
REMARK    2  A    between atoms: O_1  and  C_10 
REMARK    3  A    between atoms: O_2  and  C_6 
REMARK    4  A    between atoms: O_3  and  C_14 
REMARK    5  A    between atoms: O_3  and  C_21 
REMARK    6  A    between atoms: N_5  and  C_7 
REMARK    7  A    between atoms: N_5  and  C_8 
REMARK    8  A    between atoms: C_6  and  C_7 
REMARK    9  A    between atoms: C_6  and  C_9 
ROOT
HETATM    1  C   UNK N   1      31.440  17.170   6.928  0.00  0.00     0.075 A 
HETATM    2  C   UNK N   1      30.850  17.108   5.658  0.00  0.00    -0.020 A 
HETATM    3  C   UNK N   1      29.512  17.506   5.482  0.00  0.00    -0.019 A 
HETATM    4  C   UNK N   1      29.359  18.039   7.856  0.00  0.00    -0.025 A 
HETATM    5  C   UNK N   1      28.749  17.985   6.568  0.00  0.00     0.091 A 
HETATM    6  C   UNK N   1      30.685  17.632   8.013  0.00  0.00     0.047 A 
HETATM    7  C   UNK N   1      31.647  16.592   4.500  0.00  0.00     0.052 C 
HETATM    8  C   UNK N   1      28.880  17.419   4.126  0.00  0.00     0.052 C 
HETATM    9  C   UNK N   1      28.636  18.444   9.091  0.00  0.00     0.051 C 
ENDROOT
BRANCH   1  10
HETATM   10  O   UNK N   1      32.722  16.755   7.090  0.00  0.00    -0.348 OA
BRANCH  10  11
HETATM   11  C   UNK N   1      33.808  17.603   7.042  0.00  0.00     0.209 C 
BRANCH  11  12
HETATM   12  C   UNK N   1      34.155  18.099   8.442  0.00  0.00     0.159 C 
BRANCH  12  13
HETATM   13  O   UNK N   1      35.097  19.126   8.358  0.00  0.00    -0.392 OA
HETATM   14  H   UNK N   1      36.022  19.124   8.067  0.00  0.00     0.210 HD
ENDBRANCH  12  13
BRANCH  12  15
HETATM   15  C   UNK N   1      34.754  16.965   9.259  0.00  0.00     0.147 C 
BRANCH  15  16
HETATM   16  N   UNK N   1      33.709  16.117   9.807  0.00  0.00    -0.415 N 
HETATM   17  H   UNK N   1      32.728  16.104   9.530  0.00  0.00     0.153 HD
BRANCH  16  18
HETATM   18  C   UNK N   1      34.331  15.292  10.829  0.00  0.00     0.068 C 
HETATM   19  C   UNK N   1      35.633  15.932  11.265  0.00  0.00     0.031 C 
HETATM   20  C   UNK N   1      34.612  13.911  10.272  0.00  0.00     0.031 C 
ENDBRANCH  16  18
ENDBRANCH  15  16
ENDBRANCH  12  15
ENDBRANCH  11  12
ENDBRANCH  10  11
ENDBRANCH   1  10
BRANCH   5  21
HETATM   21  O   UNK N   1      27.451  18.329   6.311  0.00  0.00    -0.278 OA
BRANCH  21  22
HETATM   22  C   UNK N   1      26.896  19.478   5.840  0.00  0.00     0.260 C 
HETATM   23  O   UNK N   1      25.860  19.474   5.194  0.00  0.00    -0.265 OA
HETATM   24  C   UNK N   1      27.491  20.781   6.248  0.00  0.00     0.126 C 
ENDBRANCH  21  22
ENDBRANCH   5  21
TORSDOF 9
ENDMDL
MODEL 6
REMARK VINA RESULT:      -5.6      3.110      7.326
REMARK  9 active torsions:
REMARK  status: ('A' for Active; 'I' for Inactive)
REMARK    1  A    between atoms: O_1  and  C_9 
REMARK    2  A    between atoms: O_1  and  C_10 
REMARK    3  A    between atoms: O_2  and  C_6 
REMARK    4  A    between atoms: O_3  and  C_14 
REMARK    5  A    between atoms: O_3  and  C_21 
REMARK    6  A    between atoms: N_5  and  C_7 
REMARK    7  A    between atoms: N_5  and  C_8 
REMARK    8  A    between atoms: C_6  and  C_7 
REMARK    9  A    between atoms: C_6  and  C_9 
ROOT
HETATM    1  C   UNK N   1      25.472  19.184   4.318  0.00  0.00     0.075 A 
HETATM    2  C   UNK N   1      26.016  17.916   4.568  0.00  0.00    -0.020 A 
HETATM    3  C   UNK N   1      27.078  17.771   5.478  0.00  0.00    -0.019 A 
HETATM    4  C   UNK N   1      27.046  20.173   5.896  0.00  0.00    -0.025 A 
HETATM    5  C   UNK N   1      27.604  18.888   6.163  0.00  0.00     0.091 A 
HETATM    6  C   UNK N   1      25.997  20.298   4.984  0.00  0.00     0.047 A 
HETATM    7  C   UNK N   1      25.472  16.725   3.840  0.00  0.00     0.052 C 
HETATM    8  C   UNK N   1      27.669  16.416   5.727  0.00  0.00     0.052 C 
HETATM    9  C   UNK N   1      27.567  21.434   6.489  0.00  0.00     0.051 C 
ENDROOT
BRANCH   1  10
HETATM   10  O   UNK N   1      24.467  19.314   3.416  0.00  0.00    -0.348 OA
BRANCH  10  11
HETATM   11  C   UNK N   1      23.892  20.523   3.085  0.00  0.00     0.209 C 
BRANCH  11  12
HETATM   12  C   UNK N   1      22.426  20.328   2.714  0.00  0.00     0.159 C 
BRANCH  12  13
HETATM   13  O   UNK N   1      21.781  21.565   2.673  0.00  0.00    -0.392 OA
HETATM   14  H   UNK N   1      20.866  21.804   2.459  0.00  0.00     0.210 HD
ENDBRANCH  12  13
BRANCH  12  15
HETATM   15  C   UNK N   1      21.738  19.464   3.760  0.00  0.00     0.147 C 
BRANCH  15  16
HETATM   16  N   UNK N   1      21.820  18.058   3.402  0.00  0.00    -0.415 N 
HETATM   17  H   UNK N   1      22.053  17.676   2.486  0.00  0.00     0.153 HD
BRANCH  16  18
HETATM   18  C   UNK N   1      21.504  17.301   4.601  0.00  0.00     0.068 C 
HETATM   19  C   UNK N   1      22.262  17.885   5.775  0.00  0.00     0.031 C 
HETATM   20  C   UNK N   1      21.906  15.852   4.414  0.00  0.00     0.031 C 
ENDBRANCH  16  18
ENDBRANCH  15  16
ENDBRANCH  12  15
ENDBRANCH  11  12
ENDBRANCH  10  11
ENDBRANCH   1  10
BRANCH   5  21
HETATM   21  O   UNK N   1      28.651  18.659   7.011  0.00  0.00    -0.278 OA
BRANCH  21  22
HETATM   22  C   UNK N   1      28.707  18.529   8.365  0.00  0.00     0.260 C 
HETATM   23  O   UNK N   1      27.762  18.103   9.009  0.00  0.00    -0.265 OA
HETATM   24  C   UNK N   1      30.002  18.779   9.055  0.00  0.00     0.126 C 
ENDBRANCH  21  22
ENDBRANCH   5  21
TORSDOF 9
ENDMDL
MODEL 7
REMARK VINA RESULT:      -5.6     10.561     14.405
REMARK  9 active torsions:
REMARK  status: ('A' for Active; 'I' for Inactive)
REMARK    1  A    between atoms: O_1  and  C_9 
REMARK    2  A    between atoms: O_1  and  C_10 
REMARK    3  A    between atoms: O_2  and  C_6 
REMARK    4  A    between atoms: O_3  and  C_14 
REMARK    5  A    between atoms: O_3  and  C_21 
REMARK    6  A    between atoms: N_5  and  C_7 
REMARK    7  A    between atoms: N_5  and  C_8 
REMARK    8  A    between atoms: C_6  and  C_7 
REMARK    9  A    between atoms: C_6  and  C_9 
ROOT
HETATM    1  C   UNK N   1      34.965  12.469  15.147  0.00  0.00     0.075 A 
HETATM    2  C   UNK N   1      35.098  11.075  15.097  0.00  0.00    -0.020 A 
HETATM    3  C   UNK N   1      35.242  10.337  16.286  0.00  0.00    -0.019 A 
HETATM    4  C   UNK N   1      35.113  12.399  17.580  0.00  0.00    -0.025 A 
HETATM    5  C   UNK N   1      35.243  10.979  17.543  0.00  0.00     0.091 A 
HETATM    6  C   UNK N   1      34.978  13.115  16.389  0.00  0.00     0.047 A 
HETATM    7  C   UNK N   1      35.108  10.383  13.768  0.00  0.00     0.052 C 
HETATM    8  C   UNK N   1      35.404   8.848  16.226  0.00  0.00     0.052 C 
HETATM    9  C   UNK N   1      35.183  13.198  18.833  0.00  0.00     0.051 C 
ENDROOT
BRANCH   1  10
HETATM   10  O   UNK N   1      34.856  13.172  13.991  0.00  0.00    -0.348 OA
BRANCH  10  11
HETATM   11  C   UNK N   1      35.750  14.148  13.606  0.00  0.00     0.209 C 
BRANCH  11  12
HETATM   12  C   UNK N   1      35.485  14.570  12.164  0.00  0.00     0.159 C 
BRANCH  12  13
HETATM   13  O   UNK N   1      34.264  14.045  11.737  0.00  0.00    -0.392 OA
HETATM   14  H   UNK N   1      33.845  14.028  10.862  0.00  0.00     0.210 HD
ENDBRANCH  12  13
BRANCH  12  15
HETATM   15  C   UNK N   1      36.581  14.032  11.258  0.00  0.00     0.147 C 
BRANCH  15  16
HETATM   16  N   UNK N   1      37.508  13.201  12.008  0.00  0.00    -0.415 N 
HETATM   17  H   UNK N   1      37.757  13.302  12.991  0.00  0.00     0.153 HD
BRANCH  16  18
HETATM   18  C   UNK N   1      38.011  12.196  11.086  0.00  0.00     0.068 C 
HETATM   19  C   UNK N   1      38.723  12.883   9.939  0.00  0.00     0.031 C 
HETATM   20  C   UNK N   1      36.860  11.374  10.544  0.00  0.00     0.031 C 
ENDBRANCH  16  18
ENDBRANCH  15  16
ENDBRANCH  12  15
ENDBRANCH  11  12
ENDBRANCH  10  11
ENDBRANCH   1  10
BRANCH   5  21
HETATM   21  O   UNK N   1      35.412  10.188  18.644  0.00  0.00    -0.278 OA
BRANCH  21  22
HETATM   22  C   UNK N   1      34.552   9.814  19.630  0.00  0.00     0.260 C 
HETATM   23  O   UNK N   1      34.564  10.344  20.729  0.00  0.00    -0.265 OA
HETATM   24  C   UNK N   1      33.477   8.834  19.310  0.00  0.00     0.126 C 
ENDBRANCH  21  22
ENDBRANCH   5  21
TORSDOF 9
ENDMDL
MODEL 8
REMARK VINA RESULT:      -5.5     12.303     15.988
REMARK  9 active torsions:
REMARK  status: ('A' for Active; 'I' for Inactive)
REMARK    1  A    between atoms: O_1  and  C_9 
REMARK    2  A    between atoms: O_1  and  C_10 
REMARK    3  A    between atoms: O_2  and  C_6 
REMARK    4  A    between atoms: O_3  and  C_14 
REMARK    5  A    between atoms: O_3  and  C_21 
REMARK    6  A    between atoms: N_5  and  C_7 
REMARK    7  A    between atoms: N_5  and  C_8 
REMARK    8  A    between atoms: C_6  and  C_7 
REMARK    9  A    between atoms: C_6  and  C_9 
ROOT
HETATM    1  C   UNK N   1      35.073  10.183  18.137  0.00  0.00     0.075 A 
HETATM    2  C   UNK N   1      35.247  11.537  18.457  0.00  0.00    -0.020 A 
HETATM    3  C   UNK N   1      35.078  12.522  17.468  0.00  0.00    -0.019 A 
HETATM    4  C   UNK N   1      34.551  10.791  15.834  0.00  0.00    -0.025 A 
HETATM    5  C   UNK N   1      34.720  12.172  16.148  0.00  0.00     0.091 A 
HETATM    6  C   UNK N   1      34.730   9.827  16.827  0.00  0.00     0.047 A 
HETATM    7  C   UNK N   1      35.637  11.920  19.852  0.00  0.00     0.052 C 
HETATM    8  C   UNK N   1      35.285  13.967  17.810  0.00  0.00     0.052 C 
HETATM    9  C   UNK N   1      34.257  10.290  14.464  0.00  0.00     0.051 C 
ENDROOT
BRANCH   1  10
HETATM   10  O   UNK N   1      35.268   9.240  19.094  0.00  0.00    -0.348 OA
BRANCH  10  11
HETATM   11  C   UNK N   1      36.013   8.097  18.896  0.00  0.00     0.209 C 
BRANCH  11  12
HETATM   12  C   UNK N   1      35.379   6.919  19.629  0.00  0.00     0.159 C 
BRANCH  12  13
HETATM   13  O   UNK N   1      34.861   6.011  18.705  0.00  0.00    -0.392 OA
HETATM   14  H   UNK N   1      33.948   5.764  18.491  0.00  0.00     0.210 HD
ENDBRANCH  12  13
BRANCH  12  15
HETATM   15  C   UNK N   1      34.240   7.410  20.509  0.00  0.00     0.147 C 
BRANCH  15  16
HETATM   16  N   UNK N   1      32.985   7.408  19.776  0.00  0.00    -0.415 N 
HETATM   17  H   UNK N   1      32.850   7.141  18.801  0.00  0.00     0.153 HD
BRANCH  16  18
HETATM   18  C   UNK N   1      31.959   7.860  20.699  0.00  0.00     0.068 C 
HETATM   19  C   UNK N   1      30.608   7.798  20.015  0.00  0.00     0.031 C 
HETATM   20  C   UNK N   1      32.242   9.286  21.124  0.00  0.00     0.031 C 
ENDBRANCH  16  18
ENDBRANCH  15  16
ENDBRANCH  12  15
ENDBRANCH  11  12
ENDBRANCH  10  11
ENDBRANCH   1  10
BRANCH   5  21
HETATM   21  O   UNK N   1      34.600  13.192  15.246  0.00  0.00    -0.278 OA
BRANCH  21  22
HETATM   22  C   UNK N   1      35.364  13.552  14.180  0.00  0.00     0.260 C 
HETATM   23  O   UNK N   1      34.896  13.647  13.057  0.00  0.00    -0.265 OA
HETATM   24  C   UNK N   1      36.770  13.979  14.418  0.00  0.00     0.126 C 
ENDBRANCH  21  22
ENDBRANCH   5  21
TORSDOF 9
ENDMDL
MODEL 9
REMARK VINA RESULT:      -5.5     11.491     15.409
REMARK  9 active torsions:
REMARK  status: ('A' for Active; 'I' for Inactive)
REMARK    1  A    between atoms: O_1  and  C_9 
REMARK    2  A    between atoms: O_1  and  C_10 
REMARK    3  A    between atoms: O_2  and  C_6 
REMARK    4  A    between atoms: O_3  and  C_14 
REMARK    5  A    between atoms: O_3  and  C_21 
REMARK    6  A    between atoms: N_5  and  C_7 
REMARK    7  A    between atoms: N_5  and  C_8 
REMARK    8  A    between atoms: C_6  and  C_7 
REMARK    9  A    between atoms: C_6  and  C_9 
ROOT
HETATM    1  C   UNK N   1      35.156  12.420  16.092  0.00  0.00     0.075 A 
HETATM    2  C   UNK N   1      35.228  12.709  17.462  0.00  0.00    -0.020 A 
HETATM    3  C   UNK N   1      35.359  11.667  18.397  0.00  0.00    -0.019 A 
HETATM    4  C   UNK N   1      35.353  10.039  16.583  0.00  0.00    -0.025 A 
HETATM    5  C   UNK N   1      35.433  10.321  17.979  0.00  0.00     0.091 A 
HETATM    6  C   UNK N   1      35.216  11.086  15.671  0.00  0.00     0.047 A 
HETATM    7  C   UNK N   1      35.141  14.133  17.919  0.00  0.00     0.052 C 
HETATM    8  C   UNK N   1      35.415  11.982  19.862  0.00  0.00     0.052 C 
HETATM    9  C   UNK N   1      35.335   8.660  16.024  0.00  0.00     0.051 C 
ENDROOT
BRANCH   1  10
HETATM   10  O   UNK N   1      35.001  13.432  15.202  0.00  0.00    -0.348 OA
BRANCH  10  11
HETATM   11  C   UNK N   1      36.035  13.952  14.453  0.00  0.00     0.209 C 
BRANCH  11  12
HETATM   12  C   UNK N   1      35.737  13.804  12.965  0.00  0.00     0.159 C 
BRANCH  12  13
HETATM   13  O   UNK N   1      34.419  13.383  12.787  0.00  0.00    -0.392 OA
HETATM   14  H   UNK N   1      34.050  12.523  12.533  0.00  0.00     0.210 HD
ENDBRANCH  12  13
BRANCH  12  15
HETATM   15  C   UNK N   1      36.660  12.761  12.354  0.00  0.00     0.147 C 
BRANCH  15  16
HETATM   16  N   UNK N   1      37.629  12.294  13.332  0.00  0.00    -0.415 N 
HETATM   17  H   UNK N   1      38.048  12.842  14.083  0.00  0.00     0.153 HD
BRANCH  16  18
HETATM   18  C   UNK N   1      37.887  10.896  13.034  0.00  0.00     0.068 C 
HETATM   19  C   UNK N   1      36.614  10.250  12.526  0.00  0.00     0.031 C 
HETATM   20  C   UNK N   1      38.349  10.181  14.286  0.00  0.00     0.031 C 
ENDBRANCH  16  18
ENDBRANCH  15  16
ENDBRANCH  12  15
ENDBRANCH  11  12
ENDBRANCH  10  11
ENDBRANCH   1  10
BRANCH   5  21
HETATM   21  O   UNK N   1      35.536   9.372  18.957  0.00  0.00    -0.278 OA
BRANCH  21  22
HETATM   22  C   UNK N   1      34.667   8.417  19.386  0.00  0.00     0.260 C 
HETATM   23  O   UNK N   1      35.026   7.271  19.600  0.00  0.00    -0.265 OA
HETATM   24  C   UNK N   1      33.278   8.820  19.741  0.00  0.00     0.126 C 
ENDBRANCH  21  22
ENDBRANCH   5  21
TORSDOF 9
ENDMDL
