MODEL 1
REMARK VINA RESULT:      -7.8      0.000      0.000
REMARK  2 active torsions:
REMARK  status: ('A' for Active; 'I' for Inactive)
REMARK       I    between atoms: N_4  and  C_21 
REMARK    1  A    between atoms: N_4  and  C_24 
REMARK    2  A    between atoms: C_10  and  C_21 
ROOT
HETATM    1  O   UNK N   1      34.754  18.791  -4.079  0.00  0.00    -0.269 OA
HETATM    2  N   UNK N   1      32.794  19.435  -4.944  0.00  0.00    -0.352 N 
HETATM    3  C   UNK N   1      28.812  23.582  -5.471  0.00  0.00    -0.001 C 
HETATM    4  C   UNK N   1      28.680  24.478  -4.205  0.00  0.00    -0.028 C 
HETATM    5  C   UNK N   1      29.685  22.318  -5.263  0.00  0.00    -0.004 C 
HETATM    6  C   UNK N   1      30.819  22.664  -4.278  0.00  0.00     0.004 C 
HETATM    7  C   UNK N   1      32.045  21.711  -4.414  0.00  0.00    -0.002 C 
HETATM    8  C   UNK N   1      27.333  25.203  -4.424  0.00  0.00     0.086 C 
HETATM    9  C   UNK N   1      28.749  23.562  -2.957  0.00  0.00     0.011 C 
HETATM   10  C   UNK N   1      30.112  22.773  -2.889  0.00  0.00     0.007 C 
HETATM   11  C   UNK N   1      27.377  23.189  -5.825  0.00  0.00     0.007 C 
HETATM   12  C   UNK N   1      30.171  21.665  -6.556  0.00  0.00     0.007 C 
HETATM   13  C   UNK N   1      26.456  24.107  -5.019  0.00  0.00     0.015 C 
HETATM   14  C   UNK N   1      31.622  20.296  -4.873  0.00  0.00     0.097 C 
HETATM   15  C   UNK N   1      30.927  20.345  -6.260  0.00  0.00     0.026 C 
HETATM   16  C   UNK N   1      29.782  25.529  -4.011  0.00  0.00     0.016 C 
HETATM   17  C   UNK N   1      32.991  22.281  -5.491  0.00  0.00     0.022 C 
HETATM   18  C   UNK N   1      32.858  21.615  -3.143  0.00  0.00    -0.009 C 
HETATM   19  C   UNK N   1      33.755  20.624  -3.012  0.00  0.00     0.071 C 
HETATM   20  C   UNK N   1      33.805  19.552  -4.037  0.00  0.00     0.241 C 
HETATM   21  H   UNK N   1      32.856  18.758  -5.656  0.00  0.00     0.163 HD
ENDROOT
BRANCH   8  22
HETATM   22  C   UNK N   1      27.396  26.364  -5.435  0.00  0.00     0.223 C 
HETATM   23  O   UNK N   1      27.661  26.123  -6.602  0.00  0.00    -0.273 OA
HETATM   24  N   UNK N   1      27.212  27.670  -5.094  0.00  0.00    -0.353 N 
HETATM   25  H   UNK N   1      27.305  28.302  -5.844  0.00  0.00     0.163 HD
BRANCH  24  26
HETATM   26  C   UNK N   1      26.903  28.297  -3.821  0.00  0.00     0.022 C 
HETATM   27  C   UNK N   1      25.938  27.530  -2.937  0.00  0.00     0.037 C 
HETATM   28  C   UNK N   1      26.312  29.663  -4.099  0.00  0.00     0.037 C 
HETATM   29  C   UNK N   1      28.198  28.490  -3.058  0.00  0.00     0.037 C 
ENDBRANCH  24  26
ENDBRANCH   8  22
TORSDOF 2
ENDMDL
MODEL 2
REMARK VINA RESULT:      -7.3     11.766     13.844
REMARK  2 active torsions:
REMARK  status: ('A' for Active; 'I' for Inactive)
REMARK       I    between atoms: N_4  and  C_21 
REMARK    1  A    between atoms: N_4  and  C_24 
REMARK    2  A    between atoms: C_10  and  C_21 
ROOT
HETATM    1  O   UNK N   1      35.408  17.331   9.794  0.00  0.00    -0.269 OA
HETATM    2  N   UNK N   1      33.349  17.966   9.191  0.00  0.00    -0.352 N 
HETATM    3  C   UNK N   1      28.570  16.810   6.165  0.00  0.00    -0.001 C 
HETATM    4  C   UNK N   1      28.846  16.042   4.840  0.00  0.00    -0.028 C 
HETATM    5  C   UNK N   1      29.845  17.349   6.862  0.00  0.00    -0.004 C 
HETATM    6  C   UNK N   1      30.994  16.349   6.620  0.00  0.00     0.004 C 
HETATM    7  C   UNK N   1      32.125  16.462   7.687  0.00  0.00    -0.002 C 
HETATM    8  C   UNK N   1      27.531  16.214   4.050  0.00  0.00     0.086 C 
HETATM    9  C   UNK N   1      30.106  16.658   4.179  0.00  0.00     0.011 C 
HETATM   10  C   UNK N   1      31.369  16.542   5.115  0.00  0.00     0.007 C 
HETATM   11  C   UNK N   1      27.651  17.965   5.765  0.00  0.00     0.007 C 
HETATM   12  C   UNK N   1      29.654  17.721   8.332  0.00  0.00     0.007 C 
HETATM   13  C   UNK N   1      27.144  17.656   4.354  0.00  0.00     0.015 C 
HETATM   14  C   UNK N   1      32.256  17.903   8.232  0.00  0.00     0.097 C 
HETATM   15  C   UNK N   1      30.939  18.364   8.912  0.00  0.00     0.026 C 
HETATM   16  C   UNK N   1      29.145  14.542   4.986  0.00  0.00     0.016 C 
HETATM   17  C   UNK N   1      31.764  15.550   8.879  0.00  0.00     0.022 C 
HETATM   18  C   UNK N   1      33.464  15.984   7.176  0.00  0.00    -0.009 C 
HETATM   19  C   UNK N   1      34.576  16.290   7.865  0.00  0.00     0.071 C 
HETATM   20  C   UNK N   1      34.483  17.230   9.010  0.00  0.00     0.241 C 
HETATM   21  H   UNK N   1      33.269  18.547   9.981  0.00  0.00     0.163 HD
ENDROOT
BRANCH   8  22
HETATM   22  C   UNK N   1      26.382  15.302   4.526  0.00  0.00     0.223 C 
HETATM   23  O   UNK N   1      26.000  15.383   5.682  0.00  0.00    -0.273 OA
HETATM   24  N   UNK N   1      25.785  14.367   3.735  0.00  0.00    -0.353 N 
HETATM   25  H   UNK N   1      25.082  13.845   4.185  0.00  0.00     0.163 HD
BRANCH  24  26
HETATM   26  C   UNK N   1      26.001  14.005   2.344  0.00  0.00     0.022 C 
HETATM   27  C   UNK N   1      27.339  13.356   2.044  0.00  0.00     0.037 C 
HETATM   28  C   UNK N   1      25.881  15.260   1.506  0.00  0.00     0.037 C 
HETATM   29  C   UNK N   1      24.902  13.050   1.926  0.00  0.00     0.037 C 
ENDBRANCH  24  26
ENDBRANCH   8  22
TORSDOF 2
ENDMDL
MODEL 3
REMARK VINA RESULT:      -7.3     12.705     16.443
REMARK  2 active torsions:
REMARK  status: ('A' for Active; 'I' for Inactive)
REMARK       I    between atoms: N_4  and  C_21 
REMARK    1  A    between atoms: N_4  and  C_24 
REMARK    2  A    between atoms: C_10  and  C_21 
ROOT
HETATM    1  O   UNK N   1      26.258  20.207   5.357  0.00  0.00    -0.269 OA
HETATM    2  N   UNK N   1      27.945  18.789   4.977  0.00  0.00    -0.352 N 
HETATM    3  C   UNK N   1      31.940  15.248   7.175  0.00  0.00    -0.001 C 
HETATM    4  C   UNK N   1      32.490  15.714   8.555  0.00  0.00    -0.028 C 
HETATM    5  C   UNK N   1      31.062  16.302   6.455  0.00  0.00    -0.004 C 
HETATM    6  C   UNK N   1      30.277  17.094   7.520  0.00  0.00     0.004 C 
HETATM    7  C   UNK N   1      28.990  17.761   6.945  0.00  0.00    -0.002 C 
HETATM    8  C   UNK N   1      33.775  14.875   8.725  0.00  0.00     0.086 C 
HETATM    9  C   UNK N   1      32.697  17.249   8.498  0.00  0.00     0.011 C 
HETATM   10  C   UNK N   1      31.349  18.007   8.198  0.00  0.00     0.007 C 
HETATM   11  C   UNK N   1      33.185  14.931   6.344  0.00  0.00     0.007 C 
HETATM   12  C   UNK N   1      30.186  15.739   5.337  0.00  0.00     0.007 C 
HETATM   13  C   UNK N   1      34.363  14.874   7.319  0.00  0.00     0.015 C 
HETATM   14  C   UNK N   1      29.155  18.134   5.454  0.00  0.00     0.097 C 
HETATM   15  C   UNK N   1      29.440  16.875   4.592  0.00  0.00     0.026 C 
HETATM   16  C   UNK N   1      31.571  15.463   9.760  0.00  0.00     0.016 C 
HETATM   17  C   UNK N   1      27.831  16.747   7.040  0.00  0.00     0.022 C 
HETATM   18  C   UNK N   1      28.557  18.976   7.733  0.00  0.00    -0.009 C 
HETATM   19  C   UNK N   1      27.655  19.816   7.198  0.00  0.00     0.071 C 
HETATM   20  C   UNK N   1      27.238  19.628   5.786  0.00  0.00     0.241 C 
HETATM   21  H   UNK N   1      27.634  18.625   4.058  0.00  0.00     0.163 HD
ENDROOT
BRANCH   8  22
HETATM   22  C   UNK N   1      33.527  13.412   9.139  0.00  0.00     0.223 C 
HETATM   23  O   UNK N   1      32.689  12.758   8.538  0.00  0.00    -0.273 OA
HETATM   24  N   UNK N   1      34.166  12.804  10.178  0.00  0.00    -0.353 N 
HETATM   25  H   UNK N   1      33.886  11.873  10.337  0.00  0.00     0.163 HD
BRANCH  24  26
HETATM   26  C   UNK N   1      35.187  13.285  11.093  0.00  0.00     0.022 C 
HETATM   27  C   UNK N   1      34.931  14.657  11.686  0.00  0.00     0.037 C 
HETATM   28  C   UNK N   1      36.505  13.324  10.349  0.00  0.00     0.037 C 
HETATM   29  C   UNK N   1      35.315  12.290  12.228  0.00  0.00     0.037 C 
ENDBRANCH  24  26
ENDBRANCH   8  22
TORSDOF 2
ENDMDL
MODEL 4
REMARK VINA RESULT:      -7.1      4.511      8.136
REMARK  2 active torsions:
REMARK  status: ('A' for Active; 'I' for Inactive)
REMARK       I    between atoms: N_4  and  C_21 
REMARK    1  A    between atoms: N_4  and  C_24 
REMARK    2  A    between atoms: C_10  and  C_21 
ROOT
HETATM    1  O   UNK N   1      27.002  30.245  -2.676  0.00  0.00    -0.269 OA
HETATM    2  N   UNK N   1      26.451  28.106  -3.027  0.00  0.00    -0.352 N 
HETATM    3  C   UNK N   1      26.628  23.529  -6.541  0.00  0.00    -0.001 C 
HETATM    4  C   UNK N   1      26.595  23.906  -8.052  0.00  0.00    -0.028 C 
HETATM    5  C   UNK N   1      26.329  24.713  -5.587  0.00  0.00    -0.004 C 
HETATM    6  C   UNK N   1      26.905  26.001  -6.211  0.00  0.00     0.004 C 
HETATM    7  C   UNK N   1      27.174  27.113  -5.151  0.00  0.00    -0.002 C 
HETATM    8  C   UNK N   1      26.244  22.570  -8.742  0.00  0.00     0.086 C 
HETATM    9  C   UNK N   1      25.562  25.047  -8.242  0.00  0.00     0.011 C 
HETATM   10  C   UNK N   1      25.945  26.323  -7.400  0.00  0.00     0.007 C 
HETATM   11  C   UNK N   1      25.568  22.437  -6.387  0.00  0.00     0.007 C 
HETATM   12  C   UNK N   1      26.760  24.484  -4.140  0.00  0.00     0.007 C 
HETATM   13  C   UNK N   1      25.210  21.967  -7.799  0.00  0.00     0.015 C 
HETATM   14  C   UNK N   1      26.186  27.024  -3.964  0.00  0.00     0.097 C 
HETATM   15  C   UNK N   1      26.313  25.660  -3.235  0.00  0.00     0.026 C 
HETATM   16  C   UNK N   1      27.912  24.436  -8.637  0.00  0.00     0.016 C 
HETATM   17  C   UNK N   1      28.595  26.913  -4.584  0.00  0.00     0.022 C 
HETATM   18  C   UNK N   1      27.143  28.504  -5.740  0.00  0.00    -0.009 C 
HETATM   19  C   UNK N   1      27.064  29.563  -4.918  0.00  0.00     0.071 C 
HETATM   20  C   UNK N   1      26.833  29.338  -3.469  0.00  0.00     0.241 C 
HETATM   21  H   UNK N   1      26.353  27.946  -2.061  0.00  0.00     0.163 HD
ENDROOT
BRANCH   8  22
HETATM   22  C   UNK N   1      27.423  21.584  -8.850  0.00  0.00     0.223 C 
HETATM   23  O   UNK N   1      28.048  21.291  -7.843  0.00  0.00    -0.273 OA
HETATM   24  N   UNK N   1      27.846  21.040 -10.026  0.00  0.00    -0.353 N 
HETATM   25  H   UNK N   1      28.626  20.445  -9.940  0.00  0.00     0.163 HD
BRANCH  24  26
HETATM   26  C   UNK N   1      27.350  21.182 -11.384  0.00  0.00     0.022 C 
HETATM   27  C   UNK N   1      25.862  20.945 -11.559  0.00  0.00     0.037 C 
HETATM   28  C   UNK N   1      28.096  20.201 -12.263  0.00  0.00     0.037 C 
HETATM   29  C   UNK N   1      27.670  22.584 -11.863  0.00  0.00     0.037 C 
ENDBRANCH  24  26
ENDBRANCH   8  22
TORSDOF 2
ENDMDL
MODEL 5
REMARK VINA RESULT:      -7.0     14.018     17.175
REMARK  2 active torsions:
REMARK  status: ('A' for Active; 'I' for Inactive)
REMARK       I    between atoms: N_4  and  C_21 
REMARK    1  A    between atoms: N_4  and  C_24 
REMARK    2  A    between atoms: C_10  and  C_21 
ROOT
HETATM    1  O   UNK N   1      38.012  10.656  13.178  0.00  0.00    -0.269 OA
HETATM    2  N   UNK N   1      37.371  12.723  12.614  0.00  0.00    -0.352 N 
HETATM    3  C   UNK N   1      34.113  16.073   9.223  0.00  0.00    -0.001 C 
HETATM    4  C   UNK N   1      33.908  15.494   7.792  0.00  0.00    -0.028 C 
HETATM    5  C   UNK N   1      35.181  15.326  10.061  0.00  0.00    -0.004 C 
HETATM    6  C   UNK N   1      35.135  13.829   9.690  0.00  0.00     0.004 C 
HETATM    7  C   UNK N   1      35.720  12.915  10.808  0.00  0.00    -0.002 C 
HETATM    8  C   UNK N   1      33.386  16.706   6.991  0.00  0.00     0.086 C 
HETATM    9  C   UNK N   1      35.260  14.909   7.311  0.00  0.00     0.011 C 
HETATM   10  C   UNK N   1      35.769  13.760   8.264  0.00  0.00     0.007 C 
HETATM   11  C   UNK N   1      34.530  17.528   9.001  0.00  0.00     0.007 C 
HETATM   12  C   UNK N   1      35.103  15.588  11.564  0.00  0.00     0.007 C 
HETATM   13  C   UNK N   1      34.225  17.855   7.537  0.00  0.00     0.015 C 
HETATM   14  C   UNK N   1      36.829  13.631  11.613  0.00  0.00     0.097 C 
HETATM   15  C   UNK N   1      36.278  14.905  12.308  0.00  0.00     0.026 C 
HETATM   16  C   UNK N   1      32.893  14.347   7.675  0.00  0.00     0.016 C 
HETATM   17  C   UNK N   1      34.587  12.565  11.796  0.00  0.00     0.022 C 
HETATM   18  C   UNK N   1      36.242  11.599  10.277  0.00  0.00    -0.009 C 
HETATM   19  C   UNK N   1      37.030  10.843  11.058  0.00  0.00     0.071 C 
HETATM   20  C   UNK N   1      37.511  11.393  12.350  0.00  0.00     0.241 C 
HETATM   21  H   UNK N   1      37.640  13.075  13.493  0.00  0.00     0.163 HD
ENDROOT
BRANCH   8  22
HETATM   22  C   UNK N   1      31.902  17.040   7.242  0.00  0.00     0.223 C 
HETATM   23  O   UNK N   1      31.526  17.258   8.382  0.00  0.00    -0.273 OA
HETATM   24  N   UNK N   1      30.959  17.066   6.258  0.00  0.00    -0.353 N 
HETATM   25  H   UNK N   1      30.049  17.272   6.574  0.00  0.00     0.163 HD
BRANCH  24  26
HETATM   26  C   UNK N   1      31.058  16.844   4.826  0.00  0.00     0.022 C 
HETATM   27  C   UNK N   1      32.142  17.636   4.120  0.00  0.00     0.037 C 
HETATM   28  C   UNK N   1      29.725  17.198   4.202  0.00  0.00     0.037 C 
HETATM   29  C   UNK N   1      31.312  15.369   4.590  0.00  0.00     0.037 C 
ENDBRANCH  24  26
ENDBRANCH   8  22
TORSDOF 2
ENDMDL
MODEL 6
REMARK VINA RESULT:      -6.9     13.895     16.202
REMARK  2 active torsions:
REMARK  status: ('A' for Active; 'I' for Inactive)
REMARK       I    between atoms: N_4  and  C_21 
REMARK    1  A    between atoms: N_4  and  C_24 
REMARK    2  A    between atoms: C_10  and  C_21 
ROOT
HETATM    1  O   UNK N   1      20.648  21.380   0.651  0.00  0.00    -0.269 OA
HETATM    2  N   UNK N   1      20.542  19.155   0.846  0.00  0.00    -0.352 N 
HETATM    3  C   UNK N   1      21.166  14.511   4.218  0.00  0.00    -0.001 C 
HETATM    4  C   UNK N   1      22.287  14.667   5.287  0.00  0.00    -0.028 C 
HETATM    5  C   UNK N   1      21.150  15.632   3.149  0.00  0.00    -0.004 C 
HETATM    6  C   UNK N   1      21.583  16.952   3.819  0.00  0.00     0.004 C 
HETATM    7  C   UNK N   1      21.084  18.210   3.045  0.00  0.00    -0.002 C 
HETATM    8  C   UNK N   1      22.530  13.217   5.760  0.00  0.00     0.086 C 
HETATM    9  C   UNK N   1      23.500  15.361   4.615  0.00  0.00     0.011 C 
HETATM   10  C   UNK N   1      23.118  16.785   4.057  0.00  0.00     0.007 C 
HETATM   11  C   UNK N   1      21.432  13.153   3.566  0.00  0.00     0.007 C 
HETATM   12  C   UNK N   1      19.843  15.741   2.365  0.00  0.00     0.007 C 
HETATM   13  C   UNK N   1      22.433  12.421   4.463  0.00  0.00     0.015 C 
HETATM   14  C   UNK N   1      20.969  17.941   1.527  0.00  0.00     0.097 C 
HETATM   15  C   UNK N   1      19.959  16.799   1.239  0.00  0.00     0.026 C 
HETATM   16  C   UNK N   1      21.934  15.533   6.505  0.00  0.00     0.016 C 
HETATM   17  C   UNK N   1      19.674  18.571   3.557  0.00  0.00     0.022 C 
HETATM   18  C   UNK N   1      21.948  19.427   3.285  0.00  0.00    -0.009 C 
HETATM   19  C   UNK N   1      21.824  20.490   2.473  0.00  0.00     0.071 C 
HETATM   20  C   UNK N   1      20.974  20.380   1.261  0.00  0.00     0.241 C 
HETATM   21  H   UNK N   1      19.933  19.090   0.075  0.00  0.00     0.163 HD
ENDROOT
BRANCH   8  22
HETATM   22  C   UNK N   1      21.460  12.679   6.730  0.00  0.00     0.223 C 
HETATM   23  O   UNK N   1      20.286  12.708   6.396  0.00  0.00    -0.273 OA
HETATM   24  N   UNK N   1      21.743  12.204   7.975  0.00  0.00    -0.353 N 
HETATM   25  H   UNK N   1      20.952  11.916   8.488  0.00  0.00     0.163 HD
BRANCH  24  26
HETATM   26  C   UNK N   1      23.003  12.045   8.680  0.00  0.00     0.022 C 
HETATM   27  C   UNK N   1      23.930  13.244   8.628  0.00  0.00     0.037 C 
HETATM   28  C   UNK N   1      23.727  10.855   8.088  0.00  0.00     0.037 C 
HETATM   29  C   UNK N   1      22.700  11.738  10.133  0.00  0.00     0.037 C 
ENDBRANCH  24  26
ENDBRANCH   8  22
TORSDOF 2
ENDMDL
MODEL 7
REMARK VINA RESULT:      -6.9     12.004     15.669
REMARK  2 active torsions:
REMARK  status: ('A' for Active; 'I' for Inactive)
REMARK       I    between atoms: N_4  and  C_21 
REMARK    1  A    between atoms: N_4  and  C_24 
REMARK    2  A    between atoms: C_10  and  C_21 
ROOT
HETATM    1  O   UNK N   1      25.557  17.289   3.903  0.00  0.00    -0.269 OA
HETATM    2  N   UNK N   1      27.749  17.717   4.020  0.00  0.00    -0.352 N 
HETATM    3  C   UNK N   1      32.797  16.686   6.625  0.00  0.00    -0.001 C 
HETATM    4  C   UNK N   1      32.659  16.377   8.145  0.00  0.00    -0.028 C 
HETATM    5  C   UNK N   1      31.497  17.210   5.964  0.00  0.00    -0.004 C 
HETATM    6  C   UNK N   1      30.293  16.523   6.641  0.00  0.00     0.004 C 
HETATM    7  C   UNK N   1      29.021  16.517   5.741  0.00  0.00    -0.002 C 
HETATM    8  C   UNK N   1      34.100  16.545   8.672  0.00  0.00     0.086 C 
HETATM    9  C   UNK N   1      31.612  17.354   8.741  0.00  0.00     0.011 C 
HETATM   10  C   UNK N   1      30.204  17.190   8.052  0.00  0.00     0.007 C 
HETATM   11  C   UNK N   1      33.903  17.739   6.538  0.00  0.00     0.007 C 
HETATM   12  C   UNK N   1      31.480  17.117   4.440  0.00  0.00     0.007 C 
HETATM   13  C   UNK N   1      34.601  17.759   7.900  0.00  0.00     0.015 C 
HETATM   14  C   UNK N   1      28.974  17.748   4.807  0.00  0.00     0.097 C 
HETATM   15  C   UNK N   1      30.202  17.774   3.859  0.00  0.00     0.026 C 
HETATM   16  C   UNK N   1      32.161  14.968   8.498  0.00  0.00     0.016 C 
HETATM   17  C   UNK N   1      29.061  15.260   4.846  0.00  0.00     0.022 C 
HETATM   18  C   UNK N   1      27.739  16.430   6.538  0.00  0.00    -0.009 C 
HETATM   19  C   UNK N   1      26.572  16.708   5.935  0.00  0.00     0.071 C 
HETATM   20  C   UNK N   1      26.582  17.260   4.557  0.00  0.00     0.241 C 
HETATM   21  H   UNK N   1      27.764  18.032   3.087  0.00  0.00     0.163 HD
ENDROOT
BRANCH   8  22
HETATM   22  C   UNK N   1      35.033  15.360   8.354  0.00  0.00     0.223 C 
HETATM   23  O   UNK N   1      35.204  15.034   7.190  0.00  0.00    -0.273 OA
HETATM   24  N   UNK N   1      35.656  14.614   9.309  0.00  0.00    -0.353 N 
HETATM   25  H   UNK N   1      36.202  13.876   8.954  0.00  0.00     0.163 HD
BRANCH  24  26
HETATM   26  C   UNK N   1      35.660  14.716  10.758  0.00  0.00     0.022 C 
HETATM   27  C   UNK N   1      34.312  14.514  11.425  0.00  0.00     0.037 C 
HETATM   28  C   UNK N   1      36.176  16.089  11.133  0.00  0.00     0.037 C 
HETATM   29  C   UNK N   1      36.624  13.683  11.306  0.00  0.00     0.037 C 
ENDBRANCH  24  26
ENDBRANCH   8  22
TORSDOF 2
ENDMDL
MODEL 8
REMARK VINA RESULT:      -6.8     14.696     16.726
REMARK  2 active torsions:
REMARK  status: ('A' for Active; 'I' for Inactive)
REMARK       I    between atoms: N_4  and  C_21 
REMARK    1  A    between atoms: N_4  and  C_24 
REMARK    2  A    between atoms: C_10  and  C_21 
ROOT
HETATM    1  O   UNK N   1      20.351  12.002  11.759  0.00  0.00    -0.269 OA
HETATM    2  N   UNK N   1      20.788  13.536  10.190  0.00  0.00    -0.352 N 
HETATM    3  C   UNK N   1      24.007  15.120   5.668  0.00  0.00    -0.001 C 
HETATM    4  C   UNK N   1      25.477  14.612   5.745  0.00  0.00    -0.028 C 
HETATM    5  C   UNK N   1      23.201  14.925   6.976  0.00  0.00    -0.004 C 
HETATM    6  C   UNK N   1      23.673  13.622   7.652  0.00  0.00     0.004 C 
HETATM    7  C   UNK N   1      22.607  13.030   8.624  0.00  0.00    -0.002 C 
HETATM    8  C   UNK N   1      26.205  15.473   4.690  0.00  0.00     0.086 C 
HETATM    9  C   UNK N   1      25.971  14.786   7.204  0.00  0.00     0.011 C 
HETATM   10  C   UNK N   1      25.088  13.965   8.219  0.00  0.00     0.007 C 
HETATM   11  C   UNK N   1      24.124  16.606   5.327  0.00  0.00     0.007 C 
HETATM   12  C   UNK N   1      21.686  15.016   6.806  0.00  0.00     0.007 C 
HETATM   13  C   UNK N   1      25.568  16.845   4.879  0.00  0.00     0.015 C 
HETATM   14  C   UNK N   1      21.736  14.136   9.262  0.00  0.00     0.097 C 
HETATM   15  C   UNK N   1      20.967  14.935   8.176  0.00  0.00     0.026 C 
HETATM   16  C   UNK N   1      25.691  13.129   5.408  0.00  0.00     0.016 C 
HETATM   17  C   UNK N   1      21.667  12.110   7.817  0.00  0.00     0.022 C 
HETATM   18  C   UNK N   1      23.216  12.168   9.707  0.00  0.00    -0.009 C 
HETATM   19  C   UNK N   1      22.472  11.836  10.775  0.00  0.00     0.071 C 
HETATM   20  C   UNK N   1      21.137  12.460  10.951  0.00  0.00     0.241 C 
HETATM   21  H   UNK N   1      19.882  13.914  10.271  0.00  0.00     0.163 HD
ENDROOT
BRANCH   8  22
HETATM   22  C   UNK N   1      25.961  15.032   3.234  0.00  0.00     0.223 C 
HETATM   23  O   UNK N   1      24.825  15.059   2.786  0.00  0.00    -0.273 OA
HETATM   24  N   UNK N   1      26.943  14.565   2.413  0.00  0.00    -0.353 N 
HETATM   25  H   UNK N   1      26.631  14.299   1.517  0.00  0.00     0.163 HD
BRANCH  24  26
HETATM   26  C   UNK N   1      28.370  14.391   2.624  0.00  0.00     0.022 C 
HETATM   27  C   UNK N   1      28.753  13.672   3.904  0.00  0.00     0.037 C 
HETATM   28  C   UNK N   1      29.015  15.760   2.635  0.00  0.00     0.037 C 
HETATM   29  C   UNK N   1      28.933  13.612   1.452  0.00  0.00     0.037 C 
ENDBRANCH  24  26
ENDBRANCH   8  22
TORSDOF 2
ENDMDL
MODEL 9
REMARK VINA RESULT:      -6.7     11.555     13.321
REMARK  2 active torsions:
REMARK  status: ('A' for Active; 'I' for Inactive)
REMARK       I    between atoms: N_4  and  C_21 
REMARK    1  A    between atoms: N_4  and  C_24 
REMARK    2  A    between atoms: C_10  and  C_21 
ROOT
HETATM    1  O   UNK N   1      37.001  14.101   6.348  0.00  0.00    -0.269 OA
HETATM    2  N   UNK N   1      35.299  15.207   7.289  0.00  0.00    -0.352 N 
HETATM    3  C   UNK N   1      29.747  16.766   7.028  0.00  0.00    -0.001 C 
HETATM    4  C   UNK N   1      29.228  16.972   5.574  0.00  0.00    -0.028 C 
HETATM    5  C   UNK N   1      31.283  16.597   7.134  0.00  0.00    -0.004 C 
HETATM    6  C   UNK N   1      31.779  15.845   5.882  0.00  0.00     0.004 C 
HETATM    7  C   UNK N   1      33.147  15.132   6.112  0.00  0.00    -0.002 C 
HETATM    8  C   UNK N   1      27.911  17.752   5.775  0.00  0.00     0.086 C 
HETATM    9  C   UNK N   1      30.327  17.714   4.771  0.00  0.00     0.011 C 
HETATM   10  C   UNK N   1      31.671  16.892   4.727  0.00  0.00     0.007 C 
HETATM   11  C   UNK N   1      29.293  18.015   7.786  0.00  0.00     0.007 C 
HETATM   12  C   UNK N   1      31.764  15.986   8.449  0.00  0.00     0.007 C 
HETATM   13  C   UNK N   1      28.262  18.719   6.900  0.00  0.00     0.015 C 
HETATM   14  C   UNK N   1      34.020  15.887   7.141  0.00  0.00     0.097 C 
HETATM   15  C   UNK N   1      33.311  15.969   8.519  0.00  0.00     0.026 C 
HETATM   16  C   UNK N   1      28.929  15.690   4.783  0.00  0.00     0.016 C 
HETATM   17  C   UNK N   1      32.874  13.725   6.683  0.00  0.00     0.022 C 
HETATM   18  C   UNK N   1      33.925  14.928   4.832  0.00  0.00    -0.009 C 
HETATM   19  C   UNK N   1      35.226  14.602   4.901  0.00  0.00     0.071 C 
HETATM   20  C   UNK N   1      35.909  14.622   6.219  0.00  0.00     0.241 C 
HETATM   21  H   UNK N   1      35.730  15.170   8.173  0.00  0.00     0.163 HD
ENDROOT
BRANCH   8  22
HETATM   22  C   UNK N   1      26.726  16.885   6.246  0.00  0.00     0.223 C 
HETATM   23  O   UNK N   1      26.868  16.162   7.219  0.00  0.00    -0.273 OA
HETATM   24  N   UNK N   1      25.523  16.843   5.607  0.00  0.00    -0.353 N 
HETATM   25  H   UNK N   1      24.871  16.225   6.011  0.00  0.00     0.163 HD
BRANCH  24  26
HETATM   26  C   UNK N   1      25.031  17.549   4.437  0.00  0.00     0.022 C 
HETATM   27  C   UNK N   1      25.158  19.060   4.489  0.00  0.00     0.037 C 
HETATM   28  C   UNK N   1      23.569  17.199   4.256  0.00  0.00     0.037 C 
HETATM   29  C   UNK N   1      25.789  17.047   3.225  0.00  0.00     0.037 C 
ENDBRANCH  24  26
ENDBRANCH   8  22
TORSDOF 2
ENDMDL
