REMARK  2 active torsions:
REMARK  status: ('A' for Active; 'I' for Inactive)
REMARK       I    between atoms: N_4  and  C_21 
REMARK    1  A    between atoms: N_4  and  C_24 
REMARK    2  A    between atoms: C_10  and  C_21 
ROOT
HETATM    1  O   UNK N   1      -0.311  -4.321  -0.624  0.00  0.00    -0.269 OA
HETATM    2  N   UNK N   1       1.896  -4.160  -0.298  0.00  0.00    -0.352 N 
HETATM    3  C   UNK N   1       6.492  -0.741   0.421  0.00  0.00    -0.001 C 
HETATM    4  C   UNK N   1       6.392   0.604  -0.357  0.00  0.00    -0.028 C 
HETATM    5  C   UNK N   1       5.398  -1.772   0.046  0.00  0.00    -0.004 C 
HETATM    6  C   UNK N   1       4.097  -1.009  -0.277  0.00  0.00     0.004 C 
HETATM    7  C   UNK N   1       2.825  -1.896  -0.117  0.00  0.00    -0.002 C 
HETATM    8  C   UNK N   1       7.844   1.129  -0.344  0.00  0.00     0.086 C 
HETATM    9  C   UNK N   1       5.803   0.306  -1.760  0.00  0.00     0.011 C 
HETATM   10  C   UNK N   1       4.369  -0.341  -1.663  0.00  0.00     0.007 C 
HETATM   11  C   UNK N   1       7.880  -1.287   0.083  0.00  0.00     0.007 C 
HETATM   12  C   UNK N   1       5.214  -2.898   1.062  0.00  0.00     0.007 C 
HETATM   13  C   UNK N   1       8.661  -0.139  -0.561  0.00  0.00     0.015 C 
HETATM   14  C   UNK N   1       3.121  -3.383  -0.420  0.00  0.00     0.097 C 
HETATM   15  C   UNK N   1       4.194  -3.946   0.550  0.00  0.00     0.026 C 
HETATM   16  C   UNK N   1       5.474   1.668   0.262  0.00  0.00     0.016 C 
HETATM   17  C   UNK N   1       2.351  -1.810   1.349  0.00  0.00     0.022 C 
HETATM   18  C   UNK N   1       1.668  -1.421  -0.966  0.00  0.00    -0.009 C 
HETATM   19  C   UNK N   1       0.619  -2.237  -1.160  0.00  0.00     0.071 C 
HETATM   20  C   UNK N   1       0.696  -3.641  -0.685  0.00  0.00     0.241 C 
HETATM   21  H   UNK N   1       1.935  -5.073   0.068  0.00  0.00     0.163 HD
ENDROOT
BRANCH   8  22
HETATM   22  C   UNK N   1       8.280   1.753   0.996  0.00  0.00     0.223 C 
HETATM   23  O   UNK N   1       7.651   1.488   2.008  0.00  0.00    -0.273 OA
HETATM   24  N   UNK N   1       9.316   2.630   1.117  0.00  0.00    -0.353 N 
HETATM   25  H   UNK N   1       9.461   2.962   2.033  0.00  0.00     0.163 HD
BRANCH  24  26
HETATM   26  C   UNK N   1      10.245   3.162   0.135  0.00  0.00     0.022 C 
HETATM   27  C   UNK N   1      10.101   2.598  -1.266  0.00  0.00     0.037 C 
HETATM   28  C   UNK N   1      11.652   2.884   0.619  0.00  0.00     0.037 C 
HETATM   29  C   UNK N   1      10.057   4.664   0.067  0.00  0.00     0.037 C 
ENDBRANCH  24  26
ENDBRANCH   8  22
TORSDOF 2
