MODEL 1
REMARK VINA RESULT:      -6.5      0.000      0.000
REMARK  4 active torsions:
REMARK  status: ('A' for Active; 'I' for Inactive)
REMARK    1  A    between atoms: N_1  and  C_16 
REMARK    2  A    between atoms: C_8  and  C_10 
REMARK    3  A    between atoms: C_9  and  C_11 
REMARK    4  A    between atoms: C_13  and  C_16 
ROOT
HETATM    1  N   UNK N   1      25.094  24.146  -9.614  0.00  0.00    -0.196 NA
HETATM    2  C   UNK N   1      26.106  22.750  -7.639  0.00  0.00     0.069 C 
HETATM    3  C   UNK N   1      25.018  21.747  -7.249  0.00  0.00     0.036 C 
HETATM    4  C   UNK N   1      27.284  21.965  -8.153  0.00  0.00     0.036 C 
HETATM    5  C   UNK N   1      25.544  23.552  -8.729  0.00  0.00     0.073 C 
ENDROOT
BRANCH   2   6
HETATM    6  C   UNK N   1      26.563  23.589  -6.439  0.00  0.00    -0.035 A 
HETATM    7  C   UNK N   1      27.679  23.264  -5.644  0.00  0.00     0.017 A 
HETATM    8  C   UNK N   1      27.990  24.021  -4.480  0.00  0.00    -0.035 A 
HETATM    9  C   UNK N   1      27.135  25.091  -4.115  0.00  0.00     0.017 A 
HETATM   10  C   UNK N   1      26.036  25.421  -4.924  0.00  0.00    -0.037 A 
HETATM   11  C   UNK N   1      25.791  24.672  -6.065  0.00  0.00     0.017 A 
BRANCH   8  12
HETATM   12  C   UNK N   1      29.294  23.784  -3.712  0.00  0.00     0.069 C 
HETATM   13  C   UNK N   1      29.037  23.168  -2.344  0.00  0.00     0.036 C 
HETATM   14  C   UNK N   1      30.148  22.798  -4.491  0.00  0.00     0.036 C 
HETATM   15  C   UNK N   1      30.100  24.993  -3.484  0.00  0.00     0.073 C 
HETATM   16  N   UNK N   1      30.778  25.911  -3.277  0.00  0.00    -0.196 NA
ENDBRANCH   8  12
BRANCH  10  17
HETATM   17  C   UNK N   1      25.122  26.582  -4.617  0.00  0.00     0.188 C 
BRANCH  17  18
HETATM   18  N   UNK N   1      25.907  27.813  -4.451  0.00  0.00    -0.283 N 
HETATM   19  N   UNK N   1      25.838  28.616  -3.405  0.00  0.00    -0.293 N 
HETATM   20  C   UNK N   1      26.582  29.699  -3.694  0.00  0.00     0.198 A 
ATOM     21  HN  UNK N   1      25.319  28.448  -2.542  1.00  0.00     0.188 HD
HETATM   22  N   UNK N   1      27.128  29.581  -4.925  0.00  0.00    -0.346 N 
HETATM   23  C   UNK N   1      26.683  28.391  -5.379  0.00  0.00     0.201 A 
ATOM     24  HN  UNK N   1      27.739  30.243  -5.404  1.00  0.00     0.167 HD
ENDBRANCH  17  18
ENDBRANCH  10  17
ENDBRANCH   2   6
TORSDOF 4
ENDMDL
MODEL 2
REMARK VINA RESULT:      -6.5     14.386     17.125
REMARK  4 active torsions:
REMARK  status: ('A' for Active; 'I' for Inactive)
REMARK    1  A    between atoms: N_1  and  C_16 
REMARK    2  A    between atoms: C_8  and  C_10 
REMARK    3  A    between atoms: C_9  and  C_11 
REMARK    4  A    between atoms: C_13  and  C_16 
ROOT
HETATM    1  N   UNK N   1      27.670  16.434   9.862  0.00  0.00    -0.196 NA
HETATM    2  C   UNK N   1      29.216  18.241   8.756  0.00  0.00     0.069 C 
HETATM    3  C   UNK N   1      28.279  19.137   7.942  0.00  0.00     0.036 C 
HETATM    4  C   UNK N   1      29.824  19.089   9.843  0.00  0.00     0.036 C 
HETATM    5  C   UNK N   1      28.366  17.213   9.363  0.00  0.00     0.073 C 
ENDROOT
BRANCH   2   6
HETATM    6  C   UNK N   1      30.346  17.666   7.894  0.00  0.00    -0.035 A 
HETATM    7  C   UNK N   1      30.127  16.825   6.786  0.00  0.00     0.017 A 
HETATM    8  C   UNK N   1      31.219  16.236   6.090  0.00  0.00    -0.035 A 
HETATM    9  C   UNK N   1      32.535  16.485   6.553  0.00  0.00     0.017 A 
HETATM   10  C   UNK N   1      32.746  17.341   7.645  0.00  0.00    -0.037 A 
HETATM   11  C   UNK N   1      31.651  17.916   8.273  0.00  0.00     0.017 A 
BRANCH   8  12
HETATM   12  C   UNK N   1      30.997  15.464   4.786  0.00  0.00     0.069 C 
HETATM   13  C   UNK N   1      30.005  16.171   3.875  0.00  0.00     0.036 C 
HETATM   14  C   UNK N   1      32.315  15.387   4.033  0.00  0.00     0.036 C 
HETATM   15  C   UNK N   1      30.500  14.090   4.962  0.00  0.00     0.073 C 
HETATM   16  N   UNK N   1      30.111  13.001   5.041  0.00  0.00    -0.196 NA
ENDBRANCH   8  12
BRANCH  10  17
HETATM   17  C   UNK N   1      34.126  17.689   8.149  0.00  0.00     0.188 C 
BRANCH  17  18
HETATM   18  N   UNK N   1      34.496  16.804   9.262  0.00  0.00    -0.283 N 
HETATM   19  N   UNK N   1      34.910  17.215  10.447  0.00  0.00    -0.293 N 
HETATM   20  C   UNK N   1      35.295  16.119  11.127  0.00  0.00     0.198 A 
ATOM     21  HN  UNK N   1      34.935  18.178  10.782  1.00  0.00     0.188 HD
HETATM   22  N   UNK N   1      35.121  15.011  10.373  0.00  0.00    -0.346 N 
HETATM   23  C   UNK N   1      34.624  15.470   9.206  0.00  0.00     0.201 A 
ATOM     24  HN  UNK N   1      35.321  14.043  10.629  1.00  0.00     0.167 HD
ENDBRANCH  17  18
ENDBRANCH  10  17
ENDBRANCH   2   6
TORSDOF 4
ENDMDL
MODEL 3
REMARK VINA RESULT:      -6.3      1.699      2.168
REMARK  4 active torsions:
REMARK  status: ('A' for Active; 'I' for Inactive)
REMARK    1  A    between atoms: N_1  and  C_16 
REMARK    2  A    between atoms: C_8  and  C_10 
REMARK    3  A    between atoms: C_9  and  C_11 
REMARK    4  A    between atoms: C_13  and  C_16 
ROOT
HETATM    1  N   UNK N   1      28.739  22.692 -10.201  0.00  0.00    -0.196 NA
HETATM    2  C   UNK N   1      27.997  21.676  -7.901  0.00  0.00     0.069 C 
HETATM    3  C   UNK N   1      26.564  21.182  -8.116  0.00  0.00     0.036 C 
HETATM    4  C   UNK N   1      28.852  20.471  -7.604  0.00  0.00     0.036 C 
HETATM    5  C   UNK N   1      28.417  22.267  -9.174  0.00  0.00     0.073 C 
ENDROOT
BRANCH   2   6
HETATM    6  C   UNK N   1      28.092  22.647  -6.718  0.00  0.00    -0.035 A 
HETATM    7  C   UNK N   1      29.221  22.745  -5.882  0.00  0.00     0.017 A 
HETATM    8  C   UNK N   1      29.209  23.589  -4.736  0.00  0.00    -0.035 A 
HETATM    9  C   UNK N   1      28.025  24.307  -4.432  0.00  0.00     0.017 A 
HETATM   10  C   UNK N   1      26.911  24.219  -5.281  0.00  0.00    -0.037 A 
HETATM   11  C   UNK N   1      26.981  23.406  -6.403  0.00  0.00     0.017 A 
BRANCH   8  12
HETATM   12  C   UNK N   1      30.485  23.833  -3.925  0.00  0.00     0.069 C 
HETATM   13  C   UNK N   1      31.700  23.196  -4.582  0.00  0.00     0.036 C 
HETATM   14  C   UNK N   1      30.745  25.328  -3.862  0.00  0.00     0.036 C 
HETATM   15  C   UNK N   1      30.440  23.327  -2.544  0.00  0.00     0.073 C 
HETATM   16  N   UNK N   1      30.461  22.950  -1.447  0.00  0.00    -0.196 NA
ENDBRANCH   8  12
BRANCH  10  17
HETATM   17  C   UNK N   1      25.643  25.001  -5.040  0.00  0.00     0.188 C 
BRANCH  17  18
HETATM   18  N   UNK N   1      25.961  26.409  -4.765  0.00  0.00    -0.283 N 
HETATM   19  N   UNK N   1      25.803  27.003  -3.597  0.00  0.00    -0.293 N 
HETATM   20  C   UNK N   1      26.054  28.311  -3.788  0.00  0.00     0.198 A 
ATOM     21  HN  UNK N   1      25.539  26.557  -2.718  1.00  0.00     0.188 HD
HETATM   22  N   UNK N   1      26.377  28.546  -5.079  0.00  0.00    -0.346 N 
HETATM   23  C   UNK N   1      26.305  27.336  -5.671  0.00  0.00     0.201 A 
ATOM     24  HN  UNK N   1      26.619  29.439  -5.510  1.00  0.00     0.167 HD
ENDBRANCH  17  18
ENDBRANCH  10  17
ENDBRANCH   2   6
TORSDOF 4
ENDMDL
MODEL 4
REMARK VINA RESULT:      -6.2      1.561      5.294
REMARK  4 active torsions:
REMARK  status: ('A' for Active; 'I' for Inactive)
REMARK    1  A    between atoms: N_1  and  C_16 
REMARK    2  A    between atoms: C_8  and  C_10 
REMARK    3  A    between atoms: C_9  and  C_11 
REMARK    4  A    between atoms: C_13  and  C_16 
ROOT
HETATM    1  N   UNK N   1      27.650  29.203  -5.781  0.00  0.00    -0.196 NA
HETATM    2  C   UNK N   1      26.164  27.268  -4.819  0.00  0.00     0.069 C 
HETATM    3  C   UNK N   1      25.897  27.645  -3.360  0.00  0.00     0.036 C 
HETATM    4  C   UNK N   1      24.840  27.270  -5.538  0.00  0.00     0.036 C 
HETATM    5  C   UNK N   1      27.013  28.332  -5.363  0.00  0.00     0.073 C 
ENDROOT
BRANCH   2   6
HETATM    6  C   UNK N   1      26.785  25.871  -4.941  0.00  0.00    -0.035 A 
HETATM    7  C   UNK N   1      28.105  25.571  -4.554  0.00  0.00     0.017 A 
HETATM    8  C   UNK N   1      28.660  24.283  -4.791  0.00  0.00    -0.035 A 
HETATM    9  C   UNK N   1      27.869  23.313  -5.457  0.00  0.00     0.017 A 
HETATM   10  C   UNK N   1      26.548  23.613  -5.822  0.00  0.00    -0.037 A 
HETATM   11  C   UNK N   1      26.041  24.874  -5.542  0.00  0.00     0.017 A 
BRANCH   8  12
HETATM   12  C   UNK N   1      30.028  23.897  -4.219  0.00  0.00     0.069 C 
HETATM   13  C   UNK N   1      30.663  22.755  -4.999  0.00  0.00     0.036 C 
HETATM   14  C   UNK N   1      30.961  25.090  -4.337  0.00  0.00     0.036 C 
HETATM   15  C   UNK N   1      30.007  23.482  -2.807  0.00  0.00     0.073 C 
HETATM   16  N   UNK N   1      30.052  23.147  -1.698  0.00  0.00    -0.196 NA
ENDBRANCH   8  12
BRANCH  10  17
HETATM   17  C   UNK N   1      25.639  22.605  -6.482  0.00  0.00     0.188 C 
BRANCH  17  18
HETATM   18  N   UNK N   1      26.064  22.373  -7.869  0.00  0.00    -0.283 N 
HETATM   19  N   UNK N   1      26.404  23.322  -8.723  0.00  0.00    -0.293 N 
HETATM   20  C   UNK N   1      26.577  22.728  -9.918  0.00  0.00     0.198 A 
ATOM     21  HN  UNK N   1      26.513  24.315  -8.517  1.00  0.00     0.188 HD
HETATM   22  N   UNK N   1      26.350  21.399  -9.821  0.00  0.00    -0.346 N 
HETATM   23  C   UNK N   1      26.025  21.205  -8.526  0.00  0.00     0.201 A 
ATOM     24  HN  UNK N   1      26.411  20.700 -10.561  1.00  0.00     0.167 HD
ENDBRANCH  17  18
ENDBRANCH  10  17
ENDBRANCH   2   6
TORSDOF 4
ENDMDL
MODEL 5
REMARK VINA RESULT:      -6.1     18.582     22.135
REMARK  4 active torsions:
REMARK  status: ('A' for Active; 'I' for Inactive)
REMARK    1  A    between atoms: N_1  and  C_16 
REMARK    2  A    between atoms: C_8  and  C_10 
REMARK    3  A    between atoms: C_9  and  C_11 
REMARK    4  A    between atoms: C_13  and  C_16 
ROOT
HETATM    1  N   UNK N   1      38.656  10.104  10.239  0.00  0.00    -0.196 NA
HETATM    2  C   UNK N   1      37.859  12.484   9.477  0.00  0.00     0.069 C 
HETATM    3  C   UNK N   1      39.090  13.147   8.856  0.00  0.00     0.036 C 
HETATM    4  C   UNK N   1      36.830  12.325   8.388  0.00  0.00     0.036 C 
HETATM    5  C   UNK N   1      38.297  11.159   9.927  0.00  0.00     0.073 C 
ENDROOT
BRANCH   2   6
HETATM    6  C   UNK N   1      37.257  13.339  10.599  0.00  0.00    -0.035 A 
HETATM    7  C   UNK N   1      37.152  12.907  11.935  0.00  0.00     0.017 A 
HETATM    8  C   UNK N   1      36.486  13.702  12.909  0.00  0.00    -0.035 A 
HETATM    9  C   UNK N   1      35.900  14.927  12.502  0.00  0.00     0.017 A 
HETATM   10  C   UNK N   1      36.026  15.360  11.173  0.00  0.00    -0.037 A 
HETATM   11  C   UNK N   1      36.710  14.564  10.267  0.00  0.00     0.017 A 
BRANCH   8  12
HETATM   12  C   UNK N   1      36.520  13.322  14.392  0.00  0.00     0.069 C 
HETATM   13  C   UNK N   1      35.134  12.978  14.917  0.00  0.00     0.036 C 
HETATM   14  C   UNK N   1      37.380  12.081  14.559  0.00  0.00     0.036 C 
HETATM   15  C   UNK N   1      37.059  14.364  15.280  0.00  0.00     0.073 C 
HETATM   16  N   UNK N   1      37.476  15.147  16.027  0.00  0.00    -0.196 NA
ENDBRANCH   8  12
BRANCH  10  17
HETATM   17  C   UNK N   1      35.472  16.679  10.693  0.00  0.00     0.188 C 
BRANCH  17  18
HETATM   18  N   UNK N   1      34.281  16.456   9.863  0.00  0.00    -0.283 N 
HETATM   19  N   UNK N   1      33.369  15.527  10.087  0.00  0.00    -0.293 N 
HETATM   20  C   UNK N   1      32.532  15.540   9.033  0.00  0.00     0.198 A 
ATOM     21  HN  UNK N   1      33.310  14.916  10.901  1.00  0.00     0.188 HD
HETATM   22  N   UNK N   1      32.912  16.482   8.141  0.00  0.00    -0.346 N 
HETATM   23  C   UNK N   1      34.015  17.037   8.684  0.00  0.00     0.201 A 
ATOM     24  HN  UNK N   1      32.465  16.719   7.254  1.00  0.00     0.167 HD
ENDBRANCH  17  18
ENDBRANCH  10  17
ENDBRANCH   2   6
TORSDOF 4
ENDMDL
MODEL 6
REMARK VINA RESULT:      -6.1      2.808      4.075
REMARK  4 active torsions:
REMARK  status: ('A' for Active; 'I' for Inactive)
REMARK    1  A    between atoms: N_1  and  C_16 
REMARK    2  A    between atoms: C_8  and  C_10 
REMARK    3  A    between atoms: C_9  and  C_11 
REMARK    4  A    between atoms: C_13  and  C_16 
ROOT
HETATM    1  N   UNK N   1      32.554  19.954  -7.824  0.00  0.00    -0.196 NA
HETATM    2  C   UNK N   1      29.972  20.381  -7.993  0.00  0.00     0.069 C 
HETATM    3  C   UNK N   1      29.701  20.663  -9.472  0.00  0.00     0.036 C 
HETATM    4  C   UNK N   1      29.246  19.111  -7.632  0.00  0.00     0.036 C 
HETATM    5  C   UNK N   1      31.417  20.161  -7.881  0.00  0.00     0.073 C 
ENDROOT
BRANCH   2   6
HETATM    6  C   UNK N   1      29.457  21.511  -7.094  0.00  0.00    -0.035 A 
HETATM    7  C   UNK N   1      30.219  22.093  -6.063  0.00  0.00     0.017 A 
HETATM    8  C   UNK N   1      29.649  23.064  -5.193  0.00  0.00    -0.035 A 
HETATM    9  C   UNK N   1      28.286  23.413  -5.362  0.00  0.00     0.017 A 
HETATM   10  C   UNK N   1      27.538  22.843  -6.405  0.00  0.00    -0.037 A 
HETATM   11  C   UNK N   1      28.147  21.924  -7.246  0.00  0.00     0.017 A 
BRANCH   8  12
HETATM   12  C   UNK N   1      30.517  23.824  -4.185  0.00  0.00     0.069 C 
HETATM   13  C   UNK N   1      31.985  23.812  -4.584  0.00  0.00     0.036 C 
HETATM   14  C   UNK N   1      30.075  25.278  -4.158  0.00  0.00     0.036 C 
HETATM   15  C   UNK N   1      30.451  23.310  -2.808  0.00  0.00     0.073 C 
HETATM   16  N   UNK N   1      30.438  22.950  -1.706  0.00  0.00    -0.196 NA
ENDBRANCH   8  12
BRANCH  10  17
HETATM   17  C   UNK N   1      26.100  23.216  -6.670  0.00  0.00     0.188 C 
BRANCH  17  18
HETATM   18  N   UNK N   1      25.900  24.654  -6.444  0.00  0.00    -0.283 N 
HETATM   19  N   UNK N   1      25.171  25.170  -5.471  0.00  0.00    -0.293 N 
HETATM   20  C   UNK N   1      25.109  26.496  -5.693  0.00  0.00     0.198 A 
ATOM     21  HN  UNK N   1      24.738  24.662  -4.700  1.00  0.00     0.188 HD
HETATM   22  N   UNK N   1      25.802  26.821  -6.807  0.00  0.00    -0.346 N 
HETATM   23  C   UNK N   1      26.283  25.645  -7.261  0.00  0.00     0.201 A 
ATOM     24  HN  UNK N   1      25.932  27.748  -7.214  1.00  0.00     0.167 HD
ENDBRANCH  17  18
ENDBRANCH  10  17
ENDBRANCH   2   6
TORSDOF 4
ENDMDL
MODEL 7
REMARK VINA RESULT:      -6.1      1.597      4.584
REMARK  4 active torsions:
REMARK  status: ('A' for Active; 'I' for Inactive)
REMARK    1  A    between atoms: N_1  and  C_16 
REMARK    2  A    between atoms: C_8  and  C_10 
REMARK    3  A    between atoms: C_9  and  C_11 
REMARK    4  A    between atoms: C_13  and  C_16 
ROOT
HETATM    1  N   UNK N   1      30.258  21.419  -4.853  0.00  0.00    -0.196 NA
HETATM    2  C   UNK N   1      29.344  23.568  -3.661  0.00  0.00     0.069 C 
HETATM    3  C   UNK N   1      28.841  23.095  -2.296  0.00  0.00     0.036 C 
HETATM    4  C   UNK N   1      30.491  24.514  -3.419  0.00  0.00     0.036 C 
HETATM    5  C   UNK N   1      29.838  22.371  -4.347  0.00  0.00     0.073 C 
ENDROOT
BRANCH   2   6
HETATM    6  C   UNK N   1      28.254  24.311  -4.443  0.00  0.00    -0.035 A 
HETATM    7  C   UNK N   1      28.040  24.147  -5.825  0.00  0.00     0.017 A 
HETATM    8  C   UNK N   1      27.084  24.944  -6.515  0.00  0.00    -0.035 A 
HETATM    9  C   UNK N   1      26.371  25.932  -5.790  0.00  0.00     0.017 A 
HETATM   10  C   UNK N   1      26.575  26.075  -4.409  0.00  0.00    -0.037 A 
HETATM   11  C   UNK N   1      27.496  25.255  -3.775  0.00  0.00     0.017 A 
BRANCH   8  12
HETATM   12  C   UNK N   1      26.724  24.653  -7.975  0.00  0.00     0.069 C 
HETATM   13  C   UNK N   1      26.468  25.933  -8.757  0.00  0.00     0.036 C 
HETATM   14  C   UNK N   1      27.898  23.954  -8.638  0.00  0.00     0.036 C 
HETATM   15  C   UNK N   1      25.535  23.805  -8.157  0.00  0.00     0.073 C 
HETATM   16  N   UNK N   1      24.608  23.139  -8.360  0.00  0.00    -0.196 NA
ENDBRANCH   8  12
BRANCH  10  17
HETATM   17  C   UNK N   1      25.807  27.070  -3.574  0.00  0.00     0.188 C 
BRANCH  17  18
HETATM   18  N   UNK N   1      26.543  28.339  -3.494  0.00  0.00    -0.283 N 
HETATM   19  N   UNK N   1      27.138  28.799  -2.408  0.00  0.00    -0.293 N 
HETATM   20  C   UNK N   1      27.561  30.044  -2.693  0.00  0.00     0.198 A 
ATOM     21  HN  UNK N   1      27.254  28.305  -1.523  1.00  0.00     0.188 HD
HETATM   22  N   UNK N   1      27.236  30.374  -3.963  0.00  0.00    -0.346 N 
HETATM   23  C   UNK N   1      26.593  29.288  -4.440  0.00  0.00     0.201 A 
ATOM     24  HN  UNK N   1      27.433  31.248  -4.452  1.00  0.00     0.167 HD
ENDBRANCH  17  18
ENDBRANCH  10  17
ENDBRANCH   2   6
TORSDOF 4
ENDMDL
MODEL 8
REMARK VINA RESULT:      -6.0     19.473     22.942
REMARK  4 active torsions:
REMARK  status: ('A' for Active; 'I' for Inactive)
REMARK    1  A    between atoms: N_1  and  C_16 
REMARK    2  A    between atoms: C_8  and  C_10 
REMARK    3  A    between atoms: C_9  and  C_11 
REMARK    4  A    between atoms: C_13  and  C_16 
ROOT
HETATM    1  N   UNK N   1      35.841   9.206   8.818  0.00  0.00    -0.196 NA
HETATM    2  C   UNK N   1      34.752   9.896  11.102  0.00  0.00     0.069 C 
HETATM    3  C   UNK N   1      33.259  10.064  10.807  0.00  0.00     0.036 C 
HETATM    4  C   UNK N   1      34.897   8.754  12.073  0.00  0.00     0.036 C 
HETATM    5  C   UNK N   1      35.377   9.531   9.827  0.00  0.00     0.073 C 
ENDROOT
BRANCH   2   6
HETATM    6  C   UNK N   1      35.352  11.158  11.734  0.00  0.00    -0.035 A 
HETATM    7  C   UNK N   1      35.351  11.408  13.120  0.00  0.00     0.017 A 
HETATM    8  C   UNK N   1      35.826  12.645  13.638  0.00  0.00    -0.035 A 
HETATM    9  C   UNK N   1      36.273  13.637  12.730  0.00  0.00     0.017 A 
HETATM   10  C   UNK N   1      36.290  13.372  11.351  0.00  0.00    -0.037 A 
HETATM   11  C   UNK N   1      35.845  12.140  10.896  0.00  0.00     0.017 A 
BRANCH   8  12
HETATM   12  C   UNK N   1      35.990  12.856  15.147  0.00  0.00     0.069 C 
HETATM   13  C   UNK N   1      34.646  13.025  15.840  0.00  0.00     0.036 C 
HETATM   14  C   UNK N   1      36.647  11.623  15.744  0.00  0.00     0.036 C 
HETATM   15  C   UNK N   1      36.805  14.023  15.518  0.00  0.00     0.073 C 
HETATM   16  N   UNK N   1      37.439  14.928  15.870  0.00  0.00    -0.196 NA
ENDBRANCH   8  12
BRANCH  10  17
HETATM   17  C   UNK N   1      36.805  14.367  10.340  0.00  0.00     0.188 C 
BRANCH  17  18
HETATM   18  N   UNK N   1      35.764  15.355  10.026  0.00  0.00    -0.283 N 
HETATM   19  N   UNK N   1      34.987  15.319   8.958  0.00  0.00    -0.293 N 
HETATM   20  C   UNK N   1      34.282  16.465   8.950  0.00  0.00     0.198 A 
ATOM     21  HN  UNK N   1      34.932  14.567   8.271  1.00  0.00     0.188 HD
HETATM   22  N   UNK N   1      34.610  17.228  10.017  0.00  0.00    -0.346 N 
HETATM   23  C   UNK N   1      35.545  16.509  10.672  0.00  0.00     0.201 A 
ATOM     24  HN  UNK N   1      34.234  18.142  10.270  1.00  0.00     0.167 HD
ENDBRANCH  17  18
ENDBRANCH  10  17
ENDBRANCH   2   6
TORSDOF 4
ENDMDL
MODEL 9
REMARK VINA RESULT:      -5.9      1.625      4.850
REMARK  4 active torsions:
REMARK  status: ('A' for Active; 'I' for Inactive)
REMARK    1  A    between atoms: N_1  and  C_16 
REMARK    2  A    between atoms: C_8  and  C_10 
REMARK    3  A    between atoms: C_9  and  C_11 
REMARK    4  A    between atoms: C_13  and  C_16 
ROOT
HETATM    1  N   UNK N   1      32.440  22.274  -6.020  0.00  0.00    -0.196 NA
HETATM    2  C   UNK N   1      30.546  22.648  -4.245  0.00  0.00     0.069 C 
HETATM    3  C   UNK N   1      30.483  21.351  -3.436  0.00  0.00     0.036 C 
HETATM    4  C   UNK N   1      30.970  23.748  -3.308  0.00  0.00     0.036 C 
HETATM    5  C   UNK N   1      31.587  22.444  -5.256  0.00  0.00     0.073 C 
ENDROOT
BRANCH   2   6
HETATM    6  C   UNK N   1      29.181  23.013  -4.842  0.00  0.00    -0.035 A 
HETATM    7  C   UNK N   1      28.752  22.591  -6.115  0.00  0.00     0.017 A 
HETATM    8  C   UNK N   1      27.520  23.051  -6.659  0.00  0.00    -0.035 A 
HETATM    9  C   UNK N   1      26.745  23.969  -5.907  0.00  0.00     0.017 A 
HETATM   10  C   UNK N   1      27.170  24.370  -4.631  0.00  0.00    -0.037 A 
HETATM   11  C   UNK N   1      28.364  23.871  -4.131  0.00  0.00     0.017 A 
BRANCH   8  12
HETATM   12  C   UNK N   1      26.966  22.464  -7.961  0.00  0.00     0.069 C 
HETATM   13  C   UNK N   1      27.416  23.263  -9.175  0.00  0.00     0.036 C 
HETATM   14  C   UNK N   1      27.507  21.054  -8.130  0.00  0.00     0.036 C 
HETATM   15  C   UNK N   1      25.498  22.391  -8.026  0.00  0.00     0.073 C 
HETATM   16  N   UNK N   1      24.347  22.308  -8.132  0.00  0.00    -0.196 NA
ENDBRANCH   8  12
BRANCH  10  17
HETATM   17  C   UNK N   1      26.361  25.301  -3.761  0.00  0.00     0.188 C 
BRANCH  17  18
HETATM   18  N   UNK N   1      26.507  26.685  -4.231  0.00  0.00    -0.283 N 
HETATM   19  N   UNK N   1      27.585  27.173  -4.819  0.00  0.00    -0.293 N 
HETATM   20  C   UNK N   1      27.389  28.497  -4.954  0.00  0.00     0.198 A 
ATOM     21  HN  UNK N   1      28.408  26.647  -5.114  1.00  0.00     0.188 HD
HETATM   22  N   UNK N   1      26.184  28.850  -4.454  0.00  0.00    -0.346 N 
HETATM   23  C   UNK N   1      25.655  27.695  -4.002  0.00  0.00     0.201 A 
ATOM     24  HN  UNK N   1      25.768  29.782  -4.425  1.00  0.00     0.167 HD
ENDBRANCH  17  18
ENDBRANCH  10  17
ENDBRANCH   2   6
TORSDOF 4
ENDMDL
