MODEL 1
REMARK VINA RESULT:      -6.7      0.000      0.000
REMARK  12 active torsions:
REMARK  status: ('A' for Active; 'I' for Inactive)
REMARK    1  A    between atoms: O_6  and  C_10 
REMARK    2  A    between atoms: N_7  and  C_8 
REMARK    3  A    between atoms: N_7  and  C_11 
REMARK    4  A    between atoms: N_7  and  C_12 
REMARK    5  A    between atoms: C_8  and  C_9 
REMARK    6  A    between atoms: C_9  and  C_10 
REMARK    7  A    between atoms: C_10  and  C_13 
REMARK    8  A    between atoms: C_11  and  C_14 
REMARK    9  A    between atoms: C_12  and  C_15 
REMARK   10  A    between atoms: C_14  and  C_21 
REMARK   11  A    between atoms: C_15  and  C_22 
REMARK   12  A    between atoms: C_25  and  C_33 
ROOT
HETATM    1 Cl   UNK N   1      25.574  23.145  -8.084  0.00  0.00    -0.083 Cl
HETATM    2 Cl   UNK N   1      29.515  19.796  -9.747  0.00  0.00    -0.084 Cl
HETATM    3  C   UNK N   1      28.054  23.783  -4.449  0.00  0.00    -0.018 A 
HETATM    4  C   UNK N   1      29.307  23.160  -4.233  0.00  0.00    -0.016 A 
HETATM    5  C   UNK N   1      29.839  22.274  -5.215  0.00  0.00    -0.013 A 
HETATM    6  C   UNK N   1      27.360  23.521  -5.636  0.00  0.00     0.024 A 
HETATM    7  C   UNK N   1      29.117  22.032  -6.401  0.00  0.00    -0.011 A 
HETATM    8  C   UNK N   1      27.871  22.659  -6.612  0.00  0.00    -0.003 A 
HETATM    9  C   UNK N   1      30.034  23.369  -3.052  0.00  0.00     0.014 A 
HETATM   10  C   UNK N   1      31.062  21.630  -4.969  0.00  0.00     0.029 A 
HETATM   11  C   UNK N   1      31.759  21.841  -3.774  0.00  0.00     0.048 A 
HETATM   12  C   UNK N   1      29.616  21.152  -7.382  0.00  0.00     0.037 A 
HETATM   13  C   UNK N   1      31.242  22.720  -2.822  0.00  0.00     0.017 A 
HETATM   14  C   UNK N   1      27.139  22.402  -7.789  0.00  0.00     0.046 A 
HETATM   15  C   UNK N   1      28.886  20.903  -8.545  0.00  0.00     0.036 A 
HETATM   16  C   UNK N   1      27.654  21.523  -8.746  0.00  0.00     0.048 A 
ENDROOT
BRANCH   3  17
HETATM   17  C   UNK N   1      27.377  24.706  -3.445  0.00  0.00     0.153 C 
BRANCH  17  18
HETATM   18  O   UNK N   1      26.828  24.057  -2.338  0.00  0.00    -0.391 OA
HETATM   19  H   UNK N   1      25.928  23.700  -2.377  0.00  0.00     0.210 HD
ENDBRANCH  17  18
BRANCH  17  20
HETATM   20  C   UNK N   1      26.283  25.522  -4.122  0.00  0.00     0.067 C 
BRANCH  20  21
HETATM   21  C   UNK N   1      26.372  26.975  -3.700  0.00  0.00     0.275 C 
BRANCH  21  22
HETATM   22  N   UNK N   1      27.482  27.609  -4.400  0.00  0.00     0.088 N 
BRANCH  22  23
HETATM   23  C   UNK N   1      28.263  28.374  -3.438  0.00  0.00     0.272 C 
BRANCH  23  24
HETATM   24  C   UNK N   1      29.727  28.383  -3.841  0.00  0.00     0.030 C 
BRANCH  24  25
HETATM   25  C   UNK N   1      30.305  26.989  -3.703  0.00  0.00    -0.003 C 
HETATM   26  C   UNK N   1      30.792  26.489  -5.052  0.00  0.00     0.005 C 
ENDBRANCH  24  25
ENDBRANCH  23  24
ENDBRANCH  22  23
BRANCH  22  27
HETATM   27  C   UNK N   1      26.964  28.462  -5.473  0.00  0.00     0.272 C 
BRANCH  27  28
HETATM   28  C   UNK N   1      27.764  28.343  -6.767  0.00  0.00     0.030 C 
BRANCH  28  29
HETATM   29  C   UNK N   1      27.695  26.918  -7.262  0.00  0.00    -0.003 C 
HETATM   30  C   UNK N   1      26.265  26.585  -7.628  0.00  0.00     0.005 C 
ENDBRANCH  28  29
ENDBRANCH  27  28
ENDBRANCH  22  27
ENDBRANCH  21  22
ENDBRANCH  20  21
ENDBRANCH  17  20
ENDBRANCH   3  17
BRANCH  11  31
HETATM   31  C   UNK N   1      33.030  21.094  -3.507  0.00  0.00     0.417 C 
HETATM   32  F   UNK N   1      34.073  21.725  -4.161  0.00  0.00    -0.166 F 
HETATM   33  F   UNK N   1      32.946  19.789  -3.964  0.00  0.00    -0.166 F 
HETATM   34  F   UNK N   1      33.287  21.076  -2.150  0.00  0.00    -0.166 F 
ENDBRANCH  11  31
TORSDOF 12
ENDMDL
MODEL 2
REMARK VINA RESULT:      -6.5      0.876      2.231
REMARK  12 active torsions:
REMARK  status: ('A' for Active; 'I' for Inactive)
REMARK    1  A    between atoms: O_6  and  C_10 
REMARK    2  A    between atoms: N_7  and  C_8 
REMARK    3  A    between atoms: N_7  and  C_11 
REMARK    4  A    between atoms: N_7  and  C_12 
REMARK    5  A    between atoms: C_8  and  C_9 
REMARK    6  A    between atoms: C_9  and  C_10 
REMARK    7  A    between atoms: C_10  and  C_13 
REMARK    8  A    between atoms: C_11  and  C_14 
REMARK    9  A    between atoms: C_12  and  C_15 
REMARK   10  A    between atoms: C_14  and  C_21 
REMARK   11  A    between atoms: C_15  and  C_22 
REMARK   12  A    between atoms: C_25  and  C_33 
ROOT
HETATM    1 Cl   UNK N   1      25.666  23.085  -8.028  0.00  0.00    -0.083 Cl
HETATM    2 Cl   UNK N   1      29.489  19.583  -9.650  0.00  0.00    -0.084 Cl
HETATM    3  C   UNK N   1      28.233  23.781  -4.464  0.00  0.00    -0.018 A 
HETATM    4  C   UNK N   1      29.474  23.134  -4.251  0.00  0.00    -0.016 A 
HETATM    5  C   UNK N   1      29.964  22.202  -5.212  0.00  0.00    -0.013 A 
HETATM    6  C   UNK N   1      27.509  23.497  -5.628  0.00  0.00     0.024 A 
HETATM    7  C   UNK N   1      29.213  21.939  -6.375  0.00  0.00    -0.011 A 
HETATM    8  C   UNK N   1      27.979  22.590  -6.584  0.00  0.00    -0.003 A 
HETATM    9  C   UNK N   1      30.229  23.364  -3.092  0.00  0.00     0.014 A 
HETATM   10  C   UNK N   1      31.175  21.537  -4.968  0.00  0.00     0.029 A 
HETATM   11  C   UNK N   1      31.902  21.770  -3.794  0.00  0.00     0.048 A 
HETATM   12  C   UNK N   1      29.670  21.014  -7.336  0.00  0.00     0.037 A 
HETATM   13  C   UNK N   1      31.425  22.693  -2.863  0.00  0.00     0.017 A 
HETATM   14  C   UNK N   1      27.218  22.312  -7.737  0.00  0.00     0.046 A 
HETATM   15  C   UNK N   1      28.912  20.744  -8.475  0.00  0.00     0.036 A 
HETATM   16  C   UNK N   1      27.692  21.389  -8.674  0.00  0.00     0.048 A 
ENDROOT
BRANCH   3  17
HETATM   17  C   UNK N   1      27.598  24.754  -3.480  0.00  0.00     0.153 C 
BRANCH  17  18
HETATM   18  O   UNK N   1      26.337  24.375  -3.020  0.00  0.00    -0.391 OA
HETATM   19  H   UNK N   1      26.096  24.506  -2.090  0.00  0.00     0.210 HD
ENDBRANCH  17  18
BRANCH  17  20
HETATM   20  C   UNK N   1      27.495  26.145  -4.094  0.00  0.00     0.067 C 
BRANCH  20  21
HETATM   21  C   UNK N   1      28.844  26.835  -4.065  0.00  0.00     0.275 C 
BRANCH  21  22
HETATM   22  N   UNK N   1      28.964  27.700  -5.230  0.00  0.00     0.088 N 
BRANCH  22  23
HETATM   23  C   UNK N   1      27.695  27.698  -5.947  0.00  0.00     0.272 C 
BRANCH  23  24
HETATM   24  C   UNK N   1      27.938  27.612  -7.443  0.00  0.00     0.030 C 
BRANCH  24  25
HETATM   25  C   UNK N   1      26.963  26.634  -8.066  0.00  0.00    -0.003 C 
HETATM   26  C   UNK N   1      25.735  26.488  -7.185  0.00  0.00     0.005 C 
ENDBRANCH  24  25
ENDBRANCH  23  24
ENDBRANCH  22  23
BRANCH  22  27
HETATM   27  C   UNK N   1      30.063  27.234  -6.080  0.00  0.00     0.272 C 
BRANCH  27  28
HETATM   28  C   UNK N   1      31.003  26.271  -5.364  0.00  0.00     0.030 C 
BRANCH  28  29
HETATM   29  C   UNK N   1      31.573  25.297  -6.368  0.00  0.00    -0.003 C 
HETATM   30  C   UNK N   1      30.591  25.122  -7.506  0.00  0.00     0.005 C 
ENDBRANCH  28  29
ENDBRANCH  27  28
ENDBRANCH  22  27
ENDBRANCH  21  22
ENDBRANCH  20  21
ENDBRANCH  17  20
ENDBRANCH   3  17
BRANCH  11  31
HETATM   31  C   UNK N   1      33.159  21.000  -3.525  0.00  0.00     0.417 C 
HETATM   32  F   UNK N   1      34.209  21.602  -4.194  0.00  0.00    -0.166 F 
HETATM   33  F   UNK N   1      33.045  19.691  -3.967  0.00  0.00    -0.166 F 
HETATM   34  F   UNK N   1      33.424  20.994  -2.170  0.00  0.00    -0.166 F 
ENDBRANCH  11  31
TORSDOF 12
ENDMDL
MODEL 3
REMARK VINA RESULT:      -6.3      4.070      6.044
REMARK  12 active torsions:
REMARK  status: ('A' for Active; 'I' for Inactive)
REMARK    1  A    between atoms: O_6  and  C_10 
REMARK    2  A    between atoms: N_7  and  C_8 
REMARK    3  A    between atoms: N_7  and  C_11 
REMARK    4  A    between atoms: N_7  and  C_12 
REMARK    5  A    between atoms: C_8  and  C_9 
REMARK    6  A    between atoms: C_9  and  C_10 
REMARK    7  A    between atoms: C_10  and  C_13 
REMARK    8  A    between atoms: C_11  and  C_14 
REMARK    9  A    between atoms: C_12  and  C_15 
REMARK   10  A    between atoms: C_14  and  C_21 
REMARK   11  A    between atoms: C_15  and  C_22 
REMARK   12  A    between atoms: C_25  and  C_33 
ROOT
HETATM    1 Cl   UNK N   1      29.301  20.185  -7.474  0.00  0.00    -0.083 Cl
HETATM    2 Cl   UNK N   1      31.480  22.415  -3.025  0.00  0.00    -0.084 Cl
HETATM    3  C   UNK N   1      26.433  23.583  -7.415  0.00  0.00    -0.018 A 
HETATM    4  C   UNK N   1      26.452  24.611  -6.441  0.00  0.00    -0.016 A 
HETATM    5  C   UNK N   1      27.433  24.591  -5.407  0.00  0.00    -0.013 A 
HETATM    6  C   UNK N   1      27.391  22.564  -7.347  0.00  0.00     0.024 A 
HETATM    7  C   UNK N   1      28.386  23.554  -5.367  0.00  0.00    -0.011 A 
HETATM    8  C   UNK N   1      28.364  22.535  -6.342  0.00  0.00    -0.003 A 
HETATM    9  C   UNK N   1      25.503  25.642  -6.447  0.00  0.00     0.014 A 
HETATM   10  C   UNK N   1      27.414  25.593  -4.424  0.00  0.00     0.029 A 
HETATM   11  C   UNK N   1      26.444  26.602  -4.441  0.00  0.00     0.048 A 
HETATM   12  C   UNK N   1      29.359  23.506  -4.349  0.00  0.00     0.037 A 
HETATM   13  C   UNK N   1      25.495  26.624  -5.464  0.00  0.00     0.017 A 
HETATM   14  C   UNK N   1      29.304  21.486  -6.291  0.00  0.00     0.046 A 
HETATM   15  C   UNK N   1      30.287  22.465  -4.305  0.00  0.00     0.036 A 
HETATM   16  C   UNK N   1      30.258  21.460  -5.270  0.00  0.00     0.048 A 
ENDROOT
BRANCH   3  17
HETATM   17  C   UNK N   1      25.401  23.484  -8.529  0.00  0.00     0.153 C 
BRANCH  17  18
HETATM   18  O   UNK N   1      24.630  22.321  -8.505  0.00  0.00    -0.391 OA
HETATM   19  H   UNK N   1      23.995  22.170  -7.789  0.00  0.00     0.210 HD
ENDBRANCH  17  18
BRANCH  17  20
HETATM   20  C   UNK N   1      26.073  23.595  -9.892  0.00  0.00     0.067 C 
BRANCH  20  21
HETATM   21  C   UNK N   1      26.313  25.049 -10.244  0.00  0.00     0.275 C 
BRANCH  21  22
HETATM   22  N   UNK N   1      27.630  25.183 -10.851  0.00  0.00     0.088 N 
BRANCH  22  23
HETATM   23  C   UNK N   1      28.379  23.956 -10.618  0.00  0.00     0.272 C 
BRANCH  23  24
HETATM   24  C   UNK N   1      29.852  24.270 -10.426  0.00  0.00     0.030 C 
BRANCH  24  25
HETATM   25  C   UNK N   1      30.411  23.434  -9.292  0.00  0.00    -0.003 C 
HETATM   26  C   UNK N   1      30.890  24.333  -8.166  0.00  0.00     0.005 C 
ENDBRANCH  24  25
ENDBRANCH  23  24
ENDBRANCH  22  23
BRANCH  22  27
HETATM   27  C   UNK N   1      28.317  26.349 -10.288  0.00  0.00     0.272 C 
BRANCH  27  28
HETATM   28  C   UNK N   1      27.595  26.940  -9.082  0.00  0.00     0.030 C 
BRANCH  28  29
HETATM   29  C   UNK N   1      28.598  27.196  -7.982  0.00  0.00    -0.003 C 
HETATM   30  C   UNK N   1      28.187  28.430  -7.208  0.00  0.00     0.005 C 
ENDBRANCH  28  29
ENDBRANCH  27  28
ENDBRANCH  22  27
ENDBRANCH  21  22
ENDBRANCH  20  21
ENDBRANCH  17  20
ENDBRANCH   3  17
BRANCH  11  31
HETATM   31  C   UNK N   1      26.405  27.623  -3.346  0.00  0.00     0.417 C 
HETATM   32  F   UNK N   1      25.936  27.028  -2.188  0.00  0.00    -0.166 F 
HETATM   33  F   UNK N   1      25.563  28.674  -3.674  0.00  0.00    -0.166 F 
HETATM   34  F   UNK N   1      27.674  28.121  -3.122  0.00  0.00    -0.166 F 
ENDBRANCH  11  31
TORSDOF 12
ENDMDL
MODEL 4
REMARK VINA RESULT:      -6.2      4.387      7.134
REMARK  12 active torsions:
REMARK  status: ('A' for Active; 'I' for Inactive)
REMARK    1  A    between atoms: O_6  and  C_10 
REMARK    2  A    between atoms: N_7  and  C_8 
REMARK    3  A    between atoms: N_7  and  C_11 
REMARK    4  A    between atoms: N_7  and  C_12 
REMARK    5  A    between atoms: C_8  and  C_9 
REMARK    6  A    between atoms: C_9  and  C_10 
REMARK    7  A    between atoms: C_10  and  C_13 
REMARK    8  A    between atoms: C_11  and  C_14 
REMARK    9  A    between atoms: C_12  and  C_15 
REMARK   10  A    between atoms: C_14  and  C_21 
REMARK   11  A    between atoms: C_15  and  C_22 
REMARK   12  A    between atoms: C_25  and  C_33 
ROOT
HETATM    1 Cl   UNK N   1      34.272  24.761  -5.096  0.00  0.00    -0.083 Cl
HETATM    2 Cl   UNK N   1      32.053  28.927  -7.785  0.00  0.00    -0.084 Cl
HETATM    3  C   UNK N   1      30.172  23.930  -3.591  0.00  0.00    -0.018 A 
HETATM    4  C   UNK N   1      29.036  24.700  -3.938  0.00  0.00    -0.016 A 
HETATM    5  C   UNK N   1      29.174  25.811  -4.821  0.00  0.00    -0.013 A 
HETATM    6  C   UNK N   1      31.417  24.272  -4.132  0.00  0.00     0.024 A 
HETATM    7  C   UNK N   1      30.440  26.129  -5.351  0.00  0.00    -0.011 A 
HETATM    8  C   UNK N   1      31.567  25.356  -5.003  0.00  0.00    -0.003 A 
HETATM    9  C   UNK N   1      27.769  24.417  -3.408  0.00  0.00     0.014 A 
HETATM   10  C   UNK N   1      28.047  26.592  -5.123  0.00  0.00     0.029 A 
HETATM   11  C   UNK N   1      26.797  26.299  -4.566  0.00  0.00     0.048 A 
HETATM   12  C   UNK N   1      30.605  27.229  -6.217  0.00  0.00     0.037 A 
HETATM   13  C   UNK N   1      26.664  25.202  -3.714  0.00  0.00     0.017 A 
HETATM   14  C   UNK N   1      32.838  25.685  -5.517  0.00  0.00     0.046 A 
HETATM   15  C   UNK N   1      31.865  27.549  -6.722  0.00  0.00     0.036 A 
HETATM   16  C   UNK N   1      32.976  26.782  -6.373  0.00  0.00     0.048 A 
ENDROOT
BRANCH   3  17
HETATM   17  C   UNK N   1      30.142  22.756  -2.621  0.00  0.00     0.153 C 
BRANCH  17  18
HETATM   18  O   UNK N   1      30.295  23.107  -1.280  0.00  0.00    -0.391 OA
HETATM   19  H   UNK N   1      30.891  22.600  -0.707  0.00  0.00     0.210 HD
ENDBRANCH  17  18
BRANCH  17  20
HETATM   20  C   UNK N   1      31.213  21.736  -2.984  0.00  0.00     0.067 C 
BRANCH  20  21
HETATM   21  C   UNK N   1      30.643  20.678  -3.907  0.00  0.00     0.275 C 
BRANCH  21  22
HETATM   22  N   UNK N   1      31.565  20.462  -5.014  0.00  0.00     0.088 N 
BRANCH  22  23
HETATM   23  C   UNK N   1      32.910  20.812  -4.577  0.00  0.00     0.272 C 
BRANCH  23  24
HETATM   24  C   UNK N   1      33.730  19.556  -4.346  0.00  0.00     0.030 C 
BRANCH  24  25
HETATM   25  C   UNK N   1      35.188  19.831  -4.656  0.00  0.00    -0.003 C 
HETATM   26  C   UNK N   1      35.609  21.158  -4.051  0.00  0.00     0.005 C 
ENDBRANCH  24  25
ENDBRANCH  23  24
ENDBRANCH  22  23
BRANCH  22  27
HETATM   27  C   UNK N   1      31.148  21.263  -6.168  0.00  0.00     0.272 C 
BRANCH  27  28
HETATM   28  C   UNK N   1      29.633  21.368  -6.304  0.00  0.00     0.030 C 
BRANCH  28  29
HETATM   29  C   UNK N   1      29.287  22.668  -6.992  0.00  0.00    -0.003 C 
HETATM   30  C   UNK N   1      27.797  22.909  -6.881  0.00  0.00     0.005 C 
ENDBRANCH  28  29
ENDBRANCH  27  28
ENDBRANCH  22  27
ENDBRANCH  21  22
ENDBRANCH  20  21
ENDBRANCH  17  20
ENDBRANCH   3  17
BRANCH  11  31
HETATM   31  C   UNK N   1      25.622  27.184  -4.853  0.00  0.00     0.417 C 
HETATM   32  F   UNK N   1      24.604  26.423  -5.399  0.00  0.00    -0.166 F 
HETATM   33  F   UNK N   1      25.960  28.183  -5.753  0.00  0.00    -0.166 F 
HETATM   34  F   UNK N   1      25.179  27.769  -3.683  0.00  0.00    -0.166 F 
ENDBRANCH  11  31
TORSDOF 12
ENDMDL
MODEL 5
REMARK VINA RESULT:      -6.2     11.452     14.409
REMARK  12 active torsions:
REMARK  status: ('A' for Active; 'I' for Inactive)
REMARK    1  A    between atoms: O_6  and  C_10 
REMARK    2  A    between atoms: N_7  and  C_8 
REMARK    3  A    between atoms: N_7  and  C_11 
REMARK    4  A    between atoms: N_7  and  C_12 
REMARK    5  A    between atoms: C_8  and  C_9 
REMARK    6  A    between atoms: C_9  and  C_10 
REMARK    7  A    between atoms: C_10  and  C_13 
REMARK    8  A    between atoms: C_11  and  C_14 
REMARK    9  A    between atoms: C_12  and  C_15 
REMARK   10  A    between atoms: C_14  and  C_21 
REMARK   11  A    between atoms: C_15  and  C_22 
REMARK   12  A    between atoms: C_25  and  C_33 
ROOT
HETATM    1 Cl   UNK N   1      26.540  21.579   7.455  0.00  0.00    -0.083 Cl
HETATM    2 Cl   UNK N   1      25.165  20.500   2.312  0.00  0.00    -0.084 Cl
HETATM    3  C   UNK N   1      28.944  17.843   7.288  0.00  0.00    -0.018 A 
HETATM    4  C   UNK N   1      29.032  17.015   6.142  0.00  0.00    -0.016 A 
HETATM    5  C   UNK N   1      28.325  17.368   4.955  0.00  0.00    -0.013 A 
HETATM    6  C   UNK N   1      28.167  19.005   7.229  0.00  0.00     0.024 A 
HETATM    7  C   UNK N   1      27.553  18.546   4.927  0.00  0.00    -0.011 A 
HETATM    8  C   UNK N   1      27.473  19.368   6.070  0.00  0.00    -0.003 A 
HETATM    9  C   UNK N   1      29.777  15.827   6.153  0.00  0.00     0.014 A 
HETATM   10  C   UNK N   1      28.387  16.516   3.841  0.00  0.00     0.029 A 
HETATM   11  C   UNK N   1      29.123  15.327   3.883  0.00  0.00     0.048 A 
HETATM   12  C   UNK N   1      26.837  18.911   3.769  0.00  0.00     0.037 A 
HETATM   13  C   UNK N   1      29.824  14.993   5.043  0.00  0.00     0.017 A 
HETATM   14  C   UNK N   1      26.684  20.536   6.048  0.00  0.00     0.046 A 
HETATM   15  C   UNK N   1      26.058  20.069   3.754  0.00  0.00     0.036 A 
HETATM   16  C   UNK N   1      25.981  20.876   4.888  0.00  0.00     0.048 A 
ENDROOT
BRANCH   3  17
HETATM   17  C   UNK N   1      29.618  17.532   8.617  0.00  0.00     0.153 C 
BRANCH  17  18
HETATM   18  O   UNK N   1      29.022  18.134   9.725  0.00  0.00    -0.391 OA
HETATM   19  H   UNK N   1      29.477  18.143  10.582  0.00  0.00     0.210 HD
ENDBRANCH  17  18
BRANCH  17  20
HETATM   20  C   UNK N   1      31.088  17.931   8.577  0.00  0.00     0.067 C 
BRANCH  20  21
HETATM   21  C   UNK N   1      31.970  16.715   8.775  0.00  0.00     0.275 C 
BRANCH  21  22
HETATM   22  N   UNK N   1      33.233  16.921   8.079  0.00  0.00     0.088 N 
BRANCH  22  23
HETATM   23  C   UNK N   1      32.960  17.550   6.794  0.00  0.00     0.272 C 
BRANCH  23  24
HETATM   24  C   UNK N   1      33.883  16.986   5.728  0.00  0.00     0.030 C 
BRANCH  24  25
HETATM   25  C   UNK N   1      33.077  16.597   4.505  0.00  0.00    -0.003 C 
HETATM   26  C   UNK N   1      32.187  17.750   4.077  0.00  0.00     0.005 C 
ENDBRANCH  24  25
ENDBRANCH  23  24
ENDBRANCH  22  23
BRANCH  22  27
HETATM   27  C   UNK N   1      33.921  15.638   7.916  0.00  0.00     0.272 C 
BRANCH  27  28
HETATM   28  C   UNK N   1      34.319  15.001   9.243  0.00  0.00     0.030 C 
BRANCH  28  29
HETATM   29  C   UNK N   1      35.609  15.624   9.723  0.00  0.00    -0.003 C 
HETATM   30  C   UNK N   1      35.330  16.466  10.949  0.00  0.00     0.005 C 
ENDBRANCH  28  29
ENDBRANCH  27  28
ENDBRANCH  22  27
ENDBRANCH  21  22
ENDBRANCH  20  21
ENDBRANCH  17  20
ENDBRANCH   3  17
BRANCH  11  31
HETATM   31  C   UNK N   1      29.122  14.403   2.704  0.00  0.00     0.417 C 
HETATM   32  F   UNK N   1      28.730  15.105   1.578  0.00  0.00    -0.166 F 
HETATM   33  F   UNK N   1      28.242  13.350   2.897  0.00  0.00    -0.166 F 
HETATM   34  F   UNK N   1      30.391  13.894   2.505  0.00  0.00    -0.166 F 
ENDBRANCH  11  31
TORSDOF 12
ENDMDL
MODEL 6
REMARK VINA RESULT:      -6.1      4.448      7.227
REMARK  12 active torsions:
REMARK  status: ('A' for Active; 'I' for Inactive)
REMARK    1  A    between atoms: O_6  and  C_10 
REMARK    2  A    between atoms: N_7  and  C_8 
REMARK    3  A    between atoms: N_7  and  C_11 
REMARK    4  A    between atoms: N_7  and  C_12 
REMARK    5  A    between atoms: C_8  and  C_9 
REMARK    6  A    between atoms: C_9  and  C_10 
REMARK    7  A    between atoms: C_10  and  C_13 
REMARK    8  A    between atoms: C_11  and  C_14 
REMARK    9  A    between atoms: C_12  and  C_15 
REMARK   10  A    between atoms: C_14  and  C_21 
REMARK   11  A    between atoms: C_15  and  C_22 
REMARK   12  A    between atoms: C_25  and  C_33 
ROOT
HETATM    1 Cl   UNK N   1      34.393  25.227  -4.893  0.00  0.00    -0.083 Cl
HETATM    2 Cl   UNK N   1      32.067  29.468  -7.364  0.00  0.00    -0.084 Cl
HETATM    3  C   UNK N   1      30.286  24.087  -3.625  0.00  0.00    -0.018 A 
HETATM    4  C   UNK N   1      29.126  24.826  -3.964  0.00  0.00    -0.016 A 
HETATM    5  C   UNK N   1      29.240  26.005  -4.757  0.00  0.00    -0.013 A 
HETATM    6  C   UNK N   1      31.532  24.529  -4.087  0.00  0.00     0.024 A 
HETATM    7  C   UNK N   1      30.508  26.422  -5.209  0.00  0.00    -0.011 A 
HETATM    8  C   UNK N   1      31.659  25.681  -4.871  0.00  0.00    -0.003 A 
HETATM    9  C   UNK N   1      27.856  24.442  -3.509  0.00  0.00     0.014 A 
HETATM   10  C   UNK N   1      28.087  26.750  -5.049  0.00  0.00     0.029 A 
HETATM   11  C   UNK N   1      26.833  26.356  -4.568  0.00  0.00     0.048 A 
HETATM   12  C   UNK N   1      30.649  27.590  -5.985  0.00  0.00     0.037 A 
HETATM   13  C   UNK N   1      26.725  25.193  -3.804  0.00  0.00     0.017 A 
HETATM   14  C   UNK N   1      32.930  26.109  -5.306  0.00  0.00     0.046 A 
HETATM   15  C   UNK N   1      31.909  28.008  -6.412  0.00  0.00     0.036 A 
HETATM   16  C   UNK N   1      33.044  27.272  -6.073  0.00  0.00     0.048 A 
ENDROOT
BRANCH   3  17
HETATM   17  C   UNK N   1      30.279  22.845  -2.746  0.00  0.00     0.153 C 
BRANCH  17  18
HETATM   18  O   UNK N   1      30.466  23.095  -1.386  0.00  0.00    -0.391 OA
HETATM   19  H   UNK N   1      29.713  23.341  -0.826  0.00  0.00     0.210 HD
ENDBRANCH  17  18
BRANCH  17  20
HETATM   20  C   UNK N   1      31.342  21.856  -3.209  0.00  0.00     0.067 C 
BRANCH  20  21
HETATM   21  C   UNK N   1      30.719  20.783  -4.079  0.00  0.00     0.275 C 
BRANCH  21  22
HETATM   22  N   UNK N   1      31.106  21.008  -5.466  0.00  0.00     0.088 N 
BRANCH  22  23
HETATM   23  C   UNK N   1      29.942  20.799  -6.316  0.00  0.00     0.272 C 
BRANCH  23  24
HETATM   24  C   UNK N   1      29.064  22.038  -6.316  0.00  0.00     0.030 C 
BRANCH  24  25
HETATM   25  C   UNK N   1      29.703  23.119  -7.165  0.00  0.00    -0.003 C 
HETATM   26  C   UNK N   1      28.637  24.049  -7.717  0.00  0.00     0.005 C 
ENDBRANCH  24  25
ENDBRANCH  23  24
ENDBRANCH  22  23
BRANCH  22  27
HETATM   27  C   UNK N   1      32.203  20.105  -5.824  0.00  0.00     0.272 C 
BRANCH  27  28
HETATM   28  C   UNK N   1      33.287  20.782  -6.655  0.00  0.00     0.030 C 
BRANCH  28  29
HETATM   29  C   UNK N   1      33.277  22.265  -6.367  0.00  0.00    -0.003 C 
HETATM   30  C   UNK N   1      33.355  23.027  -7.672  0.00  0.00     0.005 C 
ENDBRANCH  28  29
ENDBRANCH  27  28
ENDBRANCH  22  27
ENDBRANCH  21  22
ENDBRANCH  20  21
ENDBRANCH  17  20
ENDBRANCH   3  17
BRANCH  11  31
HETATM   31  C   UNK N   1      25.627  27.202  -4.839  0.00  0.00     0.417 C 
HETATM   32  F   UNK N   1      24.638  26.413  -5.400  0.00  0.00    -0.166 F 
HETATM   33  F   UNK N   1      25.926  28.228  -5.721  0.00  0.00    -0.166 F 
HETATM   34  F   UNK N   1      25.161  27.747  -3.659  0.00  0.00    -0.166 F 
ENDBRANCH  11  31
TORSDOF 12
ENDMDL
MODEL 7
REMARK VINA RESULT:      -6.1     13.535     15.705
REMARK  12 active torsions:
REMARK  status: ('A' for Active; 'I' for Inactive)
REMARK    1  A    between atoms: O_6  and  C_10 
REMARK    2  A    between atoms: N_7  and  C_8 
REMARK    3  A    between atoms: N_7  and  C_11 
REMARK    4  A    between atoms: N_7  and  C_12 
REMARK    5  A    between atoms: C_8  and  C_9 
REMARK    6  A    between atoms: C_9  and  C_10 
REMARK    7  A    between atoms: C_10  and  C_13 
REMARK    8  A    between atoms: C_11  and  C_14 
REMARK    9  A    between atoms: C_12  and  C_15 
REMARK   10  A    between atoms: C_14  and  C_21 
REMARK   11  A    between atoms: C_15  and  C_22 
REMARK   12  A    between atoms: C_25  and  C_33 
ROOT
HETATM    1 Cl   UNK N   1      21.849  13.478   9.576  0.00  0.00    -0.083 Cl
HETATM    2 Cl   UNK N   1      17.811  17.031   8.812  0.00  0.00    -0.084 Cl
HETATM    3  C   UNK N   1      23.889  15.516   6.191  0.00  0.00    -0.018 A 
HETATM    4  C   UNK N   1      23.338  16.615   5.488  0.00  0.00    -0.016 A 
HETATM    5  C   UNK N   1      22.060  17.128   5.860  0.00  0.00    -0.013 A 
HETATM    6  C   UNK N   1      23.166  14.955   7.251  0.00  0.00     0.024 A 
HETATM    7  C   UNK N   1      21.359  16.543   6.933  0.00  0.00    -0.011 A 
HETATM    8  C   UNK N   1      21.914  15.451   7.631  0.00  0.00    -0.003 A 
HETATM    9  C   UNK N   1      24.007  17.201   4.404  0.00  0.00     0.014 A 
HETATM   10  C   UNK N   1      21.508  18.190   5.128  0.00  0.00     0.029 A 
HETATM   11  C   UNK N   1      22.188  18.746   4.038  0.00  0.00     0.048 A 
HETATM   12  C   UNK N   1      20.089  17.025   7.313  0.00  0.00     0.037 A 
HETATM   13  C   UNK N   1      23.445  18.249   3.687  0.00  0.00     0.017 A 
HETATM   14  C   UNK N   1      21.204  14.853   8.691  0.00  0.00     0.046 A 
HETATM   15  C   UNK N   1      19.392  16.429   8.363  0.00  0.00     0.036 A 
HETATM   16  C   UNK N   1      19.945  15.348   9.048  0.00  0.00     0.048 A 
ENDROOT
BRANCH   3  17
HETATM   17  C   UNK N   1      25.219  14.863   5.844  0.00  0.00     0.153 C 
BRANCH  17  18
HETATM   18  O   UNK N   1      25.212  13.469   5.889  0.00  0.00    -0.391 OA
HETATM   19  H   UNK N   1      25.096  12.954   5.076  0.00  0.00     0.210 HD
ENDBRANCH  17  18
BRANCH  17  20
HETATM   20  C   UNK N   1      26.321  15.374   6.764  0.00  0.00     0.067 C 
BRANCH  20  21
HETATM   21  C   UNK N   1      27.460  15.956   5.951  0.00  0.00     0.275 C 
BRANCH  21  22
HETATM   22  N   UNK N   1      27.414  17.409   6.034  0.00  0.00     0.088 N 
BRANCH  22  23
HETATM   23  C   UNK N   1      27.542  17.959   4.691  0.00  0.00     0.272 C 
BRANCH  23  24
HETATM   24  C   UNK N   1      27.891  19.435   4.760  0.00  0.00     0.030 C 
BRANCH  24  25
HETATM   25  C   UNK N   1      26.622  20.257   4.866  0.00  0.00    -0.003 C 
HETATM   26  C   UNK N   1      26.764  21.298   5.963  0.00  0.00     0.005 C 
ENDBRANCH  24  25
ENDBRANCH  23  24
ENDBRANCH  22  23
BRANCH  22  27
HETATM   27  C   UNK N   1      28.483  17.886   6.916  0.00  0.00     0.272 C 
BRANCH  27  28
HETATM   28  C   UNK N   1      27.962  18.467   8.226  0.00  0.00     0.030 C 
BRANCH  28  29
HETATM   29  C   UNK N   1      28.813  17.960   9.366  0.00  0.00    -0.003 C 
HETATM   30  C   UNK N   1      30.091  18.768   9.432  0.00  0.00     0.005 C 
ENDBRANCH  28  29
ENDBRANCH  27  28
ENDBRANCH  22  27
ENDBRANCH  21  22
ENDBRANCH  20  21
ENDBRANCH  17  20
ENDBRANCH   3  17
BRANCH  11  31
HETATM   31  C   UNK N   1      21.551  19.836   3.232  0.00  0.00     0.417 C 
HETATM   32  F   UNK N   1      22.483  20.830   2.998  0.00  0.00    -0.166 F 
HETATM   33  F   UNK N   1      20.474  20.389   3.907  0.00  0.00    -0.166 F 
HETATM   34  F   UNK N   1      21.109  19.330   2.025  0.00  0.00    -0.166 F 
ENDBRANCH  11  31
TORSDOF 12
ENDMDL
MODEL 8
REMARK VINA RESULT:      -6.0      2.674      3.703
REMARK  12 active torsions:
REMARK  status: ('A' for Active; 'I' for Inactive)
REMARK    1  A    between atoms: O_6  and  C_10 
REMARK    2  A    between atoms: N_7  and  C_8 
REMARK    3  A    between atoms: N_7  and  C_11 
REMARK    4  A    between atoms: N_7  and  C_12 
REMARK    5  A    between atoms: C_8  and  C_9 
REMARK    6  A    between atoms: C_9  and  C_10 
REMARK    7  A    between atoms: C_10  and  C_13 
REMARK    8  A    between atoms: C_11  and  C_14 
REMARK    9  A    between atoms: C_12  and  C_15 
REMARK   10  A    between atoms: C_14  and  C_21 
REMARK   11  A    between atoms: C_15  and  C_22 
REMARK   12  A    between atoms: C_25  and  C_33 
ROOT
HETATM    1 Cl   UNK N   1      25.286  25.867  -9.959  0.00  0.00    -0.083 Cl
HETATM    2 Cl   UNK N   1      24.813  20.988  -7.617  0.00  0.00    -0.084 Cl
HETATM    3  C   UNK N   1      28.264  26.776  -6.784  0.00  0.00    -0.018 A 
HETATM    4  C   UNK N   1      28.639  25.859  -5.772  0.00  0.00    -0.016 A 
HETATM    5  C   UNK N   1      28.052  24.561  -5.737  0.00  0.00    -0.013 A 
HETATM    6  C   UNK N   1      27.324  26.383  -7.744  0.00  0.00     0.024 A 
HETATM    7  C   UNK N   1      27.110  24.194  -6.719  0.00  0.00    -0.011 A 
HETATM    8  C   UNK N   1      26.744  25.110  -7.727  0.00  0.00    -0.003 A 
HETATM    9  C   UNK N   1      29.558  26.208  -4.773  0.00  0.00     0.014 A 
HETATM   10  C   UNK N   1      28.401  23.677  -4.704  0.00  0.00     0.029 A 
HETATM   11  C   UNK N   1      29.308  24.056  -3.707  0.00  0.00     0.048 A 
HETATM   12  C   UNK N   1      26.507  22.919  -6.700  0.00  0.00     0.037 A 
HETATM   13  C   UNK N   1      29.890  25.323  -3.754  0.00  0.00     0.017 A 
HETATM   14  C   UNK N   1      25.786  24.751  -8.696  0.00  0.00     0.046 A 
HETATM   15  C   UNK N   1      25.561  22.571  -7.664  0.00  0.00     0.036 A 
HETATM   16  C   UNK N   1      25.201  23.482  -8.656  0.00  0.00     0.048 A 
ENDROOT
BRANCH   3  17
HETATM   17  C   UNK N   1      28.793  28.200  -6.882  0.00  0.00     0.153 C 
BRANCH  17  18
HETATM   18  O   UNK N   1      30.055  28.391  -6.319  0.00  0.00    -0.391 OA
HETATM   19  H   UNK N   1      30.144  28.596  -5.375  0.00  0.00     0.210 HD
ENDBRANCH  17  18
BRANCH  17  20
HETATM   20  C   UNK N   1      27.819  29.178  -6.237  0.00  0.00     0.067 C 
BRANCH  20  21
HETATM   21  C   UNK N   1      28.426  29.778  -4.985  0.00  0.00     0.275 C 
BRANCH  21  22
HETATM   22  N   UNK N   1      27.403  29.866  -3.952  0.00  0.00     0.088 N 
BRANCH  22  23
HETATM   23  C   UNK N   1      28.013  29.568  -2.663  0.00  0.00     0.272 C 
BRANCH  23  24
HETATM   24  C   UNK N   1      29.517  29.422  -2.817  0.00  0.00     0.030 C 
BRANCH  24  25
HETATM   25  C   UNK N   1      30.187  29.565  -1.465  0.00  0.00    -0.003 C 
HETATM   26  C   UNK N   1      31.651  29.178  -1.564  0.00  0.00     0.005 C 
ENDBRANCH  24  25
ENDBRANCH  23  24
ENDBRANCH  22  23
BRANCH  22  27
HETATM   27  C   UNK N   1      26.312  28.936  -4.258  0.00  0.00     0.272 C 
BRANCH  27  28
HETATM   28  C   UNK N   1      26.361  27.662  -3.422  0.00  0.00     0.030 C 
BRANCH  28  29
HETATM   29  C   UNK N   1      25.561  26.584  -4.115  0.00  0.00    -0.003 C 
HETATM   30  C   UNK N   1      24.830  27.186  -5.295  0.00  0.00     0.005 C 
ENDBRANCH  28  29
ENDBRANCH  27  28
ENDBRANCH  22  27
ENDBRANCH  21  22
ENDBRANCH  20  21
ENDBRANCH  17  20
ENDBRANCH   3  17
BRANCH  11  31
HETATM   31  C   UNK N   1      29.616  23.120  -2.579  0.00  0.00     0.417 C 
HETATM   32  F   UNK N   1      30.814  23.491  -1.997  0.00  0.00    -0.166 F 
HETATM   33  F   UNK N   1      29.730  21.815  -3.032  0.00  0.00    -0.166 F 
HETATM   34  F   UNK N   1      28.611  23.178  -1.633  0.00  0.00    -0.166 F 
ENDBRANCH  11  31
TORSDOF 12
ENDMDL
MODEL 9
REMARK VINA RESULT:      -6.0     13.477     15.489
REMARK  12 active torsions:
REMARK  status: ('A' for Active; 'I' for Inactive)
REMARK    1  A    between atoms: O_6  and  C_10 
REMARK    2  A    between atoms: N_7  and  C_8 
REMARK    3  A    between atoms: N_7  and  C_11 
REMARK    4  A    between atoms: N_7  and  C_12 
REMARK    5  A    between atoms: C_8  and  C_9 
REMARK    6  A    between atoms: C_9  and  C_10 
REMARK    7  A    between atoms: C_10  and  C_13 
REMARK    8  A    between atoms: C_11  and  C_14 
REMARK    9  A    between atoms: C_12  and  C_15 
REMARK   10  A    between atoms: C_14  and  C_21 
REMARK   11  A    between atoms: C_15  and  C_22 
REMARK   12  A    between atoms: C_25  and  C_33 
ROOT
HETATM    1 Cl   UNK N   1      20.086  15.646   2.910  0.00  0.00    -0.083 Cl
HETATM    2 Cl   UNK N   1      20.912  20.992   2.416  0.00  0.00    -0.084 Cl
HETATM    3  C   UNK N   1      24.104  15.497   4.809  0.00  0.00    -0.018 A 
HETATM    4  C   UNK N   1      24.922  16.636   5.008  0.00  0.00    -0.016 A 
HETATM    5  C   UNK N   1      24.465  17.921   4.592  0.00  0.00    -0.013 A 
HETATM    6  C   UNK N   1      22.848  15.658   4.211  0.00  0.00     0.024 A 
HETATM    7  C   UNK N   1      23.195  18.050   3.994  0.00  0.00    -0.011 A 
HETATM    8  C   UNK N   1      22.383  16.912   3.802  0.00  0.00    -0.003 A 
HETATM    9  C   UNK N   1      26.197  16.530   5.581  0.00  0.00     0.014 A 
HETATM   10  C   UNK N   1      25.303  19.034   4.756  0.00  0.00     0.029 A 
HETATM   11  C   UNK N   1      26.580  18.899   5.315  0.00  0.00     0.048 A 
HETATM   12  C   UNK N   1      22.725  19.307   3.564  0.00  0.00     0.037 A 
HETATM   13  C   UNK N   1      27.017  17.641   5.733  0.00  0.00     0.017 A 
HETATM   14  C   UNK N   1      21.122  17.039   3.187  0.00  0.00     0.046 A 
HETATM   15  C   UNK N   1      21.475  19.425   2.956  0.00  0.00     0.036 A 
HETATM   16  C   UNK N   1      20.678  18.296   2.767  0.00  0.00     0.048 A 
ENDROOT
BRANCH   3  17
HETATM   17  C   UNK N   1      24.517  14.077   5.172  0.00  0.00     0.153 C 
BRANCH  17  18
HETATM   18  O   UNK N   1      24.906  13.291   4.088  0.00  0.00    -0.391 OA
HETATM   19  H   UNK N   1      25.823  12.985   4.009  0.00  0.00     0.210 HD
ENDBRANCH  17  18
BRANCH  17  20
HETATM   20  C   UNK N   1      23.390  13.365   5.910  0.00  0.00     0.067 C 
BRANCH  20  21
HETATM   21  C   UNK N   1      23.423  13.714   7.384  0.00  0.00     0.275 C 
BRANCH  21  22
HETATM   22  N   UNK N   1      22.090  13.542   7.946  0.00  0.00     0.088 N 
BRANCH  22  23
HETATM   23  C   UNK N   1      21.163  14.401   7.221  0.00  0.00     0.272 C 
BRANCH  23  24
HETATM   24  C   UNK N   1      21.336  15.845   7.658  0.00  0.00     0.030 C 
BRANCH  24  25
HETATM   25  C   UNK N   1      20.422  16.740   6.844  0.00  0.00    -0.003 C 
HETATM   26  C   UNK N   1      20.944  18.166   6.854  0.00  0.00     0.005 C 
ENDBRANCH  24  25
ENDBRANCH  23  24
ENDBRANCH  22  23
BRANCH  22  27
HETATM   27  C   UNK N   1      22.113  13.860   9.376  0.00  0.00     0.272 C 
BRANCH  27  28
HETATM   28  C   UNK N   1      20.962  13.224  10.148  0.00  0.00     0.030 C 
BRANCH  28  29
HETATM   29  C   UNK N   1      21.509  12.149  11.057  0.00  0.00    -0.003 C 
HETATM   30  C   UNK N   1      23.015  12.281  11.135  0.00  0.00     0.005 C 
ENDBRANCH  28  29
ENDBRANCH  27  28
ENDBRANCH  22  27
ENDBRANCH  21  22
ENDBRANCH  20  21
ENDBRANCH  17  20
ENDBRANCH   3  17
BRANCH  11  31
HETATM   31  C   UNK N   1      27.481  20.091   5.421  0.00  0.00     0.417 C 
HETATM   32  F   UNK N   1      28.567  19.914   4.582  0.00  0.00    -0.166 F 
HETATM   33  F   UNK N   1      27.945  20.249   6.717  0.00  0.00    -0.166 F 
HETATM   34  F   UNK N   1      26.797  21.231   5.048  0.00  0.00    -0.166 F 
ENDBRANCH  11  31
TORSDOF 12
ENDMDL
