REMARK  2 active torsions:
REMARK  status: ('A' for Active; 'I' for Inactive)
REMARK    1  A    between atoms: N_3  and  C_4 
REMARK    2  A    between atoms: C_4  and  C_10 
ROOT
HETATM    1  O   UNK N   1       1.482   0.261  -1.274  0.00  0.00    -0.295 OA
HETATM    2  C   UNK N   1       3.181  -0.547   0.253  0.00  0.00     0.116 C 
HETATM    3  C   UNK N   1       3.824  -1.900  -0.107  0.00  0.00     0.044 C 
HETATM    4  C   UNK N   1       2.940  -3.086   0.303  0.00  0.00     0.004 C 
HETATM    5  C   UNK N   1       1.596  -3.024  -0.423  0.00  0.00     0.008 C 
HETATM    6  C   UNK N   1       1.815  -0.571  -0.447  0.00  0.00     0.159 C 
HETATM    7  C   UNK N   1       0.885  -1.705  -0.136  0.00  0.00     0.081 C 
ENDROOT
BRANCH   2   8
HETATM    8  N   UNK N   1       2.973  -0.504   1.710  0.00  0.00    -0.407 N 
HETATM    9  C   UNK N   1       2.294   0.727   2.114  0.00  0.00     0.141 C 
HETATM   10  H   UNK N   1       3.264  -1.238   2.356  0.00  0.00     0.154 HD
ENDBRANCH   2   8
BRANCH   2  11
HETATM   11  C   UNK N   1       4.158   0.583  -0.142  0.00  0.00    -0.001 A 
HETATM   12  C   UNK N   1       5.483   0.632   0.377  0.00  0.00     0.043 A 
HETATM   13 Cl   UNK N   1       6.122  -0.591   1.471  0.00  0.00    -0.084 Cl
HETATM   14  C   UNK N   1       6.337   1.683   0.024  0.00  0.00     0.024 A 
HETATM   15  C   UNK N   1       5.903   2.695  -0.830  0.00  0.00     0.002 A 
HETATM   16  C   UNK N   1       4.609   2.662  -1.344  0.00  0.00     0.001 A 
HETATM   17  C   UNK N   1       3.750   1.617  -1.004  0.00  0.00     0.012 A 
ENDBRANCH   2  11
TORSDOF 2
