MODEL 1
REMARK VINA RESULT:      -5.9      0.000      0.000
REMARK  2 active torsions:
REMARK  status: ('A' for Active; 'I' for Inactive)
REMARK    1  A    between atoms: N_3  and  C_4 
REMARK    2  A    between atoms: C_4  and  C_10 
ROOT
HETATM    1  O   UNK N   1      37.379  10.716  15.218  0.00  0.00    -0.295 OA
HETATM    2  C   UNK N   1      35.175  11.721  15.186  0.00  0.00     0.116 C 
HETATM    3  C   UNK N   1      34.000  10.762  14.916  0.00  0.00     0.044 C 
HETATM    4  C   UNK N   1      33.842  10.450  13.421  0.00  0.00     0.004 C 
HETATM    5  C   UNK N   1      35.102   9.772  12.883  0.00  0.00     0.008 C 
HETATM    6  C   UNK N   1      36.393  11.021  14.569  0.00  0.00     0.159 C 
HETATM    7  C   UNK N   1      36.330  10.647  13.118  0.00  0.00     0.081 C 
ENDROOT
BRANCH   2   8
HETATM    8  N   UNK N   1      34.925  12.978  14.460  0.00  0.00    -0.407 N 
HETATM    9  C   UNK N   1      36.177  13.666  14.142  0.00  0.00     0.141 C 
HETATM   10  H   UNK N   1      33.999  13.326  14.211  0.00  0.00     0.154 HD
ENDBRANCH   2   8
BRANCH   2  11
HETATM   11  C   UNK N   1      35.225  12.024  16.700  0.00  0.00    -0.001 A 
HETATM   12  C   UNK N   1      35.254  10.977  17.664  0.00  0.00     0.043 A 
HETATM   13 Cl   UNK N   1      35.268   9.274  17.219  0.00  0.00    -0.084 Cl
HETATM   14  C   UNK N   1      35.271  11.281  19.030  0.00  0.00     0.024 A 
HETATM   15  C   UNK N   1      35.252  12.605  19.464  0.00  0.00     0.002 A 
HETATM   16  C   UNK N   1      35.222  13.640  18.533  0.00  0.00     0.001 A 
HETATM   17  C   UNK N   1      35.210  13.351  17.168  0.00  0.00     0.012 A 
ENDBRANCH   2  11
TORSDOF 2
ENDMDL
MODEL 2
REMARK VINA RESULT:      -5.9      1.663      2.163
REMARK  2 active torsions:
REMARK  status: ('A' for Active; 'I' for Inactive)
REMARK    1  A    between atoms: N_3  and  C_4 
REMARK    2  A    between atoms: C_4  and  C_10 
ROOT
HETATM    1  O   UNK N   1      33.068  10.741  14.660  0.00  0.00    -0.295 OA
HETATM    2  C   UNK N   1      35.424  11.307  14.622  0.00  0.00     0.116 C 
HETATM    3  C   UNK N   1      35.828  12.450  13.672  0.00  0.00     0.044 C 
HETATM    4  C   UNK N   1      35.954  11.975  12.217  0.00  0.00     0.004 C 
HETATM    5  C   UNK N   1      34.615  11.432  11.717  0.00  0.00     0.008 C 
HETATM    6  C   UNK N   1      34.114  10.762  14.034  0.00  0.00     0.159 C 
HETATM    7  C   UNK N   1      34.123  10.296  12.609  0.00  0.00     0.081 C 
ENDROOT
BRANCH   2   8
HETATM    8  N   UNK N   1      36.454  10.258  14.552  0.00  0.00    -0.407 N 
HETATM    9  C   UNK N   1      37.796  10.819  14.707  0.00  0.00     0.141 C 
HETATM   10  H   UNK N   1      36.259   9.266  14.413  0.00  0.00     0.154 HD
ENDBRANCH   2   8
BRANCH   2  11
HETATM   11  C   UNK N   1      35.375  11.859  16.064  0.00  0.00    -0.001 A 
HETATM   12  C   UNK N   1      35.245  10.992  17.186  0.00  0.00     0.043 A 
HETATM   13 Cl   UNK N   1      35.162   9.240  17.029  0.00  0.00    -0.084 Cl
HETATM   14  C   UNK N   1      35.175  11.522  18.479  0.00  0.00     0.024 A 
HETATM   15  C   UNK N   1      35.225  12.899  18.686  0.00  0.00     0.002 A 
HETATM   16  C   UNK N   1      35.350  13.760  17.599  0.00  0.00     0.001 A 
HETATM   17  C   UNK N   1      35.426  13.244  16.305  0.00  0.00     0.012 A 
ENDBRANCH   2  11
TORSDOF 2
ENDMDL
MODEL 3
REMARK VINA RESULT:      -5.8     26.059     27.554
REMARK  2 active torsions:
REMARK  status: ('A' for Active; 'I' for Inactive)
REMARK    1  A    between atoms: N_3  and  C_4 
REMARK    2  A    between atoms: C_4  and  C_10 
ROOT
HETATM    1  O   UNK N   1      25.551  28.074  -2.889  0.00  0.00    -0.295 OA
HETATM    2  C   UNK N   1      27.266  28.021  -4.600  0.00  0.00     0.116 C 
HETATM    3  C   UNK N   1      28.714  28.210  -4.110  0.00  0.00     0.044 C 
HETATM    4  C   UNK N   1      29.052  29.687  -3.864  0.00  0.00     0.004 C 
HETATM    5  C   UNK N   1      28.138  30.270  -2.787  0.00  0.00     0.008 C 
HETATM    6  C   UNK N   1      26.403  28.681  -3.516  0.00  0.00     0.159 C 
HETATM    7  C   UNK N   1      26.671  30.117  -3.180  0.00  0.00     0.081 C 
ENDROOT
BRANCH   2   8
HETATM    8  N   UNK N   1      27.102  28.762  -5.861  0.00  0.00    -0.407 N 
HETATM    9  C   UNK N   1      28.053  28.306  -6.874  0.00  0.00     0.141 C 
HETATM   10  H   UNK N   1      26.413  29.500  -6.011  0.00  0.00     0.154 HD
ENDBRANCH   2   8
BRANCH   2  11
HETATM   11  C   UNK N   1      27.031  26.518  -4.873  0.00  0.00    -0.001 A 
HETATM   12  C   UNK N   1      25.805  26.049  -5.425  0.00  0.00     0.043 A 
HETATM   13 Cl   UNK N   1      24.485  27.128  -5.867  0.00  0.00    -0.084 Cl
HETATM   14  C   UNK N   1      25.609  24.679  -5.636  0.00  0.00     0.024 A 
HETATM   15  C   UNK N   1      26.602  23.760  -5.304  0.00  0.00     0.002 A 
HETATM   16  C   UNK N   1      27.806  24.204  -4.761  0.00  0.00     0.001 A 
HETATM   17  C   UNK N   1      28.016  25.567  -4.552  0.00  0.00     0.012 A 
ENDBRANCH   2  11
TORSDOF 2
ENDMDL
MODEL 4
REMARK VINA RESULT:      -5.8     12.658     14.177
REMARK  2 active torsions:
REMARK  status: ('A' for Active; 'I' for Inactive)
REMARK    1  A    between atoms: N_3  and  C_4 
REMARK    2  A    between atoms: C_4  and  C_10 
ROOT
HETATM    1  O   UNK N   1      27.999  20.541   6.504  0.00  0.00    -0.295 OA
HETATM    2  C   UNK N   1      27.667  18.246   5.799  0.00  0.00     0.116 C 
HETATM    3  C   UNK N   1      27.656  18.002   4.278  0.00  0.00     0.044 C 
HETATM    4  C   UNK N   1      26.302  18.357   3.647  0.00  0.00     0.004 C 
HETATM    5  C   UNK N   1      25.985  19.837   3.863  0.00  0.00     0.008 C 
HETATM    6  C   UNK N   1      27.279  19.724   5.955  0.00  0.00     0.159 C 
HETATM    7  C   UNK N   1      25.986  20.180   5.349  0.00  0.00     0.081 C 
ENDROOT
BRANCH   2   8
HETATM    8  N   UNK N   1      26.622  17.409   6.412  0.00  0.00    -0.407 N 
HETATM    9  C   UNK N   1      26.829  15.993   6.109  0.00  0.00     0.141 C 
HETATM   10  H   UNK N   1      25.852  17.769   6.976  0.00  0.00     0.154 HD
ENDBRANCH   2   8
BRANCH   2  11
HETATM   11  C   UNK N   1      29.040  17.813   6.358  0.00  0.00    -0.001 A 
HETATM   12  C   UNK N   1      29.302  17.804   7.757  0.00  0.00     0.043 A 
HETATM   13 Cl   UNK N   1      28.089  18.247   8.955  0.00  0.00    -0.084 Cl
HETATM   14  C   UNK N   1      30.565  17.433   8.233  0.00  0.00     0.024 A 
HETATM   15  C   UNK N   1      31.581  17.077   7.349  0.00  0.00     0.002 A 
HETATM   16  C   UNK N   1      31.341  17.084   5.977  0.00  0.00     0.001 A 
HETATM   17  C   UNK N   1      30.085  17.446   5.491  0.00  0.00     0.012 A 
ENDBRANCH   2  11
TORSDOF 2
ENDMDL
MODEL 5
REMARK VINA RESULT:      -5.7     24.112     25.962
REMARK  2 active torsions:
REMARK  status: ('A' for Active; 'I' for Inactive)
REMARK    1  A    between atoms: N_3  and  C_4 
REMARK    2  A    between atoms: C_4  and  C_10 
ROOT
HETATM    1  O   UNK N   1      26.728  23.839  -2.766  0.00  0.00    -0.295 OA
HETATM    2  C   UNK N   1      28.313  24.853  -4.293  0.00  0.00     0.116 C 
HETATM    3  C   UNK N   1      29.076  23.884  -5.216  0.00  0.00     0.044 C 
HETATM    4  C   UNK N   1      30.252  23.209  -4.498  0.00  0.00     0.004 C 
HETATM    5  C   UNK N   1      29.750  22.390  -3.308  0.00  0.00     0.008 C 
HETATM    6  C   UNK N   1      27.893  23.993  -3.093  0.00  0.00     0.159 C 
HETATM    7  C   UNK N   1      28.966  23.268  -2.338  0.00  0.00     0.081 C 
ENDROOT
BRANCH   2   8
HETATM    8  N   UNK N   1      29.249  25.892  -3.835  0.00  0.00    -0.407 N 
HETATM    9  C   UNK N   1      29.857  26.596  -4.964  0.00  0.00     0.141 C 
HETATM   10  H   UNK N   1      29.449  26.097  -2.855  0.00  0.00     0.154 HD
ENDBRANCH   2   8
BRANCH   2  11
HETATM   11  C   UNK N   1      27.186  25.526  -5.109  0.00  0.00    -0.001 A 
HETATM   12  C   UNK N   1      26.375  26.552  -4.547  0.00  0.00     0.043 A 
HETATM   13 Cl   UNK N   1      26.604  27.155  -2.908  0.00  0.00    -0.084 Cl
HETATM   14  C   UNK N   1      25.343  27.123  -5.300  0.00  0.00     0.024 A 
HETATM   15  C   UNK N   1      25.092  26.694  -6.602  0.00  0.00     0.002 A 
HETATM   16  C   UNK N   1      25.876  25.690  -7.165  0.00  0.00     0.001 A 
HETATM   17  C   UNK N   1      26.910  25.116  -6.427  0.00  0.00     0.012 A 
ENDBRANCH   2  11
TORSDOF 2
ENDMDL
MODEL 6
REMARK VINA RESULT:      -5.7     24.247     25.980
REMARK  2 active torsions:
REMARK  status: ('A' for Active; 'I' for Inactive)
REMARK    1  A    between atoms: N_3  and  C_4 
REMARK    2  A    between atoms: C_4  and  C_10 
ROOT
HETATM    1  O   UNK N   1      26.474  24.176  -6.426  0.00  0.00    -0.295 OA
HETATM    2  C   UNK N   1      27.364  25.745  -4.808  0.00  0.00     0.116 C 
HETATM    3  C   UNK N   1      26.348  26.337  -3.813  0.00  0.00     0.044 C 
HETATM    4  C   UNK N   1      25.538  27.486  -4.430  0.00  0.00     0.004 C 
HETATM    5  C   UNK N   1      24.741  26.987  -5.636  0.00  0.00     0.008 C 
HETATM    6  C   UNK N   1      26.517  25.324  -6.018  0.00  0.00     0.159 C 
HETATM    7  C   UNK N   1      25.667  26.367  -6.679  0.00  0.00     0.081 C 
ENDROOT
BRANCH   2   8
HETATM    8  N   UNK N   1      28.290  26.813  -5.219  0.00  0.00    -0.407 N 
HETATM    9  C   UNK N   1      28.912  27.452  -4.059  0.00  0.00     0.141 C 
HETATM   10  H   UNK N   1      28.476  27.075  -6.187  0.00  0.00     0.154 HD
ENDBRANCH   2   8
BRANCH   2  11
HETATM   11  C   UNK N   1      28.169  24.639  -4.090  0.00  0.00    -0.001 A 
HETATM   12  C   UNK N   1      29.325  24.058  -4.686  0.00  0.00     0.043 A 
HETATM   13 Cl   UNK N   1      29.944  24.567  -6.254  0.00  0.00    -0.084 Cl
HETATM   14  C   UNK N   1      30.018  23.038  -4.025  0.00  0.00     0.024 A 
HETATM   15  C   UNK N   1      29.586  22.574  -2.784  0.00  0.00     0.002 A 
HETATM   16  C   UNK N   1      28.456  23.130  -2.190  0.00  0.00     0.001 A 
HETATM   17  C   UNK N   1      27.759  24.151  -2.836  0.00  0.00     0.012 A 
ENDBRANCH   2  11
TORSDOF 2
ENDMDL
MODEL 7
REMARK VINA RESULT:      -5.7     26.088     27.685
REMARK  2 active torsions:
REMARK  status: ('A' for Active; 'I' for Inactive)
REMARK    1  A    between atoms: N_3  and  C_4 
REMARK    2  A    between atoms: C_4  and  C_10 
ROOT
HETATM    1  O   UNK N   1      25.199  23.454  -5.982  0.00  0.00    -0.295 OA
HETATM    2  C   UNK N   1      26.560  25.258  -6.857  0.00  0.00     0.116 C 
HETATM    3  C   UNK N   1      25.995  25.995  -8.087  0.00  0.00     0.044 C 
HETATM    4  C   UNK N   1      26.245  25.220  -9.388  0.00  0.00     0.004 C 
HETATM    5  C   UNK N   1      25.562  23.854  -9.334  0.00  0.00     0.008 C 
HETATM    6  C   UNK N   1      25.890  23.877  -6.894  0.00  0.00     0.159 C 
HETATM    7  C   UNK N   1      26.051  23.050  -8.133  0.00  0.00     0.081 C 
ENDROOT
BRANCH   2   8
HETATM    8  N   UNK N   1      28.011  25.092  -7.040  0.00  0.00    -0.407 N 
HETATM    9  C   UNK N   1      28.672  26.381  -7.245  0.00  0.00     0.141 C 
HETATM   10  H   UNK N   1      28.496  24.194  -7.025  0.00  0.00     0.154 HD
ENDBRANCH   2   8
BRANCH   2  11
HETATM   11  C   UNK N   1      26.314  26.130  -5.605  0.00  0.00    -0.001 A 
HETATM   12  C   UNK N   1      26.826  25.756  -4.330  0.00  0.00     0.043 A 
HETATM   13 Cl   UNK N   1      27.795  24.307  -4.081  0.00  0.00    -0.084 Cl
HETATM   14  C   UNK N   1      26.564  26.550  -3.208  0.00  0.00     0.024 A 
HETATM   15  C   UNK N   1      25.796  27.708  -3.320  0.00  0.00     0.002 A 
HETATM   16  C   UNK N   1      25.287  28.085  -4.561  0.00  0.00     0.001 A 
HETATM   17  C   UNK N   1      25.546  27.305  -5.687  0.00  0.00     0.012 A 
ENDBRANCH   2  11
TORSDOF 2
ENDMDL
MODEL 8
REMARK VINA RESULT:      -5.7      8.502      9.975
REMARK  2 active torsions:
REMARK  status: ('A' for Active; 'I' for Inactive)
REMARK    1  A    between atoms: N_3  and  C_4 
REMARK    2  A    between atoms: C_4  and  C_10 
ROOT
HETATM    1  O   UNK N   1      34.685  16.580   5.999  0.00  0.00    -0.295 OA
HETATM    2  C   UNK N   1      32.687  16.579   7.370  0.00  0.00     0.116 C 
HETATM    3  C   UNK N   1      31.690  15.435   7.108  0.00  0.00     0.044 C 
HETATM    4  C   UNK N   1      30.807  15.707   5.883  0.00  0.00     0.004 C 
HETATM    5  C   UNK N   1      31.668  15.844   4.627  0.00  0.00     0.008 C 
HETATM    6  C   UNK N   1      33.474  16.712   6.058  0.00  0.00     0.159 C 
HETATM    7  C   UNK N   1      32.702  16.952   4.796  0.00  0.00     0.081 C 
ENDROOT
BRANCH   2   8
HETATM    8  N   UNK N   1      31.924  17.818   7.599  0.00  0.00    -0.407 N 
HETATM    9  C   UNK N   1      30.932  17.643   8.659  0.00  0.00     0.141 C 
HETATM   10  H   UNK N   1      32.068  18.687   7.085  0.00  0.00     0.154 HD
ENDBRANCH   2   8
BRANCH   2  11
HETATM   11  C   UNK N   1      33.492  16.249   8.647  0.00  0.00    -0.001 A 
HETATM   12  C   UNK N   1      34.472  17.147   9.158  0.00  0.00     0.043 A 
HETATM   13 Cl   UNK N   1      34.821  18.701   8.408  0.00  0.00    -0.084 Cl
HETATM   14  C   UNK N   1      35.205  16.809  10.301  0.00  0.00     0.024 A 
HETATM   15  C   UNK N   1      34.994  15.593  10.947  0.00  0.00     0.002 A 
HETATM   16  C   UNK N   1      34.040  14.704  10.458  0.00  0.00     0.001 A 
HETATM   17  C   UNK N   1      33.299  15.031   9.323  0.00  0.00     0.012 A 
ENDBRANCH   2  11
TORSDOF 2
ENDMDL
MODEL 9
REMARK VINA RESULT:      -5.6     13.048     15.245
REMARK  2 active torsions:
REMARK  status: ('A' for Active; 'I' for Inactive)
REMARK    1  A    between atoms: N_3  and  C_4 
REMARK    2  A    between atoms: C_4  and  C_10 
ROOT
HETATM    1  O   UNK N   1      20.751  12.644   7.850  0.00  0.00    -0.295 OA
HETATM    2  C   UNK N   1      22.881  12.327   8.961  0.00  0.00     0.116 C 
HETATM    3  C   UNK N   1      22.885  11.341  10.144  0.00  0.00     0.044 C 
HETATM    4  C   UNK N   1      22.348  11.982  11.431  0.00  0.00     0.004 C 
HETATM    5  C   UNK N   1      20.901  12.438  11.235  0.00  0.00     0.008 C 
HETATM    6  C   UNK N   1      21.423  12.797   8.855  0.00  0.00     0.159 C 
HETATM    7  C   UNK N   1      20.794  13.415  10.068  0.00  0.00     0.081 C 
ENDROOT
BRANCH   2   8
HETATM    8  N   UNK N   1      23.732  13.476   9.310  0.00  0.00    -0.407 N 
HETATM    9  C   UNK N   1      25.049  13.041   9.775  0.00  0.00     0.141 C 
HETATM   10  H   UNK N   1      23.442  14.452   9.238  0.00  0.00     0.154 HD
ENDBRANCH   2   8
BRANCH   2  11
HETATM   11  C   UNK N   1      23.486  11.619   7.728  0.00  0.00    -0.001 A 
HETATM   12  C   UNK N   1      23.807  12.339   6.542  0.00  0.00     0.043 A 
HETATM   13 Cl   UNK N   1      23.575  14.079   6.395  0.00  0.00    -0.084 Cl
HETATM   14  C   UNK N   1      24.327  11.667   5.431  0.00  0.00     0.024 A 
HETATM   15  C   UNK N   1      24.531  10.289   5.466  0.00  0.00     0.002 A 
HETATM   16  C   UNK N   1      24.220   9.570   6.617  0.00  0.00     0.001 A 
HETATM   17  C   UNK N   1      23.706  10.229   7.734  0.00  0.00     0.012 A 
ENDBRANCH   2  11
TORSDOF 2
ENDMDL
