MODEL 1
REMARK VINA RESULT:      -2.7      0.000      0.000
REMARK  3 active torsions:
REMARK  status: ('A' for Active; 'I' for Inactive)
REMARK    1  A    between atoms: N_15  and  C_31 
REMARK    2  A    between atoms: N_16  and  C_32 
REMARK    3  A    between atoms: C_31  and  C_32 
ROOT
HETATM    1  C   UNK N   1      44.423  21.617   4.006  0.00  0.00     0.130 C 
ENDROOT
BRANCH   1   2
HETATM    2  N   UNK N   1      45.683  22.320   4.149  0.00  0.00    -0.429 N 
HETATM    3  H   UNK N   1      46.456  22.111   3.517  0.00  0.00     0.149 HD
HETATM    4  H   UNK N   1      45.795  23.022   4.880  0.00  0.00     0.149 HD
ENDBRANCH   1   2
BRANCH   1   5
HETATM    5  C   UNK N   1      43.371  22.584   3.511  0.00  0.00     0.130 C 
BRANCH   5   6
HETATM    6  N   UNK N   1      43.591  23.884   4.115  0.00  0.00    -0.429 N 
HETATM    7  H   UNK N   1      43.111  24.706   3.745  0.00  0.00     0.149 HD
HETATM    8  H   UNK N   1      44.224  23.978   4.909  0.00  0.00     0.149 HD
ENDBRANCH   5   6
ENDBRANCH   1   5
TORSDOF 3
ENDMDL
MODEL 2
REMARK VINA RESULT:      -2.7      0.172      2.184
REMARK  3 active torsions:
REMARK  status: ('A' for Active; 'I' for Inactive)
REMARK    1  A    between atoms: N_15  and  C_31 
REMARK    2  A    between atoms: N_16  and  C_32 
REMARK    3  A    between atoms: C_31  and  C_32 
ROOT
HETATM    1  C   UNK N   1      43.450  22.759   3.469  0.00  0.00     0.130 C 
ENDROOT
BRANCH   1   2
HETATM    2  N   UNK N   1      43.586  24.051   4.109  0.00  0.00    -0.429 N 
HETATM    3  H   UNK N   1      43.970  24.115   5.052  0.00  0.00     0.149 HD
HETATM    4  H   UNK N   1      43.298  24.897   3.618  0.00  0.00     0.149 HD
ENDBRANCH   1   2
BRANCH   1   5
HETATM    5  C   UNK N   1      44.358  21.766   4.159  0.00  0.00     0.130 C 
BRANCH   5   6
HETATM    6  N   UNK N   1      45.714  22.280   4.165  0.00  0.00    -0.429 N 
HETATM    7  H   UNK N   1      46.504  21.634   4.146  0.00  0.00     0.149 HD
HETATM    8  H   UNK N   1      45.879  23.286   4.189  0.00  0.00     0.149 HD
ENDBRANCH   5   6
ENDBRANCH   1   5
TORSDOF 3
ENDMDL
MODEL 3
REMARK VINA RESULT:      -2.4     24.017     24.540
REMARK  3 active torsions:
REMARK  status: ('A' for Active; 'I' for Inactive)
REMARK    1  A    between atoms: N_15  and  C_31 
REMARK    2  A    between atoms: N_16  and  C_32 
REMARK    3  A    between atoms: C_31  and  C_32 
ROOT
HETATM    1  C   UNK N   1      20.625  20.387   1.836  0.00  0.00     0.130 C 
ENDROOT
BRANCH   1   2
HETATM    2  N   UNK N   1      20.470  20.745   0.441  0.00  0.00    -0.429 N 
HETATM    3  H   UNK N   1      20.348  20.016  -0.262  0.00  0.00     0.149 HD
HETATM    4  H   UNK N   1      20.484  21.726   0.162  0.00  0.00     0.149 HD
ENDBRANCH   1   2
BRANCH   1   5
HETATM    5  C   UNK N   1      20.330  18.913   2.004  0.00  0.00     0.130 C 
BRANCH   5   6
HETATM    6  N   UNK N   1      18.930  18.739   2.339  0.00  0.00    -0.429 N 
HETATM    7  H   UNK N   1      18.208  19.076   1.702  0.00  0.00     0.149 HD
HETATM    8  H   UNK N   1      18.667  18.280   3.211  0.00  0.00     0.149 HD
ENDBRANCH   5   6
ENDBRANCH   1   5
TORSDOF 3
ENDMDL
MODEL 4
REMARK VINA RESULT:      -2.4     24.020     24.536
REMARK  3 active torsions:
REMARK  status: ('A' for Active; 'I' for Inactive)
REMARK    1  A    between atoms: N_15  and  C_31 
REMARK    2  A    between atoms: N_16  and  C_32 
REMARK    3  A    between atoms: C_31  and  C_32 
ROOT
HETATM    1  C   UNK N   1      20.319  18.889   1.949  0.00  0.00     0.130 C 
ENDROOT
BRANCH   1   2
HETATM    2  N   UNK N   1      18.929  18.708   2.316  0.00  0.00    -0.429 N 
HETATM    3  H   UNK N   1      18.682  18.475   3.279  0.00  0.00     0.149 HD
HETATM    4  H   UNK N   1      18.198  18.813   1.613  0.00  0.00     0.149 HD
ENDBRANCH   1   2
BRANCH   1   5
HETATM    5  C   UNK N   1      20.608  20.368   1.820  0.00  0.00     0.130 C 
BRANCH   5   6
HETATM    6  N   UNK N   1      20.485  20.762   0.430  0.00  0.00    -0.429 N 
HETATM    7  H   UNK N   1      20.375  21.747   0.188  0.00  0.00     0.149 HD
HETATM    8  H   UNK N   1      20.508  20.055  -0.305  0.00  0.00     0.149 HD
ENDBRANCH   5   6
ENDBRANCH   1   5
TORSDOF 3
ENDMDL
MODEL 5
REMARK VINA RESULT:      -2.3     24.403     24.809
REMARK  3 active torsions:
REMARK  status: ('A' for Active; 'I' for Inactive)
REMARK    1  A    between atoms: N_15  and  C_31 
REMARK    2  A    between atoms: N_16  and  C_32 
REMARK    3  A    between atoms: C_31  and  C_32 
ROOT
HETATM    1  C   UNK N   1      22.590  12.016  10.807  0.00  0.00     0.130 C 
ENDROOT
BRANCH   1   2
HETATM    2  N   UNK N   1      21.371  11.860  11.575  0.00  0.00    -0.429 N 
HETATM    3  H   UNK N   1      20.683  12.613  11.597  0.00  0.00     0.149 HD
HETATM    4  H   UNK N   1      21.201  10.998  12.092  0.00  0.00     0.149 HD
ENDBRANCH   1   2
BRANCH   1   5
HETATM    5  C   UNK N   1      23.776  11.936  11.742  0.00  0.00     0.130 C 
BRANCH   5   6
HETATM    6  N   UNK N   1      24.946  12.483  11.081  0.00  0.00    -0.429 N 
HETATM    7  H   UNK N   1      25.821  12.587  11.597  0.00  0.00     0.149 HD
HETATM    8  H   UNK N   1      24.895  12.763  10.102  0.00  0.00     0.149 HD
ENDBRANCH   5   6
ENDBRANCH   1   5
TORSDOF 3
ENDMDL
MODEL 6
REMARK VINA RESULT:      -2.3     24.505     24.827
REMARK  3 active torsions:
REMARK  status: ('A' for Active; 'I' for Inactive)
REMARK    1  A    between atoms: N_15  and  C_31 
REMARK    2  A    between atoms: N_16  and  C_32 
REMARK    3  A    between atoms: C_31  and  C_32 
ROOT
HETATM    1  C   UNK N   1      23.657  11.941  11.816  0.00  0.00     0.130 C 
ENDROOT
BRANCH   1   2
HETATM    2  N   UNK N   1      24.872  12.379  11.158  0.00  0.00    -0.429 N 
HETATM    3  H   UNK N   1      24.984  13.359  10.894  0.00  0.00     0.149 HD
HETATM    4  H   UNK N   1      25.615  11.709  10.959  0.00  0.00     0.149 HD
ENDBRANCH   1   2
BRANCH   1   5
HETATM    5  C   UNK N   1      22.492  12.114  10.868  0.00  0.00     0.130 C 
BRANCH   5   6
HETATM    6  N   UNK N   1      21.252  11.876  11.582  0.00  0.00    -0.429 N 
HETATM    7  H   UNK N   1      21.220  11.985  12.597  0.00  0.00     0.149 HD
HETATM    8  H   UNK N   1      20.414  11.599  11.072  0.00  0.00     0.149 HD
ENDBRANCH   5   6
ENDBRANCH   1   5
TORSDOF 3
ENDMDL
MODEL 7
REMARK VINA RESULT:      -2.3     13.668     13.874
REMARK  3 active torsions:
REMARK  status: ('A' for Active; 'I' for Inactive)
REMARK    1  A    between atoms: N_15  and  C_31 
REMARK    2  A    between atoms: N_16  and  C_32 
REMARK    3  A    between atoms: C_31  and  C_32 
ROOT
HETATM    1  C   UNK N   1      34.653  14.875  11.313  0.00  0.00     0.130 C 
ENDROOT
BRANCH   1   2
HETATM    2  N   UNK N   1      33.331  15.049  10.746  0.00  0.00    -0.429 N 
HETATM    3  H   UNK N   1      33.209  15.606   9.900  0.00  0.00     0.149 HD
HETATM    4  H   UNK N   1      32.523  14.616  11.193  0.00  0.00     0.149 HD
ENDBRANCH   1   2
BRANCH   1   5
HETATM    5  C   UNK N   1      35.418  16.174  11.192  0.00  0.00     0.130 C 
BRANCH   5   6
HETATM    6  N   UNK N   1      34.717  17.061  10.285  0.00  0.00    -0.429 N 
HETATM    7  H   UNK N   1      33.796  16.803   9.930  0.00  0.00     0.149 HD
HETATM    8  H   UNK N   1      35.145  17.943  10.001  0.00  0.00     0.149 HD
ENDBRANCH   5   6
ENDBRANCH   1   5
TORSDOF 3
ENDMDL
MODEL 8
REMARK VINA RESULT:      -2.2     13.653     13.855
REMARK  3 active torsions:
REMARK  status: ('A' for Active; 'I' for Inactive)
REMARK    1  A    between atoms: N_15  and  C_31 
REMARK    2  A    between atoms: N_16  and  C_32 
REMARK    3  A    between atoms: C_31  and  C_32 
ROOT
HETATM    1  C   UNK N   1      35.338  15.761  10.321  0.00  0.00     0.130 C 
ENDROOT
BRANCH   1   2
HETATM    2  N   UNK N   1      35.090  17.143  10.681  0.00  0.00    -0.429 N 
HETATM    3  H   UNK N   1      34.136  17.463  10.844  0.00  0.00     0.149 HD
HETATM    4  H   UNK N   1      35.870  17.794  10.769  0.00  0.00     0.149 HD
ENDBRANCH   1   2
BRANCH   1   5
HETATM    5  C   UNK N   1      34.408  14.870  11.113  0.00  0.00     0.130 C 
BRANCH   5   6
HETATM    6  N   UNK N   1      33.053  15.029  10.619  0.00  0.00    -0.429 N 
HETATM    7  H   UNK N   1      32.447  15.747  11.019  0.00  0.00     0.149 HD
HETATM    8  H   UNK N   1      32.707  14.426   9.874  0.00  0.00     0.149 HD
ENDBRANCH   5   6
ENDBRANCH   1   5
TORSDOF 3
ENDMDL
MODEL 9
REMARK VINA RESULT:      -2.2     11.922     12.176
REMARK  3 active torsions:
REMARK  status: ('A' for Active; 'I' for Inactive)
REMARK    1  A    between atoms: N_15  and  C_31 
REMARK    2  A    between atoms: N_16  and  C_32 
REMARK    3  A    between atoms: C_31  and  C_32 
ROOT
HETATM    1  C   UNK N   1      34.541  16.571   9.427  0.00  0.00     0.130 C 
ENDROOT
BRANCH   1   2
HETATM    2  N   UNK N   1      35.051  17.159  10.649  0.00  0.00    -0.429 N 
HETATM    3  H   UNK N   1      35.899  17.726  10.627  0.00  0.00     0.149 HD
HETATM    4  H   UNK N   1      34.562  17.008  11.531  0.00  0.00     0.149 HD
ENDBRANCH   1   2
BRANCH   1   5
HETATM    5  C   UNK N   1      33.980  17.665   8.548  0.00  0.00     0.130 C 
BRANCH   5   6
HETATM    6  N   UNK N   1      34.909  18.778   8.514  0.00  0.00    -0.429 N 
HETATM    7  H   UNK N   1      34.634  19.659   8.077  0.00  0.00     0.149 HD
HETATM    8  H   UNK N   1      35.837  18.681   8.926  0.00  0.00     0.149 HD
ENDBRANCH   5   6
ENDBRANCH   1   5
TORSDOF 3
ENDMDL
