REMARK  3 active torsions:
REMARK  status: ('A' for Active; 'I' for Inactive)
REMARK    1  A    between atoms: N_15  and  C_31 
REMARK    2  A    between atoms: N_16  and  C_32 
REMARK    3  A    between atoms: C_31  and  C_32 
ROOT
HETATM    1  C   UNK N   1       1.262   4.329   0.000  0.00  0.00     0.130 C 
ENDROOT
BRANCH   1   2
HETATM    2  N   UNK N   1       2.336   5.302  -0.000  0.00  0.00    -0.429 N 
HETATM    3  H   UNK N   1       3.307   4.989  -0.000  0.00  0.00     0.149 HD
HETATM    4  H   UNK N   1       2.121   6.299  -0.000  0.00  0.00     0.149 HD
ENDBRANCH   1   2
BRANCH   1   5
HETATM    5  C   UNK N   1      -0.064   5.056  -0.000  0.00  0.00     0.130 C 
BRANCH   5   6
HETATM    6  N   UNK N   1      -1.143   4.087   0.000  0.00  0.00    -0.429 N 
HETATM    7  H   UNK N   1      -2.113   4.405   0.000  0.00  0.00     0.149 HD
HETATM    8  H   UNK N   1      -0.933   3.089   0.000  0.00  0.00     0.149 HD
ENDBRANCH   5   6
ENDBRANCH   1   5
TORSDOF 3
