MODEL 1
REMARK VINA RESULT:      -7.2      0.000      0.000
REMARK  7 active torsions:
REMARK  status: ('A' for Active; 'I' for Inactive)
REMARK    1  A    between atoms: O_2  and  C_14 
REMARK    2  A    between atoms: O_2  and  C_21 
REMARK    3  A    between atoms: O_3  and  C_26 
REMARK    4  A    between atoms: N_4  and  C_12 
REMARK    5  A    between atoms: N_5  and  C_13 
REMARK    6  A    between atoms: C_12  and  C_14 
REMARK    7  A    between atoms: C_21  and  C_26 
ROOT
HETATM    1  S   UNK N   1      20.929  19.554   3.306  0.00  0.00    -0.087 SA
HETATM    2  N   UNK N   1      22.551  17.468   5.033  0.00  0.00    -0.341 N 
ATOM      3  HN  UNK N   1      22.875  17.293   5.984  1.00  0.00     0.167 HD
HETATM    4  C   UNK N   1      21.548  16.721   4.668  0.00  0.00     0.115 C 
HETATM    5  C   UNK N   1      20.959  16.763   3.281  0.00  0.00     0.025 A 
HETATM    6  C   UNK N   1      20.732  17.954   2.557  0.00  0.00     0.019 A 
HETATM    7  C   UNK N   1      20.603  15.543   2.675  0.00  0.00     0.016 A 
HETATM    8  C   UNK N   1      23.279  18.483   4.349  0.00  0.00     0.051 A 
HETATM    9  C   UNK N   1      22.687  19.448   3.513  0.00  0.00     0.032 A 
HETATM   10  C   UNK N   1      20.183  17.903   1.269  0.00  0.00     0.020 A 
HETATM   11  C   UNK N   1      20.061  15.499   1.389  0.00  0.00     0.001 A 
HETATM   12  C   UNK N   1      19.863  16.680   0.680  0.00  0.00     0.001 A 
HETATM   13  C   UNK N   1      24.656  18.561   4.601  0.00  0.00     0.031 A 
HETATM   14  C   UNK N   1      23.480  20.444   2.925  0.00  0.00     0.021 A 
HETATM   15  C   UNK N   1      25.441  19.553   4.011  0.00  0.00     0.002 A 
HETATM   16  C   UNK N   1      24.854  20.490   3.164  0.00  0.00     0.002 A 
ENDROOT
BRANCH   4  17
HETATM   17  N   UNK N   1      21.124  15.706   5.592  0.00  0.00    -0.363 N 
HETATM   18  C   UNK N   1      21.929  14.546   5.909  0.00  0.00     0.154 C 
HETATM   19  C   UNK N   1      22.086  14.451   7.427  0.00  0.00     0.292 C 
HETATM   20  N   UNK N   1      20.779  14.489   8.096  0.00  0.00     0.093 N 
HETATM   21  C   UNK N   1      20.104  15.752   7.764  0.00  0.00     0.292 C 
HETATM   22  C   UNK N   1      19.848  15.818   6.262  0.00  0.00     0.154 C 
BRANCH  20  23
HETATM   23  C   UNK N   1      21.064  14.457   9.529  0.00  0.00     0.298 C 
BRANCH  23  24
HETATM   24  C   UNK N   1      22.218  13.526   9.891  0.00  0.00     0.198 C 
BRANCH  24  25
HETATM   25  O   UNK N   1      21.766  12.397  10.580  0.00  0.00    -0.387 OA
BRANCH  25  26
HETATM   26  C   UNK N   1      22.841  12.020  11.389  0.00  0.00     0.193 C 
BRANCH  26  27
HETATM   27  C   UNK N   1      24.150  12.219  10.644  0.00  0.00     0.190 C 
BRANCH  27  28
HETATM   28  O   UNK N   1      25.177  12.452  11.559  0.00  0.00    -0.399 OA
HETATM   29  H   UNK N   1      26.098  12.268  11.316  0.00  0.00     0.209 HD
ENDBRANCH  27  28
ENDBRANCH  26  27
ENDBRANCH  25  26
ENDBRANCH  24  25
ENDBRANCH  23  24
ENDBRANCH  20  23
ENDBRANCH   4  17
TORSDOF 7
ENDMDL
MODEL 2
REMARK VINA RESULT:      -7.0     13.540     17.315
REMARK  7 active torsions:
REMARK  status: ('A' for Active; 'I' for Inactive)
REMARK    1  A    between atoms: O_2  and  C_14 
REMARK    2  A    between atoms: O_2  and  C_21 
REMARK    3  A    between atoms: O_3  and  C_26 
REMARK    4  A    between atoms: N_4  and  C_12 
REMARK    5  A    between atoms: N_5  and  C_13 
REMARK    6  A    between atoms: C_12  and  C_14 
REMARK    7  A    between atoms: C_21  and  C_26 
ROOT
HETATM    1  S   UNK N   1      37.156  10.241  14.863  0.00  0.00    -0.087 SA
HETATM    2  N   UNK N   1      36.201  13.202  14.329  0.00  0.00    -0.341 N 
ATOM      3  HN  UNK N   1      36.523  14.169  14.374  1.00  0.00     0.167 HD
HETATM    4  C   UNK N   1      36.123  12.723  13.121  0.00  0.00     0.115 C 
HETATM    5  C   UNK N   1      35.603  11.340  12.820  0.00  0.00     0.025 A 
HETATM    6  C   UNK N   1      35.923  10.196  13.582  0.00  0.00     0.019 A 
HETATM    7  C   UNK N   1      34.756  11.177  11.707  0.00  0.00     0.016 A 
HETATM    8  C   UNK N   1      35.920  12.625  15.601  0.00  0.00     0.051 A 
HETATM    9  C   UNK N   1      36.250  11.304  15.956  0.00  0.00     0.032 A 
HETATM   10  C   UNK N   1      35.392   8.946  13.236  0.00  0.00     0.020 A 
HETATM   11  C   UNK N   1      34.227   9.931  11.370  0.00  0.00     0.001 A 
HETATM   12  C   UNK N   1      34.535   8.816  12.143  0.00  0.00     0.001 A 
HETATM   13  C   UNK N   1      35.355  13.465  16.572  0.00  0.00     0.031 A 
HETATM   14  C   UNK N   1      35.983  10.841  17.252  0.00  0.00     0.021 A 
HETATM   15  C   UNK N   1      35.087  12.998  17.859  0.00  0.00     0.002 A 
HETATM   16  C   UNK N   1      35.392  11.681  18.197  0.00  0.00     0.002 A 
ENDROOT
BRANCH   4  17
HETATM   17  N   UNK N   1      36.387  13.635  12.042  0.00  0.00    -0.363 N 
HETATM   18  C   UNK N   1      37.477  13.453  11.108  0.00  0.00     0.154 C 
HETATM   19  C   UNK N   1      36.922  13.500   9.683  0.00  0.00     0.292 C 
HETATM   20  N   UNK N   1      36.128  14.716   9.467  0.00  0.00     0.093 N 
HETATM   21  C   UNK N   1      35.007  14.736  10.416  0.00  0.00     0.292 C 
HETATM   22  C   UNK N   1      35.543  14.792  11.843  0.00  0.00     0.154 C 
BRANCH  20  23
HETATM   23  C   UNK N   1      35.605  14.613   8.106  0.00  0.00     0.298 C 
BRANCH  23  24
HETATM   24  C   UNK N   1      34.494  15.619   7.812  0.00  0.00     0.198 C 
BRANCH  24  25
HETATM   25  O   UNK N   1      34.865  16.506   6.798  0.00  0.00    -0.387 OA
BRANCH  25  26
HETATM   26  C   UNK N   1      34.048  17.623   6.988  0.00  0.00     0.193 C 
BRANCH  26  27
HETATM   27  C   UNK N   1      34.237  18.176   8.391  0.00  0.00     0.190 C 
BRANCH  27  28
HETATM   28  O   UNK N   1      35.249  19.137   8.381  0.00  0.00    -0.399 OA
HETATM   29  H   UNK N   1      35.115  19.982   7.924  0.00  0.00     0.209 HD
ENDBRANCH  27  28
ENDBRANCH  26  27
ENDBRANCH  25  26
ENDBRANCH  24  25
ENDBRANCH  23  24
ENDBRANCH  20  23
ENDBRANCH   4  17
TORSDOF 7
ENDMDL
MODEL 3
REMARK VINA RESULT:      -6.9      4.168      8.322
REMARK  7 active torsions:
REMARK  status: ('A' for Active; 'I' for Inactive)
REMARK    1  A    between atoms: O_2  and  C_14 
REMARK    2  A    between atoms: O_2  and  C_21 
REMARK    3  A    between atoms: O_3  and  C_26 
REMARK    4  A    between atoms: N_4  and  C_12 
REMARK    5  A    between atoms: N_5  and  C_13 
REMARK    6  A    between atoms: C_12  and  C_14 
REMARK    7  A    between atoms: C_21  and  C_26 
ROOT
HETATM    1  S   UNK N   1      24.856  13.552   8.608  0.00  0.00    -0.087 SA
HETATM    2  N   UNK N   1      21.835  14.470   8.614  0.00  0.00    -0.341 N 
ATOM      3  HN  UNK N   1      21.213  15.178   9.001  1.00  0.00     0.167 HD
HETATM    4  C   UNK N   1      22.116  14.640   7.353  0.00  0.00     0.115 C 
HETATM    5  C   UNK N   1      22.959  13.671   6.564  0.00  0.00     0.025 A 
HETATM    6  C   UNK N   1      24.133  13.064   7.059  0.00  0.00     0.019 A 
HETATM    7  C   UNK N   1      22.557  13.361   5.250  0.00  0.00     0.016 A 
HETATM    8  C   UNK N   1      22.236  13.475   9.551  0.00  0.00     0.051 A 
HETATM    9  C   UNK N   1      23.538  12.945   9.628  0.00  0.00     0.032 A 
HETATM   10  C   UNK N   1      24.856  12.169   6.258  0.00  0.00     0.020 A 
HETATM   11  C   UNK N   1      23.279  12.465   4.460  0.00  0.00     0.001 A 
HETATM   12  C   UNK N   1      24.423  11.858   4.969  0.00  0.00     0.001 A 
HETATM   13  C   UNK N   1      21.285  13.071  10.499  0.00  0.00     0.031 A 
HETATM   14  C   UNK N   1      23.853  12.008  10.622  0.00  0.00     0.021 A 
HETATM   15  C   UNK N   1      21.603  12.135  11.484  0.00  0.00     0.002 A 
HETATM   16  C   UNK N   1      22.887  11.595  11.539  0.00  0.00     0.002 A 
ENDROOT
BRANCH   4  17
HETATM   17  N   UNK N   1      21.438  15.712   6.676  0.00  0.00    -0.363 N 
HETATM   18  C   UNK N   1      22.139  16.812   6.050  0.00  0.00     0.154 C 
HETATM   19  C   UNK N   1      21.671  16.937   4.600  0.00  0.00     0.292 C 
HETATM   20  N   UNK N   1      20.206  17.022   4.524  0.00  0.00     0.093 N 
HETATM   21  C   UNK N   1      19.622  15.808   5.111  0.00  0.00     0.292 C 
HETATM   22  C   UNK N   1      19.996  15.720   6.587  0.00  0.00     0.154 C 
BRANCH  20  23
HETATM   23  C   UNK N   1      19.884  17.071   3.099  0.00  0.00     0.298 C 
BRANCH  23  24
HETATM   24  C   UNK N   1      19.579  18.482   2.601  0.00  0.00     0.198 C 
BRANCH  24  25
HETATM   25  O   UNK N   1      20.553  18.926   1.703  0.00  0.00    -0.387 OA
BRANCH  25  26
HETATM   26  C   UNK N   1      20.902  20.200   2.160  0.00  0.00     0.193 C 
BRANCH  26  27
HETATM   27  C   UNK N   1      20.653  21.231   1.072  0.00  0.00     0.190 C 
BRANCH  27  28
HETATM   28  O   UNK N   1      20.600  20.597  -0.170  0.00  0.00    -0.399 OA
HETATM   29  H   UNK N   1      20.742  21.104  -0.984  0.00  0.00     0.209 HD
ENDBRANCH  27  28
ENDBRANCH  26  27
ENDBRANCH  25  26
ENDBRANCH  24  25
ENDBRANCH  23  24
ENDBRANCH  20  23
ENDBRANCH   4  17
TORSDOF 7
ENDMDL
MODEL 4
REMARK VINA RESULT:      -6.8      9.509     11.772
REMARK  7 active torsions:
REMARK  status: ('A' for Active; 'I' for Inactive)
REMARK    1  A    between atoms: O_2  and  C_14 
REMARK    2  A    between atoms: O_2  and  C_21 
REMARK    3  A    between atoms: O_3  and  C_26 
REMARK    4  A    between atoms: N_4  and  C_12 
REMARK    5  A    between atoms: N_5  and  C_13 
REMARK    6  A    between atoms: C_12  and  C_14 
REMARK    7  A    between atoms: C_21  and  C_26 
ROOT
HETATM    1  S   UNK N   1      29.738  15.587   5.851  0.00  0.00    -0.087 SA
HETATM    2  N   UNK N   1      31.489  16.900   8.127  0.00  0.00    -0.341 N 
ATOM      3  HN  UNK N   1      31.742  16.790   9.108  1.00  0.00     0.167 HD
HETATM    4  C   UNK N   1      32.430  16.556   7.294  0.00  0.00     0.115 C 
HETATM    5  C   UNK N   1      32.295  16.706   5.799  0.00  0.00     0.025 A 
HETATM    6  C   UNK N   1      31.121  16.395   5.080  0.00  0.00     0.019 A 
HETATM    7  C   UNK N   1      33.410  17.174   5.077  0.00  0.00     0.016 A 
HETATM    8  C   UNK N   1      30.172  17.401   7.919  0.00  0.00     0.051 A 
HETATM    9  C   UNK N   1      29.303  16.938   6.914  0.00  0.00     0.032 A 
HETATM   10  C   UNK N   1      31.080  16.568   3.689  0.00  0.00     0.020 A 
HETATM   11  C   UNK N   1      33.360  17.349   3.693  0.00  0.00     0.001 A 
HETATM   12  C   UNK N   1      32.189  17.057   3.000  0.00  0.00     0.001 A 
HETATM   13  C   UNK N   1      29.701  18.355   8.833  0.00  0.00     0.031 A 
HETATM   14  C   UNK N   1      28.003  17.454   6.822  0.00  0.00     0.021 A 
HETATM   15  C   UNK N   1      28.407  18.869   8.735  0.00  0.00     0.002 A 
HETATM   16  C   UNK N   1      27.560  18.425   7.721  0.00  0.00     0.002 A 
ENDROOT
BRANCH   4  17
HETATM   17  N   UNK N   1      33.697  16.187   7.862  0.00  0.00    -0.363 N 
HETATM   18  C   UNK N   1      34.631  17.155   8.396  0.00  0.00     0.154 C 
HETATM   19  C   UNK N   1      35.004  16.749   9.822  0.00  0.00     0.292 C 
HETATM   20  N   UNK N   1      35.472  15.358   9.869  0.00  0.00     0.093 N 
HETATM   21  C   UNK N   1      34.403  14.473   9.386  0.00  0.00     0.292 C 
HETATM   22  C   UNK N   1      34.087  14.797   7.929  0.00  0.00     0.154 C 
BRANCH  20  23
HETATM   23  C   UNK N   1      35.732  15.073  11.279  0.00  0.00     0.298 C 
BRANCH  23  24
HETATM   24  C   UNK N   1      35.059  13.793  11.767  0.00  0.00     0.198 C 
BRANCH  24  25
HETATM   25  O   UNK N   1      34.971  13.763  13.161  0.00  0.00    -0.387 OA
BRANCH  25  26
HETATM   26  C   UNK N   1      36.163  14.343  13.604  0.00  0.00     0.193 C 
BRANCH  26  27
HETATM   27  C   UNK N   1      36.654  13.637  14.857  0.00  0.00     0.190 C 
BRANCH  27  28
HETATM   28  O   UNK N   1      37.598  14.436  15.503  0.00  0.00    -0.399 OA
HETATM   29  H   UNK N   1      37.352  15.316  15.827  0.00  0.00     0.209 HD
ENDBRANCH  27  28
ENDBRANCH  26  27
ENDBRANCH  25  26
ENDBRANCH  24  25
ENDBRANCH  23  24
ENDBRANCH  20  23
ENDBRANCH   4  17
TORSDOF 7
ENDMDL
MODEL 5
REMARK VINA RESULT:      -6.8      8.285     10.525
REMARK  7 active torsions:
REMARK  status: ('A' for Active; 'I' for Inactive)
REMARK    1  A    between atoms: O_2  and  C_14 
REMARK    2  A    between atoms: O_2  and  C_21 
REMARK    3  A    between atoms: O_3  and  C_26 
REMARK    4  A    between atoms: N_4  and  C_12 
REMARK    5  A    between atoms: N_5  and  C_13 
REMARK    6  A    between atoms: C_12  and  C_14 
REMARK    7  A    between atoms: C_21  and  C_26 
ROOT
HETATM    1  S   UNK N   1      28.563  16.343   4.190  0.00  0.00    -0.087 SA
HETATM    2  N   UNK N   1      29.311  17.922   6.819  0.00  0.00    -0.341 N 
ATOM      3  HN  UNK N   1      29.064  18.001   7.805  1.00  0.00     0.167 HD
HETATM    4  C   UNK N   1      30.439  17.307   6.601  0.00  0.00     0.115 C 
HETATM    5  C   UNK N   1      31.029  17.143   5.223  0.00  0.00     0.025 A 
HETATM    6  C   UNK N   1      30.274  16.811   4.078  0.00  0.00     0.019 A 
HETATM    7  C   UNK N   1      32.418  17.321   5.072  0.00  0.00     0.016 A 
HETATM    8  C   UNK N   1      28.360  18.504   5.933  0.00  0.00     0.051 A 
HETATM    9  C   UNK N   1      27.969  17.930   4.709  0.00  0.00     0.032 A 
HETATM   10  C   UNK N   1      30.903  16.682   2.831  0.00  0.00     0.020 A 
HETATM   11  C   UNK N   1      33.037  17.196   3.827  0.00  0.00     0.001 A 
HETATM   12  C   UNK N   1      32.276  16.889   2.703  0.00  0.00     0.001 A 
HETATM   13  C   UNK N   1      27.724  19.679   6.362  0.00  0.00     0.031 A 
HETATM   14  C   UNK N   1      26.982  18.551   3.930  0.00  0.00     0.021 A 
HETATM   15  C   UNK N   1      26.746  20.294   5.581  0.00  0.00     0.002 A 
HETATM   16  C   UNK N   1      26.381  19.735   4.358  0.00  0.00     0.002 A 
ENDROOT
BRANCH   4  17
HETATM   17  N   UNK N   1      31.210  16.936   7.756  0.00  0.00    -0.363 N 
HETATM   18  C   UNK N   1      31.482  15.559   8.108  0.00  0.00     0.154 C 
HETATM   19  C   UNK N   1      32.991  15.382   8.285  0.00  0.00     0.292 C 
HETATM   20  N   UNK N   1      33.531  16.372   9.226  0.00  0.00     0.093 N 
HETATM   21  C   UNK N   1      33.267  17.723   8.709  0.00  0.00     0.292 C 
HETATM   22  C   UNK N   1      31.762  17.954   8.621  0.00  0.00     0.154 C 
BRANCH  20  23
HETATM   23  C   UNK N   1      34.974  16.144   9.259  0.00  0.00     0.298 C 
BRANCH  23  24
HETATM   24  C   UNK N   1      35.597  16.436  10.622  0.00  0.00     0.198 C 
BRANCH  24  25
HETATM   25  O   UNK N   1      36.261  15.316  11.129  0.00  0.00    -0.387 OA
BRANCH  25  26
HETATM   26  C   UNK N   1      35.324  14.692  11.957  0.00  0.00     0.193 C 
BRANCH  26  27
HETATM   27  C   UNK N   1      36.022  14.049  13.144  0.00  0.00     0.190 C 
BRANCH  27  28
HETATM   28  O   UNK N   1      36.802  15.002  13.799  0.00  0.00    -0.399 OA
HETATM   29  H   UNK N   1      36.484  15.913  13.891  0.00  0.00     0.209 HD
ENDBRANCH  27  28
ENDBRANCH  26  27
ENDBRANCH  25  26
ENDBRANCH  24  25
ENDBRANCH  23  24
ENDBRANCH  20  23
ENDBRANCH   4  17
TORSDOF 7
ENDMDL
MODEL 6
REMARK VINA RESULT:      -6.7     14.429     15.822
REMARK  7 active torsions:
REMARK  status: ('A' for Active; 'I' for Inactive)
REMARK    1  A    between atoms: O_2  and  C_14 
REMARK    2  A    between atoms: O_2  and  C_21 
REMARK    3  A    between atoms: O_3  and  C_26 
REMARK    4  A    between atoms: N_4  and  C_12 
REMARK    5  A    between atoms: N_5  and  C_13 
REMARK    6  A    between atoms: C_12  and  C_14 
REMARK    7  A    between atoms: C_21  and  C_26 
ROOT
HETATM    1  S   UNK N   1      29.519  22.335  -7.609  0.00  0.00    -0.087 SA
HETATM    2  N   UNK N   1      28.492  23.779  -4.996  0.00  0.00    -0.341 N 
ATOM      3  HN  UNK N   1      28.683  24.580  -4.394  1.00  0.00     0.167 HD
HETATM    4  C   UNK N   1      27.443  23.922  -5.755  0.00  0.00     0.115 C 
HETATM    5  C   UNK N   1      26.939  22.834  -6.668  0.00  0.00     0.025 A 
HETATM    6  C   UNK N   1      27.776  22.016  -7.456  0.00  0.00     0.019 A 
HETATM    7  C   UNK N   1      25.548  22.628  -6.748  0.00  0.00     0.016 A 
HETATM    8  C   UNK N   1      29.421  22.709  -4.851  0.00  0.00     0.051 A 
HETATM    9  C   UNK N   1      29.926  21.953  -5.925  0.00  0.00     0.032 A 
HETATM   10  C   UNK N   1      27.224  21.023  -8.277  0.00  0.00     0.020 A 
HETATM   11  C   UNK N   1      25.004  21.634  -7.563  0.00  0.00     0.001 A 
HETATM   12  C   UNK N   1      25.844  20.822  -8.318  0.00  0.00     0.001 A 
HETATM   13  C   UNK N   1      29.915  22.463  -3.561  0.00  0.00     0.031 A 
HETATM   14  C   UNK N   1      30.881  20.955  -5.690  0.00  0.00     0.021 A 
HETATM   15  C   UNK N   1      30.863  21.465  -3.331  0.00  0.00     0.002 A 
HETATM   16  C   UNK N   1      31.339  20.702  -4.396  0.00  0.00     0.002 A 
ENDROOT
BRANCH   4  17
HETATM   17  N   UNK N   1      26.660  25.111  -5.562  0.00  0.00    -0.363 N 
HETATM   18  C   UNK N   1      25.846  25.334  -4.386  0.00  0.00     0.154 C 
HETATM   19  C   UNK N   1      26.219  26.685  -3.774  0.00  0.00     0.292 C 
HETATM   20  N   UNK N   1      26.148  27.755  -4.777  0.00  0.00     0.093 N 
HETATM   21  C   UNK N   1      27.083  27.454  -5.870  0.00  0.00     0.292 C 
HETATM   22  C   UNK N   1      26.666  26.158  -6.559  0.00  0.00     0.154 C 
BRANCH  20  23
HETATM   23  C   UNK N   1      26.584  28.971  -4.093  0.00  0.00     0.298 C 
BRANCH  23  24
HETATM   24  C   UNK N   1      27.728  28.729  -3.110  0.00  0.00     0.198 C 
BRANCH  24  25
HETATM   25  O   UNK N   1      27.398  29.171  -1.826  0.00  0.00    -0.387 OA
BRANCH  25  26
HETATM   26  C   UNK N   1      28.370  30.127  -1.518  0.00  0.00     0.193 C 
BRANCH  26  27
HETATM   27  C   UNK N   1      28.847  29.945  -0.087  0.00  0.00     0.190 C 
BRANCH  27  28
HETATM   28  O   UNK N   1      27.816  29.407   0.684  0.00  0.00    -0.399 OA
HETATM   29  H   UNK N   1      27.276  28.679   0.337  0.00  0.00     0.209 HD
ENDBRANCH  27  28
ENDBRANCH  26  27
ENDBRANCH  25  26
ENDBRANCH  24  25
ENDBRANCH  23  24
ENDBRANCH  20  23
ENDBRANCH   4  17
TORSDOF 7
ENDMDL
MODEL 7
REMARK VINA RESULT:      -6.3     13.685     17.232
REMARK  7 active torsions:
REMARK  status: ('A' for Active; 'I' for Inactive)
REMARK    1  A    between atoms: O_2  and  C_14 
REMARK    2  A    between atoms: O_2  and  C_21 
REMARK    3  A    between atoms: O_3  and  C_26 
REMARK    4  A    between atoms: N_4  and  C_12 
REMARK    5  A    between atoms: N_5  and  C_13 
REMARK    6  A    between atoms: C_12  and  C_14 
REMARK    7  A    between atoms: C_21  and  C_26 
ROOT
HETATM    1  S   UNK N   1      37.165  10.222  15.153  0.00  0.00    -0.087 SA
HETATM    2  N   UNK N   1      36.243  13.217  14.764  0.00  0.00    -0.341 N 
ATOM      3  HN  UNK N   1      36.574  14.176  14.860  1.00  0.00     0.167 HD
HETATM    4  C   UNK N   1      36.170  12.800  13.532  0.00  0.00     0.115 C 
HETATM    5  C   UNK N   1      35.639  11.439  13.157  0.00  0.00     0.025 A 
HETATM    6  C   UNK N   1      35.942  10.255  13.862  0.00  0.00     0.019 A 
HETATM    7  C   UNK N   1      34.799  11.343  12.031  0.00  0.00     0.016 A 
HETATM    8  C   UNK N   1      35.947  12.578  16.002  0.00  0.00     0.051 A 
HETATM    9  C   UNK N   1      36.261  11.237  16.292  0.00  0.00     0.032 A 
HETATM   10  C   UNK N   1      35.402   9.029  13.448  0.00  0.00     0.020 A 
HETATM   11  C   UNK N   1      34.260  10.120  11.628  0.00  0.00     0.001 A 
HETATM   12  C   UNK N   1      34.552   8.964  12.345  0.00  0.00     0.001 A 
HETATM   13  C   UNK N   1      35.382  13.372  17.011  0.00  0.00     0.031 A 
HETATM   14  C   UNK N   1      35.980  10.712  17.560  0.00  0.00     0.021 A 
HETATM   15  C   UNK N   1      35.101  12.843  18.271  0.00  0.00     0.002 A 
HETATM   16  C   UNK N   1      35.391  11.508  18.543  0.00  0.00     0.002 A 
ENDROOT
BRANCH   4  17
HETATM   17  N   UNK N   1      36.450  13.764  12.503  0.00  0.00    -0.363 N 
HETATM   18  C   UNK N   1      37.234  13.451  11.327  0.00  0.00     0.154 C 
HETATM   19  C   UNK N   1      36.436  13.841  10.082  0.00  0.00     0.292 C 
HETATM   20  N   UNK N   1      35.983  15.236  10.162  0.00  0.00     0.093 N 
HETATM   21  C   UNK N   1      35.127  15.398  11.345  0.00  0.00     0.292 C 
HETATM   22  C   UNK N   1      35.936  15.111  12.607  0.00  0.00     0.154 C 
BRANCH  20  23
HETATM   23  C   UNK N   1      35.187  15.464   8.958  0.00  0.00     0.298 C 
BRANCH  23  24
HETATM   24  C   UNK N   1      35.315  14.342   7.931  0.00  0.00     0.198 C 
BRANCH  24  25
HETATM   25  O   UNK N   1      34.085  14.055   7.333  0.00  0.00    -0.387 OA
BRANCH  25  26
HETATM   26  C   UNK N   1      33.998  12.660   7.353  0.00  0.00     0.193 C 
BRANCH  26  27
HETATM   27  C   UNK N   1      33.419  12.192   8.678  0.00  0.00     0.190 C 
BRANCH  27  28
HETATM   28  O   UNK N   1      32.332  12.996   9.022  0.00  0.00    -0.399 OA
HETATM   29  H   UNK N   1      31.465  12.596   9.194  0.00  0.00     0.209 HD
ENDBRANCH  27  28
ENDBRANCH  26  27
ENDBRANCH  25  26
ENDBRANCH  24  25
ENDBRANCH  23  24
ENDBRANCH  20  23
ENDBRANCH   4  17
TORSDOF 7
ENDMDL
MODEL 8
REMARK VINA RESULT:      -6.2      5.133      7.787
REMARK  7 active torsions:
REMARK  status: ('A' for Active; 'I' for Inactive)
REMARK    1  A    between atoms: O_2  and  C_14 
REMARK    2  A    between atoms: O_2  and  C_21 
REMARK    3  A    between atoms: O_3  and  C_26 
REMARK    4  A    between atoms: N_4  and  C_12 
REMARK    5  A    between atoms: N_5  and  C_13 
REMARK    6  A    between atoms: C_12  and  C_14 
REMARK    7  A    between atoms: C_21  and  C_26 
ROOT
HETATM    1  S   UNK N   1      28.558  17.956   7.327  0.00  0.00    -0.087 SA
HETATM    2  N   UNK N   1      27.693  15.470   5.584  0.00  0.00    -0.341 N 
ATOM      3  HN  UNK N   1      27.427  14.488   5.663  1.00  0.00     0.167 HD
HETATM    4  C   UNK N   1      26.697  16.272   5.336  0.00  0.00     0.115 C 
HETATM    5  C   UNK N   1      26.873  17.752   5.111  0.00  0.00     0.025 A 
HETATM    6  C   UNK N   1      27.739  18.566   5.872  0.00  0.00     0.019 A 
HETATM    7  C   UNK N   1      26.122  18.360   4.086  0.00  0.00     0.016 A 
HETATM    8  C   UNK N   1      29.085  15.711   5.765  0.00  0.00     0.051 A 
HETATM    9  C   UNK N   1      29.608  16.805   6.480  0.00  0.00     0.032 A 
HETATM   10  C   UNK N   1      27.847  19.936   5.592  0.00  0.00     0.020 A 
HETATM   11  C   UNK N   1      26.238  19.724   3.809  0.00  0.00     0.001 A 
HETATM   12  C   UNK N   1      27.111  20.510   4.555  0.00  0.00     0.001 A 
HETATM   13  C   UNK N   1      29.970  14.746   5.263  0.00  0.00     0.031 A 
HETATM   14  C   UNK N   1      30.994  16.929   6.652  0.00  0.00     0.021 A 
HETATM   15  C   UNK N   1      31.349  14.876   5.434  0.00  0.00     0.002 A 
HETATM   16  C   UNK N   1      31.863  15.975   6.121  0.00  0.00     0.002 A 
ENDROOT
BRANCH   4  17
HETATM   17  N   UNK N   1      25.415  15.663   5.104  0.00  0.00    -0.363 N 
HETATM   18  C   UNK N   1      24.308  15.786   6.028  0.00  0.00     0.154 C 
HETATM   19  C   UNK N   1      23.084  16.299   5.269  0.00  0.00     0.292 C 
HETATM   20  N   UNK N   1      22.807  15.466   4.091  0.00  0.00     0.093 N 
HETATM   21  C   UNK N   1      23.971  15.497   3.194  0.00  0.00     0.292 C 
HETATM   22  C   UNK N   1      25.181  14.895   3.902  0.00  0.00     0.154 C 
BRANCH  20  23
HETATM   23  C   UNK N   1      21.668  16.090   3.422  0.00  0.00     0.298 C 
BRANCH  23  24
HETATM   24  C   UNK N   1      21.590  17.598   3.649  0.00  0.00     0.198 C 
BRANCH  24  25
HETATM   25  O   UNK N   1      20.463  18.149   3.032  0.00  0.00    -0.387 OA
BRANCH  25  26
HETATM   26  C   UNK N   1      20.945  19.267   2.347  0.00  0.00     0.193 C 
BRANCH  26  27
HETATM   27  C   UNK N   1      20.615  20.534   3.118  0.00  0.00     0.190 C 
BRANCH  27  28
HETATM   28  O   UNK N   1      21.455  21.567   2.701  0.00  0.00    -0.399 OA
HETATM   29  H   UNK N   1      21.080  22.408   2.395  0.00  0.00     0.209 HD
ENDBRANCH  27  28
ENDBRANCH  26  27
ENDBRANCH  25  26
ENDBRANCH  24  25
ENDBRANCH  23  24
ENDBRANCH  20  23
ENDBRANCH   4  17
TORSDOF 7
ENDMDL
MODEL 9
REMARK VINA RESULT:      -6.2      2.107      2.865
REMARK  7 active torsions:
REMARK  status: ('A' for Active; 'I' for Inactive)
REMARK    1  A    between atoms: O_2  and  C_14 
REMARK    2  A    between atoms: O_2  and  C_21 
REMARK    3  A    between atoms: O_3  and  C_26 
REMARK    4  A    between atoms: N_4  and  C_12 
REMARK    5  A    between atoms: N_5  and  C_13 
REMARK    6  A    between atoms: C_12  and  C_14 
REMARK    7  A    between atoms: C_21  and  C_26 
ROOT
HETATM    1  S   UNK N   1      19.886  16.266   1.747  0.00  0.00    -0.087 SA
HETATM    2  N   UNK N   1      20.937  17.222   4.566  0.00  0.00    -0.341 N 
ATOM      3  HN  UNK N   1      20.613  17.595   5.458  1.00  0.00     0.167 HD
HETATM    4  C   UNK N   1      21.290  15.969   4.611  0.00  0.00     0.115 C 
HETATM    5  C   UNK N   1      21.865  15.237   3.425  0.00  0.00     0.025 A 
HETATM    6  C   UNK N   1      21.379  15.370   2.106  0.00  0.00     0.019 A 
HETATM    7  C   UNK N   1      22.945  14.361   3.647  0.00  0.00     0.016 A 
HETATM    8  C   UNK N   1      20.919  18.167   3.501  0.00  0.00     0.051 A 
HETATM    9  C   UNK N   1      20.517  17.864   2.186  0.00  0.00     0.032 A 
HETATM   10  C   UNK N   1      21.976  14.655   1.059  0.00  0.00     0.020 A 
HETATM   11  C   UNK N   1      23.538  13.656   2.598  0.00  0.00     0.001 A 
HETATM   12  C   UNK N   1      23.061  13.813   1.301  0.00  0.00     0.001 A 
HETATM   13  C   UNK N   1      21.246  19.493   3.818  0.00  0.00     0.031 A 
HETATM   14  C   UNK N   1      20.480  18.875   1.216  0.00  0.00     0.021 A 
HETATM   15  C   UNK N   1      21.211  20.495   2.848  0.00  0.00     0.002 A 
HETATM   16  C   UNK N   1      20.837  20.184   1.542  0.00  0.00     0.002 A 
ENDROOT
BRANCH   4  17
HETATM   17  N   UNK N   1      21.281  15.337   5.902  0.00  0.00    -0.363 N 
HETATM   18  C   UNK N   1      20.347  14.290   6.257  0.00  0.00     0.154 C 
HETATM   19  C   UNK N   1      21.130  13.087   6.784  0.00  0.00     0.292 C 
HETATM   20  N   UNK N   1      22.043  13.483   7.864  0.00  0.00     0.093 N 
HETATM   21  C   UNK N   1      22.992  14.481   7.351  0.00  0.00     0.292 C 
HETATM   22  C   UNK N   1      22.236  15.732   6.913  0.00  0.00     0.154 C 
BRANCH  20  23
HETATM   23  C   UNK N   1      22.772  12.272   8.234  0.00  0.00     0.298 C 
BRANCH  23  24
HETATM   24  C   UNK N   1      23.620  12.442   9.492  0.00  0.00     0.198 C 
BRANCH  24  25
HETATM   25  O   UNK N   1      22.834  12.398  10.646  0.00  0.00    -0.387 OA
BRANCH  25  26
HETATM   26  C   UNK N   1      23.655  11.811  11.613  0.00  0.00     0.193 C 
BRANCH  26  27
HETATM   27  C   UNK N   1      22.962  11.827  12.965  0.00  0.00     0.190 C 
BRANCH  27  28
HETATM   28  O   UNK N   1      23.760  12.501  13.890  0.00  0.00    -0.399 OA
HETATM   29  H   UNK N   1      24.669  12.207  14.056  0.00  0.00     0.209 HD
ENDBRANCH  27  28
ENDBRANCH  26  27
ENDBRANCH  25  26
ENDBRANCH  24  25
ENDBRANCH  23  24
ENDBRANCH  20  23
ENDBRANCH   4  17
TORSDOF 7
ENDMDL
