REMARK  7 active torsions:
REMARK  status: ('A' for Active; 'I' for Inactive)
REMARK    1  A    between atoms: O_2  and  C_14 
REMARK    2  A    between atoms: O_2  and  C_21 
REMARK    3  A    between atoms: O_3  and  C_26 
REMARK    4  A    between atoms: N_4  and  C_12 
REMARK    5  A    between atoms: N_5  and  C_13 
REMARK    6  A    between atoms: C_12  and  C_14 
REMARK    7  A    between atoms: C_21  and  C_26 
ROOT
HETATM    1  S   UNK N   1       4.694  -5.618  -1.516  0.00  0.00    -0.087 SA
HETATM    2  N   UNK N   1       5.010  -2.700  -0.353  0.00  0.00    -0.341 N 
ATOM      3  HN  UNK N   1       5.397  -1.784  -0.579  1.00  0.00     0.167 HD
HETATM    4  C   UNK N   1       3.712  -2.765  -0.439  0.00  0.00     0.115 C 
HETATM    5  C   UNK N   1       2.928  -4.002  -0.080  0.00  0.00     0.025 A 
HETATM    6  C   UNK N   1       3.323  -5.312  -0.426  0.00  0.00     0.019 A 
HETATM    7  C   UNK N   1       1.725  -3.840   0.634  0.00  0.00     0.016 A 
HETATM    8  C   UNK N   1       5.989  -3.673  -0.001  0.00  0.00     0.051 A 
HETATM    9  C   UNK N   1       5.946  -5.018  -0.413  0.00  0.00     0.032 A 
HETATM   10  C   UNK N   1       2.536  -6.409  -0.048  0.00  0.00     0.020 A 
HETATM   11  C   UNK N   1       0.949  -4.937   1.012  0.00  0.00     0.001 A 
HETATM   12  C   UNK N   1       1.362  -6.224   0.681  0.00  0.00     0.001 A 
HETATM   13  C   UNK N   1       7.098  -3.226   0.732  0.00  0.00     0.031 A 
HETATM   14  C   UNK N   1       6.986  -5.890  -0.062  0.00  0.00     0.021 A 
HETATM   15  C   UNK N   1       8.129  -4.099   1.082  0.00  0.00     0.002 A 
HETATM   16  C   UNK N   1       8.068  -5.436   0.693  0.00  0.00     0.002 A 
ENDROOT
BRANCH   4  17
HETATM   17  N   UNK N   1       3.018  -1.539  -0.724  0.00  0.00    -0.363 N 
HETATM   18  C   UNK N   1       1.605  -1.490  -1.033  0.00  0.00     0.154 C 
HETATM   19  C   UNK N   1       0.928  -0.487  -0.098  0.00  0.00     0.292 C 
HETATM   20  N   UNK N   1       1.608   0.814  -0.139  0.00  0.00     0.093 N 
HETATM   21  C   UNK N   1       3.006   0.641   0.280  0.00  0.00     0.292 C 
HETATM   22  C   UNK N   1       3.726  -0.279  -0.701  0.00  0.00     0.154 C 
BRANCH  20  23
HETATM   23  C   UNK N   1       0.915   1.656   0.834  0.00  0.00     0.298 C 
BRANCH  23  24
HETATM   24  C   UNK N   1       1.511   3.057   0.948  0.00  0.00     0.198 C 
BRANCH  24  25
HETATM   25  O   UNK N   1       1.397   3.759  -0.255  0.00  0.00    -0.387 OA
BRANCH  25  26
HETATM   26  C   UNK N   1       2.671   4.287  -0.480  0.00  0.00     0.193 C 
BRANCH  26  27
HETATM   27  C   UNK N   1       2.730   5.729  -0.004  0.00  0.00     0.190 C 
BRANCH  27  28
HETATM   28  O   UNK N   1       4.035   6.207  -0.124  0.00  0.00    -0.399 OA
HETATM   29  H   UNK N   1       4.776   5.587  -0.208  0.00  0.00     0.209 HD
ENDBRANCH  27  28
ENDBRANCH  26  27
ENDBRANCH  25  26
ENDBRANCH  24  25
ENDBRANCH  23  24
ENDBRANCH  20  23
ENDBRANCH   4  17
TORSDOF 7
