MODEL 1
REMARK VINA RESULT:      -7.1      0.000      0.000
REMARK  30 active torsions:
REMARK  status: ('A' for Active; 'I' for Inactive)
REMARK    1  A    between atoms: O_1  and  C_41 
REMARK    2  A    between atoms: O_1  and  C_57 
REMARK    3  A    between atoms: O_2  and  C_42 
REMARK    4  A    between atoms: O_2  and  C_58 
REMARK    5  A    between atoms: O_3  and  C_43 
REMARK    6  A    between atoms: O_4  and  C_44 
REMARK    7  A    between atoms: O_5  and  C_45 
REMARK    8  A    between atoms: O_6  and  C_46 
REMARK    9  A    between atoms: O_7  and  C_51 
REMARK   10  A    between atoms: O_8  and  C_52 
REMARK   11  A    between atoms: O_9  and  C_53 
REMARK   12  A    between atoms: O_10  and  C_54 
REMARK   13  A    between atoms: O_11  and  C_55 
REMARK   14  A    between atoms: O_12  and  C_56 
REMARK   15  A    between atoms: N_15  and  C_21 
REMARK   16  A    between atoms: N_16  and  C_22 
REMARK   17  A    between atoms: C_17  and  C_29 
REMARK   18  A    between atoms: C_18  and  C_30 
REMARK   19  A    between atoms: C_21  and  C_33 
REMARK   20  A    between atoms: C_22  and  C_34 
REMARK   21  A    between atoms: C_29  and  C_37 
REMARK   22  A    between atoms: C_30  and  C_38 
REMARK   23  A    between atoms: C_33  and  C_41 
REMARK   24  A    between atoms: C_34  and  C_42 
REMARK   25  A    between atoms: C_57  and  C_63 
REMARK   26  A    between atoms: C_58  and  C_64 
REMARK   27  A    between atoms: C_63  and  C_65 
REMARK   28  A    between atoms: C_64  and  C_66 
REMARK   29  A    between atoms: C_65  and  C_73 
REMARK   30  A    between atoms: C_66  and  C_74 
ROOT
HETATM    1  C   UNK N   1      24.449  18.151   4.415  0.00  0.00    -0.030 C 
HETATM    2  C   UNK N   1      23.649  19.192   4.131  0.00  0.00    -0.030 C 
ENDROOT
BRANCH   1   3
HETATM    3  C   UNK N   1      25.532  17.650   3.515  0.00  0.00     0.037 C 
BRANCH   3   4
HETATM    4  C   UNK N   1      25.986  16.253   3.932  0.00  0.00     0.115 C 
BRANCH   4   5
HETATM    5  C   UNK N   1      26.550  15.473   2.773  0.00  0.00     0.259 C 
HETATM    6  O   UNK N   1      26.129  15.695   1.650  0.00  0.00    -0.265 OA
BRANCH   5   7
HETATM    7  O   UNK N   1      27.548  14.568   2.934  0.00  0.00    -0.321 OA
BRANCH   7   8
HETATM    8  C   UNK N   1      28.311  14.083   1.894  0.00  0.00     0.180 C 
BRANCH   8   9
HETATM    9  C   UNK N   1      29.729  13.836   2.376  0.00  0.00     0.055 C 
BRANCH   9  10
HETATM   10  C   UNK N   1      29.939  14.203   3.859  0.00  0.00     0.240 C 
BRANCH  10  11
HETATM   11  N   UNK N   1      31.137  15.020   4.151  0.00  0.00    -0.062 N 
HETATM   12  C   UNK N   1      31.075  15.533   5.537  0.00  0.00     0.227 C 
HETATM   13  C   UNK N   1      30.106  16.680   5.775  0.00  0.00    -0.018 A 
HETATM   14  C   UNK N   1      29.598  17.401   4.682  0.00  0.00    -0.045 A 
HETATM   15  C   UNK N   1      29.694  17.022   7.064  0.00  0.00     0.049 A 
HETATM   16  C   UNK N   1      30.031  17.096   3.283  0.00  0.00     0.067 C 
HETATM   17  C   UNK N   1      28.663  18.415   4.889  0.00  0.00     0.047 A 
HETATM   18  C   UNK N   1      31.254  16.174   3.250  0.00  0.00     0.242 C 
HETATM   19  C   UNK N   1      28.219  18.736   6.184  0.00  0.00     0.102 A 
HETATM   20  C   UNK N   1      28.748  18.023   7.290  0.00  0.00     0.102 A 
HETATM   21  C   UNK N   1      32.356  14.229   3.983  0.00  0.00     0.273 C 
BRANCH  12  22
HETATM   22  C   UNK N   1      31.518  14.580   6.680  0.00  0.00     0.077 C 
BRANCH  22  23
HETATM   23  C   UNK N   1      32.775  14.854   7.465  0.00  0.00    -0.050 A 
HETATM   24  C   UNK N   1      33.559  13.824   7.970  0.00  0.00     0.047 A 
HETATM   25  C   UNK N   1      34.587  14.054   8.881  0.00  0.00     0.104 A 
HETATM   26  C   UNK N   1      34.851  15.382   9.316  0.00  0.00     0.135 A 
HETATM   27  C   UNK N   1      34.066  16.447   8.785  0.00  0.00     0.104 A 
HETATM   28  C   UNK N   1      33.029  16.158   7.878  0.00  0.00     0.047 A 
BRANCH  25  29
HETATM   29  O   UNK N   1      35.263  12.963   9.331  0.00  0.00    -0.353 OA
HETATM   30  C   UNK N   1      34.856  12.113  10.332  0.00  0.00     0.210 C 
ENDBRANCH  25  29
BRANCH  26  31
HETATM   31  O   UNK N   1      35.837  15.591  10.231  0.00  0.00    -0.351 OA
HETATM   32  C   UNK N   1      35.682  15.629  11.598  0.00  0.00     0.210 C 
ENDBRANCH  26  31
BRANCH  27  33
HETATM   33  O   UNK N   1      34.304  17.729   9.160  0.00  0.00    -0.353 OA
HETATM   34  C   UNK N   1      34.821  18.687   8.317  0.00  0.00     0.210 C 
ENDBRANCH  27  33
ENDBRANCH  22  23
ENDBRANCH  12  22
BRANCH  19  35
HETATM   35  O   UNK N   1      27.298  19.714   6.370  0.00  0.00    -0.353 OA
HETATM   36  C   UNK N   1      27.170  20.806   5.539  0.00  0.00     0.210 C 
ENDBRANCH  19  35
BRANCH  20  37
HETATM   37  O   UNK N   1      28.372  18.243   8.578  0.00  0.00    -0.353 OA
HETATM   38  C   UNK N   1      29.209  18.235   9.668  0.00  0.00     0.210 C 
ENDBRANCH  20  37
ENDBRANCH  10  11
ENDBRANCH   9  10
ENDBRANCH   8   9
ENDBRANCH   7   8
ENDBRANCH   5   7
ENDBRANCH   4   5
ENDBRANCH   3   4
ENDBRANCH   1   3
BRANCH   2  39
HETATM   39  C   UNK N   1      23.753  20.092   2.927  0.00  0.00     0.037 C 
BRANCH  39  40
HETATM   40  C   UNK N   1      22.505  20.912   2.633  0.00  0.00     0.115 C 
BRANCH  40  41
HETATM   41  C   UNK N   1      21.535  20.317   1.625  0.00  0.00     0.259 C 
HETATM   42  O   UNK N   1      21.458  20.852   0.533  0.00  0.00    -0.265 OA
BRANCH  41  43
HETATM   43  O   UNK N   1      20.744  19.232   1.863  0.00  0.00    -0.321 OA
BRANCH  43  44
HETATM   44  C   UNK N   1      20.191  18.871   3.071  0.00  0.00     0.180 C 
BRANCH  44  45
HETATM   45  C   UNK N   1      19.414  17.575   2.915  0.00  0.00     0.055 C 
BRANCH  45  46
HETATM   46  C   UNK N   1      20.314  16.360   2.611  0.00  0.00     0.240 C 
BRANCH  46  47
HETATM   47  N   UNK N   1      20.144  15.198   3.510  0.00  0.00    -0.062 N 
HETATM   48  C   UNK N   1      21.452  14.555   3.758  0.00  0.00     0.227 C 
HETATM   49  C   UNK N   1      22.014  13.742   2.604  0.00  0.00    -0.018 A 
HETATM   50  C   UNK N   1      21.167  13.342   1.556  0.00  0.00    -0.045 A 
HETATM   51  C   UNK N   1      23.367  13.400   2.551  0.00  0.00     0.049 A 
HETATM   52  C   UNK N   1      19.707  13.661   1.575  0.00  0.00     0.067 C 
HETATM   53  C   UNK N   1      21.689  12.645   0.466  0.00  0.00     0.047 A 
HETATM   54  C   UNK N   1      19.246  14.184   2.941  0.00  0.00     0.242 C 
HETATM   55  C   UNK N   1      23.058  12.333   0.395  0.00  0.00     0.102 A 
HETATM   56  C   UNK N   1      23.911  12.720   1.461  0.00  0.00     0.102 A 
HETATM   57  C   UNK N   1      19.556  15.612   4.784  0.00  0.00     0.273 C 
BRANCH  48  58
HETATM   58  C   UNK N   1      22.360  15.153   4.866  0.00  0.00     0.077 C 
BRANCH  58  59
HETATM   59  C   UNK N   1      22.660  14.374   6.121  0.00  0.00    -0.050 A 
HETATM   60  C   UNK N   1      23.354  13.171   6.082  0.00  0.00     0.047 A 
HETATM   61  C   UNK N   1      23.436  12.328   7.186  0.00  0.00     0.104 A 
HETATM   62  C   UNK N   1      22.789  12.696   8.397  0.00  0.00     0.135 A 
HETATM   63  C   UNK N   1      22.094  13.940   8.454  0.00  0.00     0.104 A 
HETATM   64  C   UNK N   1      22.030  14.750   7.304  0.00  0.00     0.047 A 
BRANCH  61  65
HETATM   65  O   UNK N   1      24.116  11.162   7.017  0.00  0.00    -0.353 OA
HETATM   66  C   UNK N   1      24.477  10.602   5.815  0.00  0.00     0.210 C 
ENDBRANCH  61  65
BRANCH  62  67
HETATM   67  O   UNK N   1      22.847  11.846   9.460  0.00  0.00    -0.351 OA
HETATM   68  C   UNK N   1      23.725  11.924  10.517  0.00  0.00     0.210 C 
ENDBRANCH  62  67
BRANCH  63  69
HETATM   69  O   UNK N   1      21.483  14.334   9.599  0.00  0.00    -0.353 OA
HETATM   70  C   UNK N   1      20.293  13.808  10.049  0.00  0.00     0.210 C 
ENDBRANCH  63  69
ENDBRANCH  58  59
ENDBRANCH  48  58
BRANCH  55  71
HETATM   71  O   UNK N   1      23.554  11.668  -0.677  0.00  0.00    -0.353 OA
HETATM   72  C   UNK N   1      23.540  10.295  -0.795  0.00  0.00     0.210 C 
ENDBRANCH  55  71
BRANCH  56  73
HETATM   73  O   UNK N   1      25.249  12.484   1.479  0.00  0.00    -0.353 OA
HETATM   74  C   UNK N   1      25.860  11.393   2.050  0.00  0.00     0.210 C 
ENDBRANCH  56  73
ENDBRANCH  46  47
ENDBRANCH  45  46
ENDBRANCH  44  45
ENDBRANCH  43  44
ENDBRANCH  41  43
ENDBRANCH  40  41
ENDBRANCH  39  40
ENDBRANCH   2  39
TORSDOF 30
ENDMDL
MODEL 2
REMARK VINA RESULT:      -6.7      2.156      3.494
REMARK  30 active torsions:
REMARK  status: ('A' for Active; 'I' for Inactive)
REMARK    1  A    between atoms: O_1  and  C_41 
REMARK    2  A    between atoms: O_1  and  C_57 
REMARK    3  A    between atoms: O_2  and  C_42 
REMARK    4  A    between atoms: O_2  and  C_58 
REMARK    5  A    between atoms: O_3  and  C_43 
REMARK    6  A    between atoms: O_4  and  C_44 
REMARK    7  A    between atoms: O_5  and  C_45 
REMARK    8  A    between atoms: O_6  and  C_46 
REMARK    9  A    between atoms: O_7  and  C_51 
REMARK   10  A    between atoms: O_8  and  C_52 
REMARK   11  A    between atoms: O_9  and  C_53 
REMARK   12  A    between atoms: O_10  and  C_54 
REMARK   13  A    between atoms: O_11  and  C_55 
REMARK   14  A    between atoms: O_12  and  C_56 
REMARK   15  A    between atoms: N_15  and  C_21 
REMARK   16  A    between atoms: N_16  and  C_22 
REMARK   17  A    between atoms: C_17  and  C_29 
REMARK   18  A    between atoms: C_18  and  C_30 
REMARK   19  A    between atoms: C_21  and  C_33 
REMARK   20  A    between atoms: C_22  and  C_34 
REMARK   21  A    between atoms: C_29  and  C_37 
REMARK   22  A    between atoms: C_30  and  C_38 
REMARK   23  A    between atoms: C_33  and  C_41 
REMARK   24  A    between atoms: C_34  and  C_42 
REMARK   25  A    between atoms: C_57  and  C_63 
REMARK   26  A    between atoms: C_58  and  C_64 
REMARK   27  A    between atoms: C_63  and  C_65 
REMARK   28  A    between atoms: C_64  and  C_66 
REMARK   29  A    between atoms: C_65  and  C_73 
REMARK   30  A    between atoms: C_66  and  C_74 
ROOT
HETATM    1  C   UNK N   1      28.111  14.220   1.929  0.00  0.00    -0.030 C 
HETATM    2  C   UNK N   1      27.786  15.262   2.712  0.00  0.00    -0.030 C 
ENDROOT
BRANCH   1   3
HETATM    3  C   UNK N   1      27.372  12.921   1.905  0.00  0.00     0.037 C 
BRANCH   3   4
HETATM    4  C   UNK N   1      28.266  11.775   2.373  0.00  0.00     0.115 C 
BRANCH   4   5
HETATM    5  C   UNK N   1      29.327  11.436   1.360  0.00  0.00     0.259 C 
HETATM    6  O   UNK N   1      29.006  11.294   0.191  0.00  0.00    -0.265 OA
BRANCH   5   7
HETATM    7  O   UNK N   1      30.637  11.333   1.697  0.00  0.00    -0.321 OA
BRANCH   7   8
HETATM    8  C   UNK N   1      31.503  12.403   1.725  0.00  0.00     0.180 C 
BRANCH   8   9
HETATM    9  C   UNK N   1      31.785  12.792   3.165  0.00  0.00     0.055 C 
BRANCH   9  10
HETATM   10  C   UNK N   1      31.280  14.205   3.523  0.00  0.00     0.240 C 
BRANCH  10  11
HETATM   11  N   UNK N   1      32.259  15.081   4.201  0.00  0.00    -0.062 N 
HETATM   12  C   UNK N   1      31.810  15.373   5.579  0.00  0.00     0.227 C 
HETATM   13  C   UNK N   1      30.670  16.372   5.706  0.00  0.00    -0.018 A 
HETATM   14  C   UNK N   1      30.340  17.195   4.617  0.00  0.00    -0.045 A 
HETATM   15  C   UNK N   1      29.929  16.475   6.884  0.00  0.00     0.049 A 
HETATM   16  C   UNK N   1      31.123  17.146   3.343  0.00  0.00     0.067 C 
HETATM   17  C   UNK N   1      29.258  18.070   4.706  0.00  0.00     0.047 A 
HETATM   18  C   UNK N   1      32.430  16.363   3.504  0.00  0.00     0.242 C 
HETATM   19  C   UNK N   1      28.487  18.149   5.879  0.00  0.00     0.102 A 
HETATM   20  C   UNK N   1      28.833  17.334   6.987  0.00  0.00     0.102 A 
HETATM   21  C   UNK N   1      33.577  14.448   4.246  0.00  0.00     0.273 C 
BRANCH  12  22
HETATM   22  C   UNK N   1      32.095  14.308   6.672  0.00  0.00     0.077 C 
BRANCH  22  23
HETATM   23  C   UNK N   1      33.020  14.616   7.821  0.00  0.00    -0.050 A 
HETATM   24  C   UNK N   1      33.380  15.920   8.139  0.00  0.00     0.047 A 
HETATM   25  C   UNK N   1      34.401  16.208   9.042  0.00  0.00     0.104 A 
HETATM   26  C   UNK N   1      35.104  15.139   9.664  0.00  0.00     0.135 A 
HETATM   27  C   UNK N   1      34.725  13.799   9.362  0.00  0.00     0.104 A 
HETATM   28  C   UNK N   1      33.696  13.564   8.430  0.00  0.00     0.047 A 
BRANCH  25  29
HETATM   29  O   UNK N   1      34.687  17.521   9.247  0.00  0.00    -0.353 OA
HETATM   30  C   UNK N   1      34.626  18.520   8.305  0.00  0.00     0.210 C 
ENDBRANCH  25  29
BRANCH  26  31
HETATM   31  O   UNK N   1      36.122  15.432  10.520  0.00  0.00    -0.351 OA
HETATM   32  C   UNK N   1      36.020  15.571  11.885  0.00  0.00     0.210 C 
ENDBRANCH  26  31
BRANCH  27  33
HETATM   33  O   UNK N   1      35.359  12.755   9.953  0.00  0.00    -0.353 OA
HETATM   34  C   UNK N   1      34.759  11.915  10.863  0.00  0.00     0.210 C 
ENDBRANCH  27  33
ENDBRANCH  22  23
ENDBRANCH  12  22
BRANCH  19  35
HETATM   35  O   UNK N   1      27.429  18.994   5.947  0.00  0.00    -0.353 OA
HETATM   36  C   UNK N   1      27.532  20.313   6.331  0.00  0.00     0.210 C 
ENDBRANCH  19  35
BRANCH  20  37
HETATM   37  O   UNK N   1      28.142  17.321   8.158  0.00  0.00    -0.353 OA
HETATM   38  C   UNK N   1      28.435  18.078   9.267  0.00  0.00     0.210 C 
ENDBRANCH  20  37
ENDBRANCH  10  11
ENDBRANCH   9  10
ENDBRANCH   8   9
ENDBRANCH   7   8
ENDBRANCH   5   7
ENDBRANCH   4   5
ENDBRANCH   3   4
ENDBRANCH   1   3
BRANCH   2  39
HETATM   39  C   UNK N   1      26.586  15.354   3.619  0.00  0.00     0.037 C 
BRANCH  39  40
HETATM   40  C   UNK N   1      26.856  14.991   5.073  0.00  0.00     0.115 C 
BRANCH  40  41
HETATM   41  C   UNK N   1      25.667  15.079   6.015  0.00  0.00     0.259 C 
HETATM   42  O   UNK N   1      25.891  15.031   7.212  0.00  0.00    -0.265 OA
BRANCH  41  43
HETATM   43  O   UNK N   1      24.369  15.200   5.613  0.00  0.00    -0.321 OA
BRANCH  43  44
HETATM   44  C   UNK N   1      23.586  16.328   5.705  0.00  0.00     0.180 C 
BRANCH  44  45
HETATM   45  C   UNK N   1      22.804  16.518   4.417  0.00  0.00     0.055 C 
BRANCH  45  46
HETATM   46  C   UNK N   1      22.859  15.292   3.485  0.00  0.00     0.240 C 
BRANCH  46  47
HETATM   47  N   UNK N   1      21.576  14.905   2.861  0.00  0.00    -0.062 N 
HETATM   48  C   UNK N   1      21.231  13.516   3.232  0.00  0.00     0.227 C 
HETATM   49  C   UNK N   1      22.040  12.431   2.540  0.00  0.00    -0.018 A 
HETATM   50  C   UNK N   1      22.771  12.740   1.380  0.00  0.00    -0.045 A 
HETATM   51  C   UNK N   1      22.092  11.132   3.048  0.00  0.00     0.049 A 
HETATM   52  C   UNK N   1      22.732  14.109   0.781  0.00  0.00     0.067 C 
HETATM   53  C   UNK N   1      23.561  11.763   0.774  0.00  0.00     0.047 A 
HETATM   54  C   UNK N   1      21.628  14.978   1.394  0.00  0.00     0.242 C 
HETATM   55  C   UNK N   1      23.643  10.464   1.306  0.00  0.00     0.102 A 
HETATM   56  C   UNK N   1      22.891  10.146   2.468  0.00  0.00     0.102 A 
HETATM   57  C   UNK N   1      20.501  15.802   3.288  0.00  0.00     0.273 C 
BRANCH  48  58
HETATM   58  C   UNK N   1      20.526  13.278   4.594  0.00  0.00     0.077 C 
BRANCH  58  59
HETATM   59  C   UNK N   1      21.274  13.448   5.891  0.00  0.00    -0.050 A 
HETATM   60  C   UNK N   1      22.316  12.601   6.246  0.00  0.00     0.047 A 
HETATM   61  C   UNK N   1      22.860  12.592   7.527  0.00  0.00     0.104 A 
HETATM   62  C   UNK N   1      22.336  13.470   8.515  0.00  0.00     0.135 A 
HETATM   63  C   UNK N   1      21.281  14.359   8.154  0.00  0.00     0.104 A 
HETATM   64  C   UNK N   1      20.759  14.319   6.847  0.00  0.00     0.047 A 
BRANCH  61  65
HETATM   65  O   UNK N   1      23.856  11.696   7.765  0.00  0.00    -0.353 OA
HETATM   66  C   UNK N   1      23.751  10.328   7.676  0.00  0.00     0.210 C 
ENDBRANCH  61  65
BRANCH  62  67
HETATM   67  O   UNK N   1      22.851  13.427   9.775  0.00  0.00    -0.351 OA
HETATM   68  C   UNK N   1      22.450  12.587  10.789  0.00  0.00     0.210 C 
ENDBRANCH  62  67
BRANCH  63  69
HETATM   69  O   UNK N   1      20.771  15.226   9.064  0.00  0.00    -0.353 OA
HETATM   70  C   UNK N   1      20.210  16.438   8.732  0.00  0.00     0.210 C 
ENDBRANCH  63  69
ENDBRANCH  58  59
ENDBRANCH  48  58
BRANCH  55  71
HETATM   71  O   UNK N   1      24.426   9.529   0.716  0.00  0.00    -0.353 OA
HETATM   72  C   UNK N   1      25.783   9.682   0.528  0.00  0.00     0.210 C 
ENDBRANCH  55  71
BRANCH  56  73
HETATM   73  O   UNK N   1      22.915   8.929   3.071  0.00  0.00    -0.353 OA
HETATM   74  C   UNK N   1      22.343   7.781   2.577  0.00  0.00     0.210 C 
ENDBRANCH  56  73
ENDBRANCH  46  47
ENDBRANCH  45  46
ENDBRANCH  44  45
ENDBRANCH  43  44
ENDBRANCH  41  43
ENDBRANCH  40  41
ENDBRANCH  39  40
ENDBRANCH   2  39
TORSDOF 30
ENDMDL
MODEL 3
REMARK VINA RESULT:      -6.6      3.179     12.467
REMARK  30 active torsions:
REMARK  status: ('A' for Active; 'I' for Inactive)
REMARK    1  A    between atoms: O_1  and  C_41 
REMARK    2  A    between atoms: O_1  and  C_57 
REMARK    3  A    between atoms: O_2  and  C_42 
REMARK    4  A    between atoms: O_2  and  C_58 
REMARK    5  A    between atoms: O_3  and  C_43 
REMARK    6  A    between atoms: O_4  and  C_44 
REMARK    7  A    between atoms: O_5  and  C_45 
REMARK    8  A    between atoms: O_6  and  C_46 
REMARK    9  A    between atoms: O_7  and  C_51 
REMARK   10  A    between atoms: O_8  and  C_52 
REMARK   11  A    between atoms: O_9  and  C_53 
REMARK   12  A    between atoms: O_10  and  C_54 
REMARK   13  A    between atoms: O_11  and  C_55 
REMARK   14  A    between atoms: O_12  and  C_56 
REMARK   15  A    between atoms: N_15  and  C_21 
REMARK   16  A    between atoms: N_16  and  C_22 
REMARK   17  A    between atoms: C_17  and  C_29 
REMARK   18  A    between atoms: C_18  and  C_30 
REMARK   19  A    between atoms: C_21  and  C_33 
REMARK   20  A    between atoms: C_22  and  C_34 
REMARK   21  A    between atoms: C_29  and  C_37 
REMARK   22  A    between atoms: C_30  and  C_38 
REMARK   23  A    between atoms: C_33  and  C_41 
REMARK   24  A    between atoms: C_34  and  C_42 
REMARK   25  A    between atoms: C_57  and  C_63 
REMARK   26  A    between atoms: C_58  and  C_64 
REMARK   27  A    between atoms: C_63  and  C_65 
REMARK   28  A    between atoms: C_64  and  C_66 
REMARK   29  A    between atoms: C_65  and  C_73 
REMARK   30  A    between atoms: C_66  and  C_74 
ROOT
HETATM    1  C   UNK N   1      31.630  16.242   3.197  0.00  0.00    -0.030 C 
HETATM    2  C   UNK N   1      32.269  17.335   3.647  0.00  0.00    -0.030 C 
ENDROOT
BRANCH   1   3
HETATM    3  C   UNK N   1      31.803  14.871   3.765  0.00  0.00     0.037 C 
BRANCH   3   4
HETATM    4  C   UNK N   1      32.697  14.017   2.869  0.00  0.00     0.115 C 
BRANCH   4   5
HETATM    5  C   UNK N   1      31.912  12.978   2.112  0.00  0.00     0.259 C 
HETATM    6  O   UNK N   1      32.449  11.920   1.830  0.00  0.00    -0.265 OA
BRANCH   5   7
HETATM    7  O   UNK N   1      30.609  13.162   1.779  0.00  0.00    -0.321 OA
BRANCH   7   8
HETATM    8  C   UNK N   1      29.682  12.144   1.738  0.00  0.00     0.180 C 
BRANCH   8   9
HETATM    9  C   UNK N   1      28.286  12.722   1.882  0.00  0.00     0.055 C 
BRANCH   9  10
HETATM   10  C   UNK N   1      28.229  13.945   2.819  0.00  0.00     0.240 C 
BRANCH  10  11
HETATM   11  N   UNK N   1      27.136  13.937   3.816  0.00  0.00    -0.062 N 
HETATM   12  C   UNK N   1      26.194  15.044   3.544  0.00  0.00     0.227 C 
HETATM   13  C   UNK N   1      26.676  16.433   3.929  0.00  0.00    -0.018 A 
HETATM   14  C   UNK N   1      27.774  16.575   4.794  0.00  0.00    -0.045 A 
HETATM   15  C   UNK N   1      26.057  17.578   3.425  0.00  0.00     0.049 A 
HETATM   16  C   UNK N   1      28.452  15.381   5.388  0.00  0.00     0.067 C 
HETATM   17  C   UNK N   1      28.258  17.846   5.104  0.00  0.00     0.047 A 
HETATM   18  C   UNK N   1      27.636  14.100   5.187  0.00  0.00     0.242 C 
HETATM   19  C   UNK N   1      27.660  18.999   4.566  0.00  0.00     0.102 A 
HETATM   20  C   UNK N   1      26.537  18.858   3.710  0.00  0.00     0.102 A 
HETATM   21  C   UNK N   1      26.413  12.667   3.780  0.00  0.00     0.273 C 
BRANCH  12  22
HETATM   22  C   UNK N   1      25.116  14.822   2.448  0.00  0.00     0.077 C 
BRANCH  22  23
HETATM   23  C   UNK N   1      23.663  15.104   2.731  0.00  0.00    -0.050 A 
HETATM   24  C   UNK N   1      22.684  14.927   1.761  0.00  0.00     0.047 A 
HETATM   25  C   UNK N   1      21.382  15.394   1.929  0.00  0.00     0.104 A 
HETATM   26  C   UNK N   1      21.034  16.075   3.128  0.00  0.00     0.135 A 
HETATM   27  C   UNK N   1      22.027  16.240   4.138  0.00  0.00     0.104 A 
HETATM   28  C   UNK N   1      23.331  15.762   3.911  0.00  0.00     0.047 A 
BRANCH  25  29
HETATM   29  O   UNK N   1      20.519  15.193   0.897  0.00  0.00    -0.353 OA
HETATM   30  C   UNK N   1      19.620  14.159   0.783  0.00  0.00     0.210 C 
ENDBRANCH  25  29
BRANCH  26  31
HETATM   31  O   UNK N   1      19.768  16.555   3.269  0.00  0.00    -0.351 OA
HETATM   32  C   UNK N   1      19.361  17.851   3.049  0.00  0.00     0.210 C 
ENDBRANCH  26  31
BRANCH  27  33
HETATM   33  O   UNK N   1      21.725  16.865   5.304  0.00  0.00    -0.353 OA
HETATM   34  C   UNK N   1      22.383  17.985   5.761  0.00  0.00     0.210 C 
ENDBRANCH  27  33
ENDBRANCH  22  23
ENDBRANCH  12  22
BRANCH  19  35
HETATM   35  O   UNK N   1      28.150  20.227   4.864  0.00  0.00    -0.353 OA
HETATM   36  C   UNK N   1      27.628  21.037   5.848  0.00  0.00     0.210 C 
ENDBRANCH  19  35
BRANCH  20  37
HETATM   37  O   UNK N   1      25.900  19.906   3.126  0.00  0.00    -0.353 OA
HETATM   38  C   UNK N   1      24.542  20.122   3.136  0.00  0.00     0.210 C 
ENDBRANCH  20  37
ENDBRANCH  10  11
ENDBRANCH   9  10
ENDBRANCH   8   9
ENDBRANCH   7   8
ENDBRANCH   5   7
ENDBRANCH   4   5
ENDBRANCH   3   4
ENDBRANCH   1   3
BRANCH   2  39
HETATM   39  C   UNK N   1      33.183  17.401   4.843  0.00  0.00     0.037 C 
BRANCH  39  40
HETATM   40  C   UNK N   1      32.472  17.448   6.189  0.00  0.00     0.115 C 
BRANCH  40  41
HETATM   41  C   UNK N   1      33.365  17.526   7.415  0.00  0.00     0.259 C 
HETATM   42  O   UNK N   1      34.477  18.005   7.273  0.00  0.00    -0.265 OA
BRANCH  41  43
HETATM   43  O   UNK N   1      33.011  17.092   8.658  0.00  0.00    -0.321 OA
BRANCH  43  44
HETATM   44  C   UNK N   1      32.231  15.995   8.951  0.00  0.00     0.180 C 
BRANCH  44  45
HETATM   45  C   UNK N   1      32.993  14.721   8.633  0.00  0.00     0.055 C 
BRANCH  45  46
HETATM   46  C   UNK N   1      33.957  14.293   9.756  0.00  0.00     0.240 C 
BRANCH  46  47
HETATM   47  N   UNK N   1      35.393  14.524   9.489  0.00  0.00    -0.062 N 
HETATM   48  C   UNK N   1      36.190  13.383   9.987  0.00  0.00     0.227 C 
HETATM   49  C   UNK N   1      36.353  13.304  11.496  0.00  0.00    -0.018 A 
HETATM   50  C   UNK N   1      36.087  14.435  12.285  0.00  0.00    -0.045 A 
HETATM   51  C   UNK N   1      36.744  12.118  12.121  0.00  0.00     0.049 A 
HETATM   52  C   UNK N   1      35.689  15.736  11.665  0.00  0.00     0.067 C 
HETATM   53  C   UNK N   1      36.179  14.353  13.674  0.00  0.00     0.047 A 
HETATM   54  C   UNK N   1      35.891  15.739  10.146  0.00  0.00     0.242 C 
HETATM   55  C   UNK N   1      36.536  13.149  14.306  0.00  0.00     0.102 A 
HETATM   56  C   UNK N   1      36.823  12.010  13.510  0.00  0.00     0.102 A 
HETATM   57  C   UNK N   1      35.632  14.693   8.055  0.00  0.00     0.273 C 
BRANCH  48  58
HETATM   58  C   UNK N   1      36.324  12.133   9.076  0.00  0.00     0.077 C 
BRANCH  58  59
HETATM   59  C   UNK N   1      35.147  11.222   8.837  0.00  0.00    -0.050 A 
HETATM   60  C   UNK N   1      34.319  11.379   7.733  0.00  0.00     0.047 A 
HETATM   61  C   UNK N   1      33.104  10.709   7.617  0.00  0.00     0.104 A 
HETATM   62  C   UNK N   1      32.685   9.836   8.658  0.00  0.00     0.135 A 
HETATM   63  C   UNK N   1      33.540   9.651   9.784  0.00  0.00     0.104 A 
HETATM   64  C   UNK N   1      34.752  10.363   9.858  0.00  0.00     0.047 A 
BRANCH  61  65
HETATM   65  O   UNK N   1      32.365  10.968   6.505  0.00  0.00    -0.353 OA
HETATM   66  C   UNK N   1      32.856  11.191   5.240  0.00  0.00     0.210 C 
ENDBRANCH  61  65
BRANCH  62  67
HETATM   67  O   UNK N   1      31.479   9.214   8.550  0.00  0.00    -0.351 OA
HETATM   68  C   UNK N   1      31.148   8.236   7.640  0.00  0.00     0.210 C 
ENDBRANCH  62  67
BRANCH  63  69
HETATM   69  O   UNK N   1      33.183   8.809  10.786  0.00  0.00    -0.353 OA
HETATM   70  C   UNK N   1      33.713   7.549  10.950  0.00  0.00     0.210 C 
ENDBRANCH  63  69
ENDBRANCH  58  59
ENDBRANCH  48  58
BRANCH  55  71
HETATM   71  O   UNK N   1      36.608  13.079  15.658  0.00  0.00    -0.353 OA
HETATM   72  C   UNK N   1      35.506  12.924  16.471  0.00  0.00     0.210 C 
ENDBRANCH  55  71
BRANCH  56  73
HETATM   73  O   UNK N   1      37.158  10.797  14.022  0.00  0.00    -0.353 OA
HETATM   74  C   UNK N   1      38.378  10.467  14.564  0.00  0.00     0.210 C 
ENDBRANCH  56  73
ENDBRANCH  46  47
ENDBRANCH  45  46
ENDBRANCH  44  45
ENDBRANCH  43  44
ENDBRANCH  41  43
ENDBRANCH  40  41
ENDBRANCH  39  40
ENDBRANCH   2  39
TORSDOF 30
ENDMDL
MODEL 4
REMARK VINA RESULT:      -6.6      2.388      7.043
REMARK  30 active torsions:
REMARK  status: ('A' for Active; 'I' for Inactive)
REMARK    1  A    between atoms: O_1  and  C_41 
REMARK    2  A    between atoms: O_1  and  C_57 
REMARK    3  A    between atoms: O_2  and  C_42 
REMARK    4  A    between atoms: O_2  and  C_58 
REMARK    5  A    between atoms: O_3  and  C_43 
REMARK    6  A    between atoms: O_4  and  C_44 
REMARK    7  A    between atoms: O_5  and  C_45 
REMARK    8  A    between atoms: O_6  and  C_46 
REMARK    9  A    between atoms: O_7  and  C_51 
REMARK   10  A    between atoms: O_8  and  C_52 
REMARK   11  A    between atoms: O_9  and  C_53 
REMARK   12  A    between atoms: O_10  and  C_54 
REMARK   13  A    between atoms: O_11  and  C_55 
REMARK   14  A    between atoms: O_12  and  C_56 
REMARK   15  A    between atoms: N_15  and  C_21 
REMARK   16  A    between atoms: N_16  and  C_22 
REMARK   17  A    between atoms: C_17  and  C_29 
REMARK   18  A    between atoms: C_18  and  C_30 
REMARK   19  A    between atoms: C_21  and  C_33 
REMARK   20  A    between atoms: C_22  and  C_34 
REMARK   21  A    between atoms: C_29  and  C_37 
REMARK   22  A    between atoms: C_30  and  C_38 
REMARK   23  A    between atoms: C_33  and  C_41 
REMARK   24  A    between atoms: C_34  and  C_42 
REMARK   25  A    between atoms: C_57  and  C_63 
REMARK   26  A    between atoms: C_58  and  C_64 
REMARK   27  A    between atoms: C_63  and  C_65 
REMARK   28  A    between atoms: C_64  and  C_66 
REMARK   29  A    between atoms: C_65  and  C_73 
REMARK   30  A    between atoms: C_66  and  C_74 
ROOT
HETATM    1  C   UNK N   1      28.342  18.836   5.667  0.00  0.00    -0.030 C 
HETATM    2  C   UNK N   1      28.084  19.670   4.647  0.00  0.00    -0.030 C 
ENDROOT
BRANCH   1   3
HETATM    3  C   UNK N   1      27.460  18.669   6.863  0.00  0.00     0.037 C 
BRANCH   3   4
HETATM    4  C   UNK N   1      28.203  19.042   8.145  0.00  0.00     0.115 C 
BRANCH   4   5
HETATM    5  C   UNK N   1      28.452  17.843   9.022  0.00  0.00     0.259 C 
HETATM    6  O   UNK N   1      27.497  17.222   9.460  0.00  0.00    -0.265 OA
BRANCH   5   7
HETATM    7  O   UNK N   1      29.705  17.402   9.299  0.00  0.00    -0.321 OA
BRANCH   7   8
HETATM    8  C   UNK N   1      30.846  18.114   9.002  0.00  0.00     0.180 C 
BRANCH   8   9
HETATM    9  C   UNK N   1      31.582  17.440   7.858  0.00  0.00     0.055 C 
BRANCH   9  10
HETATM   10  C   UNK N   1      32.626  16.409   8.331  0.00  0.00     0.240 C 
BRANCH  10  11
HETATM   11  N   UNK N   1      34.036  16.743   8.033  0.00  0.00    -0.062 N 
HETATM   12  C   UNK N   1      34.716  15.578   7.426  0.00  0.00     0.227 C 
HETATM   13  C   UNK N   1      35.075  14.450   8.381  0.00  0.00    -0.018 A 
HETATM   14  C   UNK N   1      35.073  14.683   9.766  0.00  0.00    -0.045 A 
HETATM   15  C   UNK N   1      35.392  13.176   7.908  0.00  0.00     0.049 A 
HETATM   16  C   UNK N   1      34.770  16.038  10.324  0.00  0.00     0.067 C 
HETATM   17  C   UNK N   1      35.343  13.638  10.649  0.00  0.00     0.047 A 
HETATM   18  C   UNK N   1      34.783  17.120   9.240  0.00  0.00     0.242 C 
HETATM   19  C   UNK N   1      35.626  12.345  10.175  0.00  0.00     0.102 A 
HETATM   20  C   UNK N   1      35.650  12.114   8.776  0.00  0.00     0.102 A 
HETATM   21  C   UNK N   1      34.115  17.880   7.116  0.00  0.00     0.273 C 
BRANCH  12  22
HETATM   22  C   UNK N   1      34.513  15.334   5.906  0.00  0.00     0.077 C 
BRANCH  22  23
HETATM   23  C   UNK N   1      33.286  14.621   5.400  0.00  0.00    -0.050 A 
HETATM   24  C   UNK N   1      33.301  13.262   5.106  0.00  0.00     0.047 A 
HETATM   25  C   UNK N   1      32.255  12.639   4.429  0.00  0.00     0.104 A 
HETATM   26  C   UNK N   1      31.131  13.409   4.020  0.00  0.00     0.135 A 
HETATM   27  C   UNK N   1      31.097  14.798   4.339  0.00  0.00     0.104 A 
HETATM   28  C   UNK N   1      32.187  15.381   5.012  0.00  0.00     0.047 A 
BRANCH  25  29
HETATM   29  O   UNK N   1      32.397  11.312   4.167  0.00  0.00    -0.353 OA
HETATM   30  C   UNK N   1      31.975  10.279   4.970  0.00  0.00     0.210 C 
ENDBRANCH  25  29
BRANCH  26  31
HETATM   31  O   UNK N   1      30.129  12.797   3.331  0.00  0.00    -0.351 OA
HETATM   32  C   UNK N   1      30.080  12.603   1.970  0.00  0.00     0.210 C 
ENDBRANCH  26  31
BRANCH  27  33
HETATM   33  O   UNK N   1      30.031  15.559   3.984  0.00  0.00    -0.353 OA
HETATM   34  C   UNK N   1      30.016  16.384   2.882  0.00  0.00     0.210 C 
ENDBRANCH  27  33
ENDBRANCH  22  23
ENDBRANCH  12  22
BRANCH  19  35
HETATM   35  O   UNK N   1      35.872  11.335  11.046  0.00  0.00    -0.353 OA
HETATM   36  C   UNK N   1      36.049  11.523  12.399  0.00  0.00     0.210 C 
ENDBRANCH  19  35
BRANCH  20  37
HETATM   37  O   UNK N   1      35.895  10.900   8.217  0.00  0.00    -0.353 OA
HETATM   38  C   UNK N   1      34.978  10.133   7.538  0.00  0.00     0.210 C 
ENDBRANCH  20  37
ENDBRANCH  10  11
ENDBRANCH   9  10
ENDBRANCH   8   9
ENDBRANCH   7   8
ENDBRANCH   5   7
ENDBRANCH   4   5
ENDBRANCH   3   4
ENDBRANCH   1   3
BRANCH   2  39
HETATM   39  C   UNK N   1      26.840  20.502   4.470  0.00  0.00     0.037 C 
BRANCH  39  40
HETATM   40  C   UNK N   1      26.267  20.503   3.059  0.00  0.00     0.115 C 
BRANCH  40  41
HETATM   41  C   UNK N   1      24.756  20.388   2.951  0.00  0.00     0.259 C 
HETATM   42  O   UNK N   1      24.225  20.854   1.958  0.00  0.00    -0.265 OA
BRANCH  41  43
HETATM   43  O   UNK N   1      23.956  19.807   3.890  0.00  0.00    -0.321 OA
BRANCH  43  44
HETATM   44  C   UNK N   1      23.525  18.500   3.903  0.00  0.00     0.180 C 
BRANCH  44  45
HETATM   45  C   UNK N   1      24.404  17.677   4.828  0.00  0.00     0.055 C 
BRANCH  45  46
HETATM   46  C   UNK N   1      24.296  16.159   4.579  0.00  0.00     0.240 C 
BRANCH  46  47
HETATM   47  N   UNK N   1      25.578  15.455   4.360  0.00  0.00    -0.062 N 
HETATM   48  C   UNK N   1      25.330  14.018   4.117  0.00  0.00     0.227 C 
HETATM   49  C   UNK N   1      24.944  13.202   5.339  0.00  0.00    -0.018 A 
HETATM   50  C   UNK N   1      25.187  13.715   6.624  0.00  0.00    -0.045 A 
HETATM   51  C   UNK N   1      24.330  11.954   5.212  0.00  0.00     0.049 A 
HETATM   52  C   UNK N   1      25.863  15.035   6.817  0.00  0.00     0.067 C 
HETATM   53  C   UNK N   1      24.783  12.996   7.749  0.00  0.00     0.047 A 
HETATM   54  C   UNK N   1      26.477  15.566   5.516  0.00  0.00     0.242 C 
HETATM   55  C   UNK N   1      24.131  11.757   7.621  0.00  0.00     0.102 A 
HETATM   56  C   UNK N   1      23.902  11.229   6.324  0.00  0.00     0.102 A 
HETATM   57  C   UNK N   1      26.292  16.024   3.216  0.00  0.00     0.273 C 
BRANCH  48  58
HETATM   58  C   UNK N   1      24.955  13.575   2.677  0.00  0.00     0.077 C 
BRANCH  58  59
HETATM   59  C   UNK N   1      23.513  13.494   2.245  0.00  0.00    -0.050 A 
HETATM   60  C   UNK N   1      22.860  12.275   2.116  0.00  0.00     0.047 A 
HETATM   61  C   UNK N   1      21.617  12.161   1.500  0.00  0.00     0.104 A 
HETATM   62  C   UNK N   1      20.988  13.324   0.976  0.00  0.00     0.135 A 
HETATM   63  C   UNK N   1      21.640  14.583   1.124  0.00  0.00     0.104 A 
HETATM   64  C   UNK N   1      22.903  14.641   1.744  0.00  0.00     0.047 A 
BRANCH  61  65
HETATM   65  O   UNK N   1      21.092  10.910   1.405  0.00  0.00    -0.353 OA
HETATM   66  C   UNK N   1      20.320  10.282   2.354  0.00  0.00     0.210 C 
ENDBRANCH  61  65
BRANCH  62  67
HETATM   67  O   UNK N   1      19.789  13.196   0.344  0.00  0.00    -0.351 OA
HETATM   68  C   UNK N   1      18.547  13.313   0.925  0.00  0.00     0.210 C 
ENDBRANCH  62  67
BRANCH  63  69
HETATM   69  O   UNK N   1      21.060  15.717   0.656  0.00  0.00    -0.353 OA
HETATM   70  C   UNK N   1      20.362  16.600   1.449  0.00  0.00     0.210 C 
ENDBRANCH  63  69
ENDBRANCH  58  59
ENDBRANCH  48  58
BRANCH  55  71
HETATM   71  O   UNK N   1      23.731  11.076   8.722  0.00  0.00    -0.353 OA
HETATM   72  C   UNK N   1      22.902  11.608   9.686  0.00  0.00     0.210 C 
ENDBRANCH  55  71
BRANCH  56  73
HETATM   73  O   UNK N   1      23.264  10.051   6.091  0.00  0.00    -0.353 OA
HETATM   74  C   UNK N   1      21.942   9.913   5.743  0.00  0.00     0.210 C 
ENDBRANCH  56  73
ENDBRANCH  46  47
ENDBRANCH  45  46
ENDBRANCH  44  45
ENDBRANCH  43  44
ENDBRANCH  41  43
ENDBRANCH  40  41
ENDBRANCH  39  40
ENDBRANCH   2  39
TORSDOF 30
ENDMDL
MODEL 5
REMARK VINA RESULT:      -6.6      1.919      4.355
REMARK  30 active torsions:
REMARK  status: ('A' for Active; 'I' for Inactive)
REMARK    1  A    between atoms: O_1  and  C_41 
REMARK    2  A    between atoms: O_1  and  C_57 
REMARK    3  A    between atoms: O_2  and  C_42 
REMARK    4  A    between atoms: O_2  and  C_58 
REMARK    5  A    between atoms: O_3  and  C_43 
REMARK    6  A    between atoms: O_4  and  C_44 
REMARK    7  A    between atoms: O_5  and  C_45 
REMARK    8  A    between atoms: O_6  and  C_46 
REMARK    9  A    between atoms: O_7  and  C_51 
REMARK   10  A    between atoms: O_8  and  C_52 
REMARK   11  A    between atoms: O_9  and  C_53 
REMARK   12  A    between atoms: O_10  and  C_54 
REMARK   13  A    between atoms: O_11  and  C_55 
REMARK   14  A    between atoms: O_12  and  C_56 
REMARK   15  A    between atoms: N_15  and  C_21 
REMARK   16  A    between atoms: N_16  and  C_22 
REMARK   17  A    between atoms: C_17  and  C_29 
REMARK   18  A    between atoms: C_18  and  C_30 
REMARK   19  A    between atoms: C_21  and  C_33 
REMARK   20  A    between atoms: C_22  and  C_34 
REMARK   21  A    between atoms: C_29  and  C_37 
REMARK   22  A    between atoms: C_30  and  C_38 
REMARK   23  A    between atoms: C_33  and  C_41 
REMARK   24  A    between atoms: C_34  and  C_42 
REMARK   25  A    between atoms: C_57  and  C_63 
REMARK   26  A    between atoms: C_58  and  C_64 
REMARK   27  A    between atoms: C_63  and  C_65 
REMARK   28  A    between atoms: C_64  and  C_66 
REMARK   29  A    between atoms: C_65  and  C_73 
REMARK   30  A    between atoms: C_66  and  C_74 
ROOT
HETATM    1  C   UNK N   1      24.483  20.177   3.103  0.00  0.00    -0.030 C 
HETATM    2  C   UNK N   1      23.281  20.667   2.760  0.00  0.00    -0.030 C 
ENDROOT
BRANCH   1   3
HETATM    3  C   UNK N   1      24.688  18.986   3.984  0.00  0.00     0.037 C 
BRANCH   3   4
HETATM    4  C   UNK N   1      25.501  17.910   3.267  0.00  0.00     0.115 C 
BRANCH   4   5
HETATM    5  C   UNK N   1      25.689  16.683   4.119  0.00  0.00     0.259 C 
HETATM    6  O   UNK N   1      25.392  16.733   5.302  0.00  0.00    -0.265 OA
BRANCH   5   7
HETATM    7  O   UNK N   1      26.130  15.508   3.602  0.00  0.00    -0.321 OA
BRANCH   7   8
HETATM    8  C   UNK N   1      26.498  15.346   2.285  0.00  0.00     0.180 C 
BRANCH   8   9
HETATM    9  C   UNK N   1      27.967  14.967   2.210  0.00  0.00     0.055 C 
BRANCH   9  10
HETATM   10  C   UNK N   1      28.612  14.762   3.596  0.00  0.00     0.240 C 
BRANCH  10  11
HETATM   11  N   UNK N   1      29.971  15.324   3.758  0.00  0.00    -0.062 N 
HETATM   12  C   UNK N   1      30.226  15.631   5.182  0.00  0.00     0.227 C 
HETATM   13  C   UNK N   1      29.534  16.870   5.726  0.00  0.00    -0.018 A 
HETATM   14  C   UNK N   1      28.999  17.817   4.837  0.00  0.00    -0.045 A 
HETATM   15  C   UNK N   1      29.404  17.080   7.100  0.00  0.00     0.049 A 
HETATM   16  C   UNK N   1      29.139  17.655   3.356  0.00  0.00     0.067 C 
HETATM   17  C   UNK N   1      28.311  18.925   5.330  0.00  0.00     0.047 A 
HETATM   18  C   UNK N   1      30.151  16.564   2.992  0.00  0.00     0.242 C 
HETATM   19  C   UNK N   1      28.146  19.118   6.712  0.00  0.00     0.102 A 
HETATM   20  C   UNK N   1      28.705  18.174   7.612  0.00  0.00     0.102 A 
HETATM   21  C   UNK N   1      30.981  14.382   3.277  0.00  0.00     0.273 C 
BRANCH  12  22
HETATM   22  C   UNK N   1      30.664  14.461   6.105  0.00  0.00     0.077 C 
BRANCH  22  23
HETATM   23  C   UNK N   1      31.995  14.496   6.811  0.00  0.00    -0.050 A 
HETATM   24  C   UNK N   1      32.378  15.581   7.591  0.00  0.00     0.047 A 
HETATM   25  C   UNK N   1      33.681  15.732   8.060  0.00  0.00     0.104 A 
HETATM   26  C   UNK N   1      34.658  14.750   7.736  0.00  0.00     0.135 A 
HETATM   27  C   UNK N   1      34.267  13.623   6.956  0.00  0.00     0.104 A 
HETATM   28  C   UNK N   1      32.941  13.527   6.495  0.00  0.00     0.047 A 
BRANCH  25  29
HETATM   29  O   UNK N   1      33.947  16.852   8.784  0.00  0.00    -0.353 OA
HETATM   30  C   UNK N   1      34.464  18.029   8.296  0.00  0.00     0.210 C 
ENDBRANCH  25  29
BRANCH  26  31
HETATM   31  O   UNK N   1      35.936  14.925   8.172  0.00  0.00    -0.351 OA
HETATM   32  C   UNK N   1      36.447  14.504   9.378  0.00  0.00     0.210 C 
ENDBRANCH  26  31
BRANCH  27  33
HETATM   33  O   UNK N   1      35.167  12.656   6.647  0.00  0.00    -0.353 OA
HETATM   34  C   UNK N   1      35.366  11.527   7.409  0.00  0.00     0.210 C 
ENDBRANCH  27  33
ENDBRANCH  22  23
ENDBRANCH  12  22
BRANCH  19  35
HETATM   35  O   UNK N   1      27.462  20.193   7.177  0.00  0.00    -0.353 OA
HETATM   36  C   UNK N   1      26.468  20.828   6.466  0.00  0.00     0.210 C 
ENDBRANCH  19  35
BRANCH  20  37
HETATM   37  O   UNK N   1      28.587  18.260   8.963  0.00  0.00    -0.353 OA
HETATM   38  C   UNK N   1      29.599  18.583   9.836  0.00  0.00     0.210 C 
ENDBRANCH  20  37
ENDBRANCH  10  11
ENDBRANCH   9  10
ENDBRANCH   8   9
ENDBRANCH   7   8
ENDBRANCH   5   7
ENDBRANCH   4   5
ENDBRANCH   3   4
ENDBRANCH   1   3
BRANCH   2  39
HETATM   39  C   UNK N   1      21.943  20.067   3.106  0.00  0.00     0.037 C 
BRANCH  39  40
HETATM   40  C   UNK N   1      21.168  19.508   1.921  0.00  0.00     0.115 C 
BRANCH  40  41
HETATM   41  C   UNK N   1      19.899  18.741   2.254  0.00  0.00     0.259 C 
HETATM   42  O   UNK N   1      18.998  19.352   2.803  0.00  0.00    -0.265 OA
BRANCH  41  43
HETATM   43  O   UNK N   1      19.703  17.418   1.988  0.00  0.00    -0.321 OA
BRANCH  43  44
HETATM   44  C   UNK N   1      19.868  16.795   0.772  0.00  0.00     0.180 C 
BRANCH  44  45
HETATM   45  C   UNK N   1      20.010  15.297   0.975  0.00  0.00     0.055 C 
BRANCH  45  46
HETATM   46  C   UNK N   1      20.143  14.894   2.457  0.00  0.00     0.240 C 
BRANCH  46  47
HETATM   47  N   UNK N   1      21.445  14.311   2.846  0.00  0.00    -0.062 N 
HETATM   48  C   UNK N   1      21.311  13.585   4.127  0.00  0.00     0.227 C 
HETATM   49  C   UNK N   1      21.187  14.456   5.366  0.00  0.00    -0.018 A 
HETATM   50  C   UNK N   1      21.557  15.811   5.305  0.00  0.00    -0.045 A 
HETATM   51  C   UNK N   1      20.690  13.943   6.566  0.00  0.00     0.049 A 
HETATM   52  C   UNK N   1      22.117  16.405   4.053  0.00  0.00     0.067 C 
HETATM   53  C   UNK N   1      21.391  16.629   6.423  0.00  0.00     0.047 A 
HETATM   54  C   UNK N   1      22.483  15.336   3.018  0.00  0.00     0.242 C 
HETATM   55  C   UNK N   1      20.856  16.121   7.619  0.00  0.00     0.102 A 
HETATM   56  C   UNK N   1      20.498  14.749   7.688  0.00  0.00     0.102 A 
HETATM   57  C   UNK N   1      21.929  13.391   1.816  0.00  0.00     0.273 C 
BRANCH  48  58
HETATM   58  C   UNK N   1      20.782  12.126   4.088  0.00  0.00     0.077 C 
BRANCH  58  59
HETATM   59  C   UNK N   1      21.671  10.972   4.472  0.00  0.00    -0.050 A 
HETATM   60  C   UNK N   1      21.144   9.754   4.883  0.00  0.00     0.047 A 
HETATM   61  C   UNK N   1      21.932   8.762   5.460  0.00  0.00     0.104 A 
HETATM   62  C   UNK N   1      23.323   8.995   5.646  0.00  0.00     0.135 A 
HETATM   63  C   UNK N   1      23.877  10.234   5.208  0.00  0.00     0.104 A 
HETATM   64  C   UNK N   1      23.032  11.207   4.641  0.00  0.00     0.047 A 
BRANCH  61  65
HETATM   65  O   UNK N   1      21.298   7.624   5.851  0.00  0.00    -0.353 OA
HETATM   66  C   UNK N   1      20.776   6.662   5.019  0.00  0.00     0.210 C 
ENDBRANCH  61  65
BRANCH  62  67
HETATM   67  O   UNK N   1      24.077   8.032   6.245  0.00  0.00    -0.351 OA
HETATM   68  C   UNK N   1      23.869   7.497   7.496  0.00  0.00     0.210 C 
ENDBRANCH  62  67
BRANCH  63  69
HETATM   69  O   UNK N   1      25.203  10.482   5.349  0.00  0.00    -0.353 OA
HETATM   70  C   UNK N   1      25.843  11.559   4.778  0.00  0.00     0.210 C 
ENDBRANCH  63  69
ENDBRANCH  58  59
ENDBRANCH  48  58
BRANCH  55  71
HETATM   71  O   UNK N   1      20.686  16.931   8.693  0.00  0.00    -0.353 OA
HETATM   72  C   UNK N   1      19.563  17.704   8.892  0.00  0.00     0.210 C 
ENDBRANCH  55  71
BRANCH  56  73
HETATM   73  O   UNK N   1      19.956  14.166   8.789  0.00  0.00    -0.353 OA
HETATM   74  C   UNK N   1      20.657  13.727   9.888  0.00  0.00     0.210 C 
ENDBRANCH  56  73
ENDBRANCH  46  47
ENDBRANCH  45  46
ENDBRANCH  44  45
ENDBRANCH  43  44
ENDBRANCH  41  43
ENDBRANCH  40  41
ENDBRANCH  39  40
ENDBRANCH   2  39
TORSDOF 30
ENDMDL
MODEL 6
REMARK VINA RESULT:      -6.5      2.441     11.148
REMARK  30 active torsions:
REMARK  status: ('A' for Active; 'I' for Inactive)
REMARK    1  A    between atoms: O_1  and  C_41 
REMARK    2  A    between atoms: O_1  and  C_57 
REMARK    3  A    between atoms: O_2  and  C_42 
REMARK    4  A    between atoms: O_2  and  C_58 
REMARK    5  A    between atoms: O_3  and  C_43 
REMARK    6  A    between atoms: O_4  and  C_44 
REMARK    7  A    between atoms: O_5  and  C_45 
REMARK    8  A    between atoms: O_6  and  C_46 
REMARK    9  A    between atoms: O_7  and  C_51 
REMARK   10  A    between atoms: O_8  and  C_52 
REMARK   11  A    between atoms: O_9  and  C_53 
REMARK   12  A    between atoms: O_10  and  C_54 
REMARK   13  A    between atoms: O_11  and  C_55 
REMARK   14  A    between atoms: O_12  and  C_56 
REMARK   15  A    between atoms: N_15  and  C_21 
REMARK   16  A    between atoms: N_16  and  C_22 
REMARK   17  A    between atoms: C_17  and  C_29 
REMARK   18  A    between atoms: C_18  and  C_30 
REMARK   19  A    between atoms: C_21  and  C_33 
REMARK   20  A    between atoms: C_22  and  C_34 
REMARK   21  A    between atoms: C_29  and  C_37 
REMARK   22  A    between atoms: C_30  and  C_38 
REMARK   23  A    between atoms: C_33  and  C_41 
REMARK   24  A    between atoms: C_34  and  C_42 
REMARK   25  A    between atoms: C_57  and  C_63 
REMARK   26  A    between atoms: C_58  and  C_64 
REMARK   27  A    between atoms: C_63  and  C_65 
REMARK   28  A    between atoms: C_64  and  C_66 
REMARK   29  A    between atoms: C_65  and  C_73 
REMARK   30  A    between atoms: C_66  and  C_74 
ROOT
HETATM    1  C   UNK N   1      27.175  20.713   5.277  0.00  0.00    -0.030 C 
HETATM    2  C   UNK N   1      27.717  20.430   6.473  0.00  0.00    -0.030 C 
ENDROOT
BRANCH   1   3
HETATM    3  C   UNK N   1      26.740  19.684   4.284  0.00  0.00     0.037 C 
BRANCH   3   4
HETATM    4  C   UNK N   1      26.033  20.335   3.097  0.00  0.00     0.115 C 
BRANCH   4   5
HETATM    5  C   UNK N   1      24.536  20.341   3.266  0.00  0.00     0.259 C 
HETATM    6  O   UNK N   1      23.852  20.947   2.458  0.00  0.00    -0.265 OA
BRANCH   5   7
HETATM    7  O   UNK N   1      23.921  19.653   4.261  0.00  0.00    -0.321 OA
BRANCH   7   8
HETATM    8  C   UNK N   1      22.843  18.821   4.058  0.00  0.00     0.180 C 
BRANCH   8   9
HETATM    9  C   UNK N   1      23.333  17.405   3.812  0.00  0.00     0.055 C 
BRANCH   9  10
HETATM   10  C   UNK N   1      24.345  16.920   4.869  0.00  0.00     0.240 C 
BRANCH  10  11
HETATM   11  N   UNK N   1      25.388  15.994   4.377  0.00  0.00    -0.062 N 
HETATM   12  C   UNK N   1      24.855  14.616   4.318  0.00  0.00     0.227 C 
HETATM   13  C   UNK N   1      24.705  13.905   5.654  0.00  0.00    -0.018 A 
HETATM   14  C   UNK N   1      25.362  14.409   6.788  0.00  0.00    -0.045 A 
HETATM   15  C   UNK N   1      23.909  12.766   5.780  0.00  0.00     0.049 A 
HETATM   16  C   UNK N   1      26.251  15.609   6.700  0.00  0.00     0.067 C 
HETATM   17  C   UNK N   1      25.180  13.798   8.028  0.00  0.00     0.047 A 
HETATM   18  C   UNK N   1      26.571  15.980   5.248  0.00  0.00     0.242 C 
HETATM   19  C   UNK N   1      24.349  12.672   8.165  0.00  0.00     0.102 A 
HETATM   20  C   UNK N   1      23.702  12.149   7.015  0.00  0.00     0.102 A 
HETATM   21  C   UNK N   1      25.849  16.392   3.048  0.00  0.00     0.273 C 
BRANCH  12  22
HETATM   22  C   UNK N   1      24.006  14.223   3.078  0.00  0.00     0.077 C 
BRANCH  22  23
HETATM   23  C   UNK N   1      24.263  12.930   2.349  0.00  0.00    -0.050 A 
HETATM   24  C   UNK N   1      25.553  12.505   2.050  0.00  0.00     0.047 A 
HETATM   25  C   UNK N   1      25.801  11.440   1.187  0.00  0.00     0.104 A 
HETATM   26  C   UNK N   1      24.706  10.759   0.587  0.00  0.00     0.135 A 
HETATM   27  C   UNK N   1      23.380  11.173   0.906  0.00  0.00     0.104 A 
HETATM   28  C   UNK N   1      23.185  12.265   1.773  0.00  0.00     0.047 A 
BRANCH  25  29
HETATM   29  O   UNK N   1      27.104  11.138   0.943  0.00  0.00    -0.353 OA
HETATM   30  C   UNK N   1      27.900  10.315   1.704  0.00  0.00     0.210 C 
ENDBRANCH  25  29
BRANCH  26  31
HETATM   31  O   UNK N   1      24.960   9.741  -0.281  0.00  0.00    -0.351 OA
HETATM   32  C   UNK N   1      24.947   8.398   0.017  0.00  0.00     0.210 C 
ENDBRANCH  26  31
BRANCH  27  33
HETATM   33  O   UNK N   1      22.311  10.533   0.369  0.00  0.00    -0.353 OA
HETATM   34  C   UNK N   1      21.143  10.290   1.057  0.00  0.00     0.210 C 
ENDBRANCH  27  33
ENDBRANCH  22  23
ENDBRANCH  12  22
BRANCH  19  35
HETATM   35  O   UNK N   1      24.170  12.096   9.379  0.00  0.00    -0.353 OA
HETATM   36  C   UNK N   1      24.813  12.516  10.523  0.00  0.00     0.210 C 
ENDBRANCH  19  35
BRANCH  20  37
HETATM   37  O   UNK N   1      22.866  11.078   7.044  0.00  0.00    -0.353 OA
HETATM   38  C   UNK N   1      22.881  10.028   6.157  0.00  0.00     0.210 C 
ENDBRANCH  20  37
ENDBRANCH  10  11
ENDBRANCH   9  10
ENDBRANCH   8   9
ENDBRANCH   7   8
ENDBRANCH   5   7
ENDBRANCH   4   5
ENDBRANCH   3   4
ENDBRANCH   1   3
BRANCH   2  39
HETATM   39  C   UNK N   1      27.895  19.057   7.067  0.00  0.00     0.037 C 
BRANCH  39  40
HETATM   40  C   UNK N   1      27.909  19.017   8.589  0.00  0.00     0.115 C 
BRANCH  40  41
HETATM   41  C   UNK N   1      28.457  17.747   9.219  0.00  0.00     0.259 C 
HETATM   42  O   UNK N   1      27.664  16.859   9.480  0.00  0.00    -0.265 OA
BRANCH  41  43
HETATM   43  O   UNK N   1      29.771  17.538   9.518  0.00  0.00    -0.321 OA
BRANCH  43  44
HETATM   44  C   UNK N   1      30.842  18.274   9.061  0.00  0.00     0.180 C 
BRANCH  44  45
HETATM   45  C   UNK N   1      31.582  17.496   7.988  0.00  0.00     0.055 C 
BRANCH  45  46
HETATM   46  C   UNK N   1      32.529  16.423   8.559  0.00  0.00     0.240 C 
BRANCH  46  47
HETATM   47  N   UNK N   1      33.974  16.700   8.409  0.00  0.00    -0.062 N 
HETATM   48  C   UNK N   1      34.631  15.586   7.694  0.00  0.00     0.227 C 
HETATM   49  C   UNK N   1      34.830  14.313   8.500  0.00  0.00    -0.018 A 
HETATM   50  C   UNK N   1      34.737  14.355   9.901  0.00  0.00    -0.045 A 
HETATM   51  C   UNK N   1      35.083  13.092   7.873  0.00  0.00     0.049 A 
HETATM   52  C   UNK N   1      34.492  15.641  10.624  0.00  0.00     0.067 C 
HETATM   53  C   UNK N   1      34.861  13.180  10.643  0.00  0.00     0.047 A 
HETATM   54  C   UNK N   1      34.646  16.859   9.706  0.00  0.00     0.242 C 
HETATM   55  C   UNK N   1      35.078  11.944  10.010  0.00  0.00     0.102 A 
HETATM   56  C   UNK N   1      35.190  11.903   8.596  0.00  0.00     0.102 A 
HETATM   57  C   UNK N   1      34.188  17.945   7.670  0.00  0.00     0.273 C 
BRANCH  48  58
HETATM   58  C   UNK N   1      34.574  15.580   6.142  0.00  0.00     0.077 C 
BRANCH  58  59
HETATM   59  C   UNK N   1      33.321  15.159   5.418  0.00  0.00    -0.050 A 
HETATM   60  C   UNK N   1      33.094  13.833   5.070  0.00  0.00     0.047 A 
HETATM   61  C   UNK N   1      32.070  13.459   4.204  0.00  0.00     0.104 A 
HETATM   62  C   UNK N   1      31.226  14.459   3.648  0.00  0.00     0.135 A 
HETATM   63  C   UNK N   1      31.437  15.820   4.017  0.00  0.00     0.104 A 
HETATM   64  C   UNK N   1      32.495  16.145   4.887  0.00  0.00     0.047 A 
BRANCH  61  65
HETATM   65  O   UNK N   1      31.965  12.135   3.913  0.00  0.00    -0.353 OA
HETATM   66  C   UNK N   1      31.166  11.224   4.563  0.00  0.00     0.210 C 
ENDBRANCH  61  65
BRANCH  62  67
HETATM   67  O   UNK N   1      30.250  14.086   2.774  0.00  0.00    -0.351 OA
HETATM   68  C   UNK N   1      28.932  13.841   3.085  0.00  0.00     0.210 C 
ENDBRANCH  62  67
BRANCH  63  69
HETATM   69  O   UNK N   1      30.638  16.798   3.523  0.00  0.00    -0.353 OA
HETATM   70  C   UNK N   1      29.741  17.510   4.288  0.00  0.00     0.210 C 
ENDBRANCH  63  69
ENDBRANCH  58  59
ENDBRANCH  48  58
BRANCH  55  71
HETATM   71  O   UNK N   1      35.182  10.808  10.742  0.00  0.00    -0.353 OA
HETATM   72  C   UNK N   1      34.096  10.056  11.136  0.00  0.00     0.210 C 
ENDBRANCH  55  71
BRANCH  56  73
HETATM   73  O   UNK N   1      35.381  10.759   7.887  0.00  0.00    -0.353 OA
HETATM   74  C   UNK N   1      34.386   9.979   7.346  0.00  0.00     0.210 C 
ENDBRANCH  56  73
ENDBRANCH  46  47
ENDBRANCH  45  46
ENDBRANCH  44  45
ENDBRANCH  43  44
ENDBRANCH  41  43
ENDBRANCH  40  41
ENDBRANCH  39  40
ENDBRANCH   2  39
TORSDOF 30
ENDMDL
MODEL 7
REMARK VINA RESULT:      -6.5      1.259      2.032
REMARK  30 active torsions:
REMARK  status: ('A' for Active; 'I' for Inactive)
REMARK    1  A    between atoms: O_1  and  C_41 
REMARK    2  A    between atoms: O_1  and  C_57 
REMARK    3  A    between atoms: O_2  and  C_42 
REMARK    4  A    between atoms: O_2  and  C_58 
REMARK    5  A    between atoms: O_3  and  C_43 
REMARK    6  A    between atoms: O_4  and  C_44 
REMARK    7  A    between atoms: O_5  and  C_45 
REMARK    8  A    between atoms: O_6  and  C_46 
REMARK    9  A    between atoms: O_7  and  C_51 
REMARK   10  A    between atoms: O_8  and  C_52 
REMARK   11  A    between atoms: O_9  and  C_53 
REMARK   12  A    between atoms: O_10  and  C_54 
REMARK   13  A    between atoms: O_11  and  C_55 
REMARK   14  A    between atoms: O_12  and  C_56 
REMARK   15  A    between atoms: N_15  and  C_21 
REMARK   16  A    between atoms: N_16  and  C_22 
REMARK   17  A    between atoms: C_17  and  C_29 
REMARK   18  A    between atoms: C_18  and  C_30 
REMARK   19  A    between atoms: C_21  and  C_33 
REMARK   20  A    between atoms: C_22  and  C_34 
REMARK   21  A    between atoms: C_29  and  C_37 
REMARK   22  A    between atoms: C_30  and  C_38 
REMARK   23  A    between atoms: C_33  and  C_41 
REMARK   24  A    between atoms: C_34  and  C_42 
REMARK   25  A    between atoms: C_57  and  C_63 
REMARK   26  A    between atoms: C_58  and  C_64 
REMARK   27  A    between atoms: C_63  and  C_65 
REMARK   28  A    between atoms: C_64  and  C_66 
REMARK   29  A    between atoms: C_65  and  C_73 
REMARK   30  A    between atoms: C_66  and  C_74 
ROOT
HETATM    1  C   UNK N   1      23.743  17.849   4.262  0.00  0.00    -0.030 C 
HETATM    2  C   UNK N   1      22.740  18.714   4.039  0.00  0.00    -0.030 C 
ENDROOT
BRANCH   1   3
HETATM    3  C   UNK N   1      25.023  17.825   3.490  0.00  0.00     0.037 C 
BRANCH   3   4
HETATM    4  C   UNK N   1      25.962  16.745   4.023  0.00  0.00     0.115 C 
BRANCH   4   5
HETATM    5  C   UNK N   1      26.431  15.816   2.934  0.00  0.00     0.259 C 
HETATM    6  O   UNK N   1      25.926  15.900   1.827  0.00  0.00    -0.265 OA
BRANCH   5   7
HETATM    7  O   UNK N   1      27.433  14.923   3.133  0.00  0.00    -0.321 OA
BRANCH   7   8
HETATM    8  C   UNK N   1      28.168  14.363   2.111  0.00  0.00     0.180 C 
BRANCH   8   9
HETATM    9  C   UNK N   1      29.532  13.949   2.634  0.00  0.00     0.055 C 
BRANCH   9  10
HETATM   10  C   UNK N   1      29.772  14.363   4.099  0.00  0.00     0.240 C 
BRANCH  10  11
HETATM   11  N   UNK N   1      31.009  15.134   4.352  0.00  0.00    -0.062 N 
HETATM   12  C   UNK N   1      31.019  15.635   5.743  0.00  0.00     0.227 C 
HETATM   13  C   UNK N   1      30.102  16.814   6.029  0.00  0.00    -0.018 A 
HETATM   14  C   UNK N   1      29.578  17.563   4.963  0.00  0.00    -0.045 A 
HETATM   15  C   UNK N   1      29.753  17.157   7.336  0.00  0.00     0.049 A 
HETATM   16  C   UNK N   1      29.945  17.257   3.545  0.00  0.00     0.067 C 
HETATM   17  C   UNK N   1      28.689  18.608   5.215  0.00  0.00     0.047 A 
HETATM   18  C   UNK N   1      31.132  16.292   3.457  0.00  0.00     0.242 C 
HETATM   19  C   UNK N   1      28.307  18.931   6.529  0.00  0.00     0.102 A 
HETATM   20  C   UNK N   1      28.853  18.189   7.608  0.00  0.00     0.102 A 
HETATM   21  C   UNK N   1      32.191  14.302   4.129  0.00  0.00     0.273 C 
BRANCH  12  22
HETATM   22  C   UNK N   1      31.471  14.656   6.860  0.00  0.00     0.077 C 
BRANCH  22  23
HETATM   23  C   UNK N   1      32.784  14.856   7.572  0.00  0.00    -0.050 A 
HETATM   24  C   UNK N   1      33.494  13.788   8.109  0.00  0.00     0.047 A 
HETATM   25  C   UNK N   1      34.581  13.973   8.959  0.00  0.00     0.104 A 
HETATM   26  C   UNK N   1      34.988  15.295   9.295  0.00  0.00     0.135 A 
HETATM   27  C   UNK N   1      34.280  16.396   8.729  0.00  0.00     0.104 A 
HETATM   28  C   UNK N   1      33.178  16.152   7.888  0.00  0.00     0.047 A 
BRANCH  25  29
HETATM   29  O   UNK N   1      35.175  12.853   9.450  0.00  0.00    -0.353 OA
HETATM   30  C   UNK N   1      34.593  11.926  10.282  0.00  0.00     0.210 C 
ENDBRANCH  25  29
BRANCH  26  31
HETATM   31  O   UNK N   1      36.032  15.464  10.152  0.00  0.00    -0.351 OA
HETATM   32  C   UNK N   1      35.954  15.531  11.524  0.00  0.00     0.210 C 
ENDBRANCH  26  31
BRANCH  27  33
HETATM   33  O   UNK N   1      34.654  17.669   9.010  0.00  0.00    -0.353 OA
HETATM   34  C   UNK N   1      34.483  18.724   8.141  0.00  0.00     0.210 C 
ENDBRANCH  27  33
ENDBRANCH  22  23
ENDBRANCH  12  22
BRANCH  19  35
HETATM   35  O   UNK N   1      27.430  19.940   6.759  0.00  0.00    -0.353 OA
HETATM   36  C   UNK N   1      27.519  21.176   6.158  0.00  0.00     0.210 C 
ENDBRANCH  19  35
BRANCH  20  37
HETATM   37  O   UNK N   1      28.535  18.410   8.910  0.00  0.00    -0.353 OA
HETATM   38  C   UNK N   1      29.405  18.324   9.971  0.00  0.00     0.210 C 
ENDBRANCH  20  37
ENDBRANCH  10  11
ENDBRANCH   9  10
ENDBRANCH   8   9
ENDBRANCH   7   8
ENDBRANCH   5   7
ENDBRANCH   4   5
ENDBRANCH   3   4
ENDBRANCH   1   3
BRANCH   2  39
HETATM   39  C   UNK N   1      22.754  19.860   3.061  0.00  0.00     0.037 C 
BRANCH  39  40
HETATM   40  C   UNK N   1      21.381  20.302   2.576  0.00  0.00     0.115 C 
BRANCH  40  41
HETATM   41  C   UNK N   1      21.064  20.020   1.117  0.00  0.00     0.259 C 
HETATM   42  O   UNK N   1      21.215  20.930   0.320  0.00  0.00    -0.265 OA
BRANCH  41  43
HETATM   43  O   UNK N   1      20.616  18.823   0.641  0.00  0.00    -0.321 OA
BRANCH  43  44
HETATM   44  C   UNK N   1      20.051  17.808   1.380  0.00  0.00     0.180 C 
BRANCH  44  45
HETATM   45  C   UNK N   1      19.783  16.608   0.488  0.00  0.00     0.055 C 
BRANCH  45  46
HETATM   46  C   UNK N   1      20.646  15.382   0.843  0.00  0.00     0.240 C 
BRANCH  46  47
HETATM   47  N   UNK N   1      20.366  14.762   2.156  0.00  0.00    -0.062 N 
HETATM   48  C   UNK N   1      21.487  13.884   2.551  0.00  0.00     0.227 C 
HETATM   49  C   UNK N   1      21.582  12.563   1.805  0.00  0.00    -0.018 A 
HETATM   50  C   UNK N   1      20.470  12.086   1.090  0.00  0.00    -0.045 A 
HETATM   51  C   UNK N   1      22.763  11.819   1.798  0.00  0.00     0.049 A 
HETATM   52  C   UNK N   1      19.174  12.832   1.085  0.00  0.00     0.067 C 
HETATM   53  C   UNK N   1      20.569  10.904   0.357  0.00  0.00     0.047 A 
HETATM   54  C   UNK N   1      19.144  13.947   2.136  0.00  0.00     0.242 C 
HETATM   55  C   UNK N   1      21.769  10.173   0.318  0.00  0.00     0.102 A 
HETATM   56  C   UNK N   1      22.887  10.644   1.055  0.00  0.00     0.102 A 
HETATM   57  C   UNK N   1      20.169  15.788   3.181  0.00  0.00     0.273 C 
BRANCH  48  58
HETATM   58  C   UNK N   1      22.720  14.536   3.233  0.00  0.00     0.077 C 
BRANCH  58  59
HETATM   59  C   UNK N   1      23.204  14.054   4.577  0.00  0.00    -0.050 A 
HETATM   60  C   UNK N   1      22.522  14.361   5.748  0.00  0.00     0.047 A 
HETATM   61  C   UNK N   1      23.070  14.130   7.006  0.00  0.00     0.104 A 
HETATM   62  C   UNK N   1      24.371  13.566   7.109  0.00  0.00     0.135 A 
HETATM   63  C   UNK N   1      25.069  13.227   5.913  0.00  0.00     0.104 A 
HETATM   64  C   UNK N   1      24.474  13.493   4.665  0.00  0.00     0.047 A 
BRANCH  61  65
HETATM   65  O   UNK N   1      22.320  14.501   8.079  0.00  0.00    -0.353 OA
HETATM   66  C   UNK N   1      20.992  14.209   8.279  0.00  0.00     0.210 C 
ENDBRANCH  61  65
BRANCH  62  67
HETATM   67  O   UNK N   1      24.911  13.378   8.345  0.00  0.00    -0.351 OA
HETATM   68  C   UNK N   1      24.468  12.491   9.299  0.00  0.00     0.210 C 
ENDBRANCH  62  67
BRANCH  63  69
HETATM   69  O   UNK N   1      26.303  12.668   5.973  0.00  0.00    -0.353 OA
HETATM   70  C   UNK N   1      26.897  12.012   4.918  0.00  0.00     0.210 C 
ENDBRANCH  63  69
ENDBRANCH  58  59
ENDBRANCH  48  58
BRANCH  55  71
HETATM   71  O   UNK N   1      21.855   9.034  -0.411  0.00  0.00    -0.353 OA
HETATM   72  C   UNK N   1      22.229   9.006  -1.737  0.00  0.00     0.210 C 
ENDBRANCH  55  71
BRANCH  56  73
HETATM   73  O   UNK N   1      24.096  10.024   1.068  0.00  0.00    -0.353 OA
HETATM   74  C   UNK N   1      24.411   8.902   1.798  0.00  0.00     0.210 C 
ENDBRANCH  56  73
ENDBRANCH  46  47
ENDBRANCH  45  46
ENDBRANCH  44  45
ENDBRANCH  43  44
ENDBRANCH  41  43
ENDBRANCH  40  41
ENDBRANCH  39  40
ENDBRANCH   2  39
TORSDOF 30
ENDMDL
MODEL 8
REMARK VINA RESULT:      -6.3      2.250     11.919
REMARK  30 active torsions:
REMARK  status: ('A' for Active; 'I' for Inactive)
REMARK    1  A    between atoms: O_1  and  C_41 
REMARK    2  A    between atoms: O_1  and  C_57 
REMARK    3  A    between atoms: O_2  and  C_42 
REMARK    4  A    between atoms: O_2  and  C_58 
REMARK    5  A    between atoms: O_3  and  C_43 
REMARK    6  A    between atoms: O_4  and  C_44 
REMARK    7  A    between atoms: O_5  and  C_45 
REMARK    8  A    between atoms: O_6  and  C_46 
REMARK    9  A    between atoms: O_7  and  C_51 
REMARK   10  A    between atoms: O_8  and  C_52 
REMARK   11  A    between atoms: O_9  and  C_53 
REMARK   12  A    between atoms: O_10  and  C_54 
REMARK   13  A    between atoms: O_11  and  C_55 
REMARK   14  A    between atoms: O_12  and  C_56 
REMARK   15  A    between atoms: N_15  and  C_21 
REMARK   16  A    between atoms: N_16  and  C_22 
REMARK   17  A    between atoms: C_17  and  C_29 
REMARK   18  A    between atoms: C_18  and  C_30 
REMARK   19  A    between atoms: C_21  and  C_33 
REMARK   20  A    between atoms: C_22  and  C_34 
REMARK   21  A    between atoms: C_29  and  C_37 
REMARK   22  A    between atoms: C_30  and  C_38 
REMARK   23  A    between atoms: C_33  and  C_41 
REMARK   24  A    between atoms: C_34  and  C_42 
REMARK   25  A    between atoms: C_57  and  C_63 
REMARK   26  A    between atoms: C_58  and  C_64 
REMARK   27  A    between atoms: C_63  and  C_65 
REMARK   28  A    between atoms: C_64  and  C_66 
REMARK   29  A    between atoms: C_65  and  C_73 
REMARK   30  A    between atoms: C_66  and  C_74 
ROOT
HETATM    1  C   UNK N   1      25.496  13.885   6.726  0.00  0.00    -0.030 C 
HETATM    2  C   UNK N   1      25.984  15.106   7.001  0.00  0.00    -0.030 C 
ENDROOT
BRANCH   1   3
HETATM    3  C   UNK N   1      24.929  13.481   5.403  0.00  0.00     0.037 C 
BRANCH   3   4
HETATM    4  C   UNK N   1      25.998  12.831   4.527  0.00  0.00     0.115 C 
BRANCH   4   5
HETATM    5  C   UNK N   1      25.717  11.371   4.283  0.00  0.00     0.259 C 
HETATM    6  O   UNK N   1      26.186  10.543   5.046  0.00  0.00    -0.265 OA
BRANCH   5   7
HETATM    7  O   UNK N   1      24.916  10.952   3.271  0.00  0.00    -0.321 OA
BRANCH   7   8
HETATM    8  C   UNK N   1      24.426  11.787   2.292  0.00  0.00     0.180 C 
BRANCH   8   9
HETATM    9  C   UNK N   1      22.908  11.724   2.282  0.00  0.00     0.055 C 
BRANCH   9  10
HETATM   10  C   UNK N   1      22.265  12.403   3.508  0.00  0.00     0.240 C 
BRANCH  10  11
HETATM   11  N   UNK N   1      21.049  11.747   4.037  0.00  0.00    -0.062 N 
HETATM   12  C   UNK N   1      20.401  12.617   5.042  0.00  0.00     0.227 C 
HETATM   13  C   UNK N   1      21.083  12.684   6.399  0.00  0.00    -0.018 A 
HETATM   14  C   UNK N   1      22.037  11.714   6.748  0.00  0.00    -0.045 A 
HETATM   15  C   UNK N   1      20.792  13.705   7.305  0.00  0.00     0.049 A 
HETATM   16  C   UNK N   1      22.363  10.580   5.827  0.00  0.00     0.067 C 
HETATM   17  C   UNK N   1      22.709  11.803   7.966  0.00  0.00     0.047 A 
HETATM   18  C   UNK N   1      21.350  10.463   4.683  0.00  0.00     0.242 C 
HETATM   19  C   UNK N   1      22.445  12.853   8.863  0.00  0.00     0.102 A 
HETATM   20  C   UNK N   1      21.465  13.821   8.521  0.00  0.00     0.102 A 
HETATM   21  C   UNK N   1      20.103  11.465   2.959  0.00  0.00     0.273 C 
BRANCH  12  22
HETATM   22  C   UNK N   1      19.487  13.761   4.524  0.00  0.00     0.077 C 
BRANCH  22  23
HETATM   23  C   UNK N   1      20.084  15.012   3.931  0.00  0.00    -0.050 A 
HETATM   24  C   UNK N   1      20.450  16.093   4.725  0.00  0.00     0.047 A 
HETATM   25  C   UNK N   1      20.786  17.330   4.181  0.00  0.00     0.104 A 
HETATM   26  C   UNK N   1      20.758  17.504   2.770  0.00  0.00     0.135 A 
HETATM   27  C   UNK N   1      20.407  16.393   1.948  0.00  0.00     0.104 A 
HETATM   28  C   UNK N   1      20.060  15.169   2.549  0.00  0.00     0.047 A 
BRANCH  25  29
HETATM   29  O   UNK N   1      21.093  18.323   5.058  0.00  0.00    -0.353 OA
HETATM   30  C   UNK N   1      21.375  18.165   6.395  0.00  0.00     0.210 C 
ENDBRANCH  25  29
BRANCH  26  31
HETATM   31  O   UNK N   1      21.057  18.727   2.251  0.00  0.00    -0.351 OA
HETATM   32  C   UNK N   1      20.207  19.805   2.169  0.00  0.00     0.210 C 
ENDBRANCH  26  31
BRANCH  27  33
HETATM   33  O   UNK N   1      20.390  16.516   0.597  0.00  0.00    -0.353 OA
HETATM   34  C   UNK N   1      19.244  16.441  -0.162  0.00  0.00     0.210 C 
ENDBRANCH  27  33
ENDBRANCH  22  23
ENDBRANCH  12  22
BRANCH  19  35
HETATM   35  O   UNK N   1      23.117  12.936  10.038  0.00  0.00    -0.353 OA
HETATM   36  C   UNK N   1      24.426  12.539  10.195  0.00  0.00     0.210 C 
ENDBRANCH  19  35
BRANCH  20  37
HETATM   37  O   UNK N   1      21.149  14.882   9.309  0.00  0.00    -0.353 OA
HETATM   38  C   UNK N   1      20.264  15.883   8.986  0.00  0.00     0.210 C 
ENDBRANCH  20  37
ENDBRANCH  10  11
ENDBRANCH   9  10
ENDBRANCH   8   9
ENDBRANCH   7   8
ENDBRANCH   5   7
ENDBRANCH   4   5
ENDBRANCH   3   4
ENDBRANCH   1   3
BRANCH   2  39
HETATM   39  C   UNK N   1      26.141  16.242   6.024  0.00  0.00     0.037 C 
BRANCH  39  40
HETATM   40  C   UNK N   1      27.573  16.716   5.821  0.00  0.00     0.115 C 
BRANCH  40  41
HETATM   41  C   UNK N   1      28.078  17.758   6.805  0.00  0.00     0.259 C 
HETATM   42  O   UNK N   1      28.008  18.929   6.472  0.00  0.00    -0.265 OA
BRANCH  41  43
HETATM   43  O   UNK N   1      28.609  17.472   8.028  0.00  0.00    -0.321 OA
BRANCH  43  44
HETATM   44  C   UNK N   1      29.129  18.377   8.926  0.00  0.00     0.180 C 
BRANCH  44  45
HETATM   45  C   UNK N   1      30.644  18.389   8.827  0.00  0.00     0.055 C 
BRANCH  45  46
HETATM   46  C   UNK N   1      31.255  16.981   8.684  0.00  0.00     0.240 C 
BRANCH  46  47
HETATM   47  N   UNK N   1      32.249  16.823   7.601  0.00  0.00    -0.062 N 
HETATM   48  C   UNK N   1      32.563  15.391   7.407  0.00  0.00     0.227 C 
HETATM   49  C   UNK N   1      33.438  14.759   8.477  0.00  0.00    -0.018 A 
HETATM   50  C   UNK N   1      34.179  15.579   9.344  0.00  0.00    -0.045 A 
HETATM   51  C   UNK N   1      33.506  13.373   8.631  0.00  0.00     0.049 A 
HETATM   52  C   UNK N   1      34.161  17.068   9.208  0.00  0.00     0.067 C 
HETATM   53  C   UNK N   1      34.939  15.006  10.364  0.00  0.00     0.047 A 
HETATM   54  C   UNK N   1      33.508  17.520   7.897  0.00  0.00     0.242 C 
HETATM   55  C   UNK N   1      34.978  13.612  10.544  0.00  0.00     0.102 A 
HETATM   56  C   UNK N   1      34.244  12.782   9.657  0.00  0.00     0.102 A 
HETATM   57  C   UNK N   1      31.743  17.382   6.347  0.00  0.00     0.273 C 
BRANCH  48  58
HETATM   58  C   UNK N   1      31.608  14.549   6.518  0.00  0.00     0.077 C 
BRANCH  58  59
HETATM   59  C   UNK N   1      32.063  14.022   5.182  0.00  0.00    -0.050 A 
HETATM   60  C   UNK N   1      33.399  14.058   4.802  0.00  0.00     0.047 A 
HETATM   61  C   UNK N   1      33.805  13.797   3.497  0.00  0.00     0.104 A 
HETATM   62  C   UNK N   1      32.830  13.488   2.509  0.00  0.00     0.135 A 
HETATM   63  C   UNK N   1      31.458  13.427   2.894  0.00  0.00     0.104 A 
HETATM   64  C   UNK N   1      31.099  13.711   4.226  0.00  0.00     0.047 A 
BRANCH  61  65
HETATM   65  O   UNK N   1      35.137  13.893   3.238  0.00  0.00    -0.353 OA
HETATM   66  C   UNK N   1      36.069  12.896   3.407  0.00  0.00     0.210 C 
ENDBRANCH  61  65
BRANCH  62  67
HETATM   67  O   UNK N   1      33.236  13.270   1.228  0.00  0.00    -0.351 OA
HETATM   68  C   UNK N   1      33.554  12.052   0.672  0.00  0.00     0.210 C 
ENDBRANCH  62  67
BRANCH  63  69
HETATM   69  O   UNK N   1      30.502  13.114   1.984  0.00  0.00    -0.353 OA
HETATM   70  C   UNK N   1      29.166  12.993   2.292  0.00  0.00     0.210 C 
ENDBRANCH  63  69
ENDBRANCH  58  59
ENDBRANCH  48  58
BRANCH  55  71
HETATM   71  O   UNK N   1      35.709  13.070  11.548  0.00  0.00    -0.353 OA
HETATM   72  C   UNK N   1      37.068  13.250  11.682  0.00  0.00     0.210 C 
ENDBRANCH  55  71
BRANCH  56  73
HETATM   73  O   UNK N   1      34.200  11.427   9.755  0.00  0.00    -0.353 OA
HETATM   74  C   UNK N   1      35.045  10.551   9.116  0.00  0.00     0.210 C 
ENDBRANCH  56  73
ENDBRANCH  46  47
ENDBRANCH  45  46
ENDBRANCH  44  45
ENDBRANCH  43  44
ENDBRANCH  41  43
ENDBRANCH  40  41
ENDBRANCH  39  40
ENDBRANCH   2  39
TORSDOF 30
ENDMDL
MODEL 9
REMARK VINA RESULT:      -6.3      1.545      5.313
REMARK  30 active torsions:
REMARK  status: ('A' for Active; 'I' for Inactive)
REMARK    1  A    between atoms: O_1  and  C_41 
REMARK    2  A    between atoms: O_1  and  C_57 
REMARK    3  A    between atoms: O_2  and  C_42 
REMARK    4  A    between atoms: O_2  and  C_58 
REMARK    5  A    between atoms: O_3  and  C_43 
REMARK    6  A    between atoms: O_4  and  C_44 
REMARK    7  A    between atoms: O_5  and  C_45 
REMARK    8  A    between atoms: O_6  and  C_46 
REMARK    9  A    between atoms: O_7  and  C_51 
REMARK   10  A    between atoms: O_8  and  C_52 
REMARK   11  A    between atoms: O_9  and  C_53 
REMARK   12  A    between atoms: O_10  and  C_54 
REMARK   13  A    between atoms: O_11  and  C_55 
REMARK   14  A    between atoms: O_12  and  C_56 
REMARK   15  A    between atoms: N_15  and  C_21 
REMARK   16  A    between atoms: N_16  and  C_22 
REMARK   17  A    between atoms: C_17  and  C_29 
REMARK   18  A    between atoms: C_18  and  C_30 
REMARK   19  A    between atoms: C_21  and  C_33 
REMARK   20  A    between atoms: C_22  and  C_34 
REMARK   21  A    between atoms: C_29  and  C_37 
REMARK   22  A    between atoms: C_30  and  C_38 
REMARK   23  A    between atoms: C_33  and  C_41 
REMARK   24  A    between atoms: C_34  and  C_42 
REMARK   25  A    between atoms: C_57  and  C_63 
REMARK   26  A    between atoms: C_58  and  C_64 
REMARK   27  A    between atoms: C_63  and  C_65 
REMARK   28  A    between atoms: C_64  and  C_66 
REMARK   29  A    between atoms: C_65  and  C_73 
REMARK   30  A    between atoms: C_66  and  C_74 
ROOT
HETATM    1  C   UNK N   1      24.671  15.099   5.452  0.00  0.00    -0.030 C 
HETATM    2  C   UNK N   1      24.685  14.951   6.786  0.00  0.00    -0.030 C 
ENDROOT
BRANCH   1   3
HETATM    3  C   UNK N   1      25.453  14.251   4.501  0.00  0.00     0.037 C 
BRANCH   3   4
HETATM    4  C   UNK N   1      26.862  14.807   4.305  0.00  0.00     0.115 C 
BRANCH   4   5
HETATM    5  C   UNK N   1      27.409  14.492   2.938  0.00  0.00     0.259 C 
HETATM    6  O   UNK N   1      27.171  15.254   2.016  0.00  0.00    -0.265 OA
BRANCH   5   7
HETATM    7  O   UNK N   1      28.201  13.414   2.711  0.00  0.00    -0.321 OA
BRANCH   7   8
HETATM    8  C   UNK N   1      29.160  13.368   1.723  0.00  0.00     0.180 C 
BRANCH   8   9
HETATM    9  C   UNK N   1      30.540  13.318   2.356  0.00  0.00     0.055 C 
BRANCH   9  10
HETATM   10  C   UNK N   1      30.550  13.783   3.826  0.00  0.00     0.240 C 
BRANCH  10  11
HETATM   11  N   UNK N   1      31.658  14.688   4.203  0.00  0.00    -0.062 N 
HETATM   12  C   UNK N   1      31.432  15.229   5.560  0.00  0.00     0.227 C 
HETATM   13  C   UNK N   1      30.369  16.311   5.673  0.00  0.00    -0.018 A 
HETATM   14  C   UNK N   1      29.919  16.969   4.517  0.00  0.00    -0.045 A 
HETATM   15  C   UNK N   1      29.817  16.655   6.908  0.00  0.00     0.049 A 
HETATM   16  C   UNK N   1      30.501  16.660   3.173  0.00  0.00     0.067 C 
HETATM   17  C   UNK N   1      28.903  17.919   4.606  0.00  0.00     0.047 A 
HETATM   18  C   UNK N   1      31.781  15.825   3.281  0.00  0.00     0.242 C 
HETATM   19  C   UNK N   1      28.319  18.240   5.844  0.00  0.00     0.102 A 
HETATM   20  C   UNK N   1      28.788  17.592   7.016  0.00  0.00     0.102 A 
HETATM   21  C   UNK N   1      32.937  13.981   4.171  0.00  0.00     0.273 C 
BRANCH  12  22
HETATM   22  C   UNK N   1      31.828  14.337   6.768  0.00  0.00     0.077 C 
BRANCH  22  23
HETATM   23  C   UNK N   1      33.071  14.634   7.567  0.00  0.00    -0.050 A 
HETATM   24  C   UNK N   1      33.828  13.620   8.142  0.00  0.00     0.047 A 
HETATM   25  C   UNK N   1      34.838  13.882   9.064  0.00  0.00     0.104 A 
HETATM   26  C   UNK N   1      35.113  15.228   9.436  0.00  0.00     0.135 A 
HETATM   27  C   UNK N   1      34.357  16.275   8.832  0.00  0.00     0.104 A 
HETATM   28  C   UNK N   1      33.336  15.954   7.918  0.00  0.00     0.047 A 
BRANCH  25  29
HETATM   29  O   UNK N   1      35.488  12.808   9.586  0.00  0.00    -0.353 OA
HETATM   30  C   UNK N   1      35.232  12.219  10.802  0.00  0.00     0.210 C 
ENDBRANCH  25  29
BRANCH  26  31
HETATM   31  O   UNK N   1      36.081  15.470  10.362  0.00  0.00    -0.351 OA
HETATM   32  C   UNK N   1      35.884  15.689  11.705  0.00  0.00     0.210 C 
ENDBRANCH  26  31
BRANCH  27  33
HETATM   33  O   UNK N   1      34.606  17.571   9.146  0.00  0.00    -0.353 OA
HETATM   34  C   UNK N   1      34.578  18.597   8.228  0.00  0.00     0.210 C 
ENDBRANCH  27  33
ENDBRANCH  22  23
ENDBRANCH  12  22
BRANCH  19  35
HETATM   35  O   UNK N   1      27.321  19.156   5.914  0.00  0.00    -0.353 OA
HETATM   36  C   UNK N   1      27.539  20.508   6.061  0.00  0.00     0.210 C 
ENDBRANCH  19  35
BRANCH  20  37
HETATM   37  O   UNK N   1      28.279  17.817   8.255  0.00  0.00    -0.353 OA
HETATM   38  C   UNK N   1      28.957  18.385   9.308  0.00  0.00     0.210 C 
ENDBRANCH  20  37
ENDBRANCH  10  11
ENDBRANCH   9  10
ENDBRANCH   8   9
ENDBRANCH   7   8
ENDBRANCH   5   7
ENDBRANCH   4   5
ENDBRANCH   3   4
ENDBRANCH   1   3
BRANCH   2  39
HETATM   39  C   UNK N   1      25.396  13.867   7.554  0.00  0.00     0.037 C 
BRANCH  39  40
HETATM   40  C   UNK N   1      24.585  13.247   8.683  0.00  0.00     0.115 C 
BRANCH  40  41
HETATM   41  C   UNK N   1      23.734  12.044   8.312  0.00  0.00     0.259 C 
HETATM   42  O   UNK N   1      23.615  11.159   9.142  0.00  0.00    -0.265 OA
BRANCH  41  43
HETATM   43  O   UNK N   1      23.101  11.885   7.115  0.00  0.00    -0.321 OA
BRANCH  43  44
HETATM   44  C   UNK N   1      23.439  10.993   6.122  0.00  0.00     0.180 C 
BRANCH  44  45
HETATM   45  C   UNK N   1      22.522  11.180   4.926  0.00  0.00     0.055 C 
BRANCH  45  46
HETATM   46  C   UNK N   1      22.028  12.630   4.761  0.00  0.00     0.240 C 
BRANCH  46  47
HETATM   47  N   UNK N   1      20.593  12.852   5.040  0.00  0.00    -0.062 N 
HETATM   48  C   UNK N   1      19.953  13.531   3.892  0.00  0.00     0.227 C 
HETATM   49  C   UNK N   1      20.282  15.006   3.735  0.00  0.00    -0.018 A 
HETATM   50  C   UNK N   1      20.833  15.716   4.816  0.00  0.00    -0.045 A 
HETATM   51  C   UNK N   1      20.066  15.671   2.527  0.00  0.00     0.049 A 
HETATM   52  C   UNK N   1      21.062  15.058   6.139  0.00  0.00     0.067 C 
HETATM   53  C   UNK N   1      21.190  17.055   4.660  0.00  0.00     0.047 A 
HETATM   54  C   UNK N   1      20.382  13.688   6.229  0.00  0.00     0.242 C 
HETATM   55  C   UNK N   1      21.007  17.715   3.432  0.00  0.00     0.102 A 
HETATM   56  C   UNK N   1      20.434  17.005   2.345  0.00  0.00     0.102 A 
HETATM   57  C   UNK N   1      19.912  11.582   5.292  0.00  0.00     0.273 C 
BRANCH  48  58
HETATM   58  C   UNK N   1      19.484  12.658   2.697  0.00  0.00     0.077 C 
BRANCH  58  59
HETATM   59  C   UNK N   1      20.483  11.996   1.785  0.00  0.00    -0.050 A 
HETATM   60  C   UNK N   1      20.595  10.613   1.712  0.00  0.00     0.047 A 
HETATM   61  C   UNK N   1      21.657   9.989   1.062  0.00  0.00     0.104 A 
HETATM   62  C   UNK N   1      22.668  10.783   0.455  0.00  0.00     0.135 A 
HETATM   63  C   UNK N   1      22.550  12.203   0.505  0.00  0.00     0.104 A 
HETATM   64  C   UNK N   1      21.462  12.783   1.186  0.00  0.00     0.047 A 
BRANCH  61  65
HETATM   65  O   UNK N   1      21.676   8.629   1.084  0.00  0.00    -0.353 OA
HETATM   66  C   UNK N   1      20.736   7.798   0.521  0.00  0.00     0.210 C 
ENDBRANCH  61  65
BRANCH  62  67
HETATM   67  O   UNK N   1      23.721  10.162  -0.147  0.00  0.00    -0.351 OA
HETATM   68  C   UNK N   1      24.995  10.047   0.361  0.00  0.00     0.210 C 
ENDBRANCH  62  67
BRANCH  63  69
HETATM   69  O   UNK N   1      23.484  12.992  -0.082  0.00  0.00    -0.353 OA
HETATM   70  C   UNK N   1      24.014  14.117   0.509  0.00  0.00     0.210 C 
ENDBRANCH  63  69
ENDBRANCH  58  59
ENDBRANCH  48  58
BRANCH  55  71
HETATM   71  O   UNK N   1      21.372  19.013   3.290  0.00  0.00    -0.353 OA
HETATM   72  C   UNK N   1      22.649  19.474   3.527  0.00  0.00     0.210 C 
ENDBRANCH  55  71
BRANCH  56  73
HETATM   73  O   UNK N   1      20.233  17.544   1.114  0.00  0.00    -0.353 OA
HETATM   74  C   UNK N   1      19.731  16.877   0.022  0.00  0.00     0.210 C 
ENDBRANCH  56  73
ENDBRANCH  46  47
ENDBRANCH  45  46
ENDBRANCH  44  45
ENDBRANCH  43  44
ENDBRANCH  41  43
ENDBRANCH  40  41
ENDBRANCH  39  40
ENDBRANCH   2  39
TORSDOF 30
ENDMDL
