MODEL 1
REMARK VINA RESULT:      -5.7      0.000      0.000
REMARK  9 active torsions:
REMARK  status: ('A' for Active; 'I' for Inactive)
REMARK    1  A    between atoms: C_6  and  O_1 
REMARK    2  A    between atoms: O_1  and  C_23 
REMARK    3  A    between atoms: C_7  and  N_3 
REMARK    4  A    between atoms: C_4  and  C_5 
REMARK    5  A    between atoms: C_4  and  C_6 
REMARK    6  A    between atoms: C_4  and  C_8 
REMARK    7  A    between atoms: C_4  and  C_9 
REMARK    8  A    between atoms: C_5  and  C_7 
REMARK    9  A    between atoms: C_6  and  C_10 
ROOT
HETATM    1  C   UNK N   1      28.457  17.041   5.351  0.00  0.00     0.043 C 
ENDROOT
BRANCH   1   2
HETATM    2  C   UNK N   1      28.096  16.050   4.213  0.00  0.00     0.057 C 
BRANCH   2   3
HETATM    3  C   UNK N   1      28.945  14.753   4.054  0.00  0.00     0.219 C 
HETATM    4  C   UNK N   1      28.355  13.472   4.651  0.00  0.00     0.043 C 
BRANCH   3   5
HETATM    5  N   UNK N   1      29.675  14.590   2.784  0.00  0.00     0.084 N 
HETATM    6  C   UNK N   1      30.995  14.072   3.102  0.00  0.00     0.309 C 
HETATM    7  C   UNK N   1      29.048  13.602   1.910  0.00  0.00     0.309 C 
ENDBRANCH   3   5
ENDBRANCH   2   3
ENDBRANCH   1   2
BRANCH   1   8
HETATM    8  C   UNK N   1      27.741  16.606   6.691  0.00  0.00     0.149 C 
BRANCH   8   9
HETATM    9  O   UNK N   1      27.746  17.626   7.635  0.00  0.00    -0.315 OA
BRANCH   9  10
HETATM   10  C   UNK N   1      28.155  17.546   8.928  0.00  0.00     0.255 C 
HETATM   11  O   UNK N   1      27.578  16.826   9.737  0.00  0.00    -0.266 OA
HETATM   12  C   UNK N   1      29.268  18.413   9.394  0.00  0.00     0.126 C 
ENDBRANCH   9  10
ENDBRANCH   8   9
BRANCH   8  13
HETATM   13  C   UNK N   1      26.312  16.103   6.429  0.00  0.00     0.029 C 
HETATM   14  C   UNK N   1      26.050  14.876   7.288  0.00  0.00     0.007 C 
ENDBRANCH   8  13
ENDBRANCH   1   8
BRANCH   1  15
HETATM   15  C   UNK N   1      27.836  18.403   4.991  0.00  0.00    -0.042 A 
HETATM   16  C   UNK N   1      28.045  19.566   5.750  0.00  0.00     0.008 A 
HETATM   17  C   UNK N   1      27.406  20.762   5.415  0.00  0.00     0.001 A 
HETATM   18  C   UNK N   1      26.546  20.814   4.316  0.00  0.00     0.000 A 
HETATM   19  C   UNK N   1      26.322  19.669   3.552  0.00  0.00     0.001 A 
HETATM   20  C   UNK N   1      26.955  18.473   3.891  0.00  0.00     0.008 A 
ENDBRANCH   1  15
BRANCH   1  21
HETATM   21  C   UNK N   1      29.997  16.940   5.522  0.00  0.00    -0.042 A 
HETATM   22  C   UNK N   1      30.834  17.551   4.562  0.00  0.00     0.008 A 
HETATM   23  C   UNK N   1      32.223  17.538   4.684  0.00  0.00     0.001 A 
HETATM   24  C   UNK N   1      32.810  16.946   5.799  0.00  0.00     0.000 A 
HETATM   25  C   UNK N   1      32.006  16.351   6.774  0.00  0.00     0.001 A 
HETATM   26  C   UNK N   1      30.614  16.338   6.630  0.00  0.00     0.008 A 
ENDBRANCH   1  21
TORSDOF 9
ENDMDL
MODEL 2
REMARK VINA RESULT:      -5.6      1.753      3.161
REMARK  9 active torsions:
REMARK  status: ('A' for Active; 'I' for Inactive)
REMARK    1  A    between atoms: C_6  and  O_1 
REMARK    2  A    between atoms: O_1  and  C_23 
REMARK    3  A    between atoms: C_7  and  N_3 
REMARK    4  A    between atoms: C_4  and  C_5 
REMARK    5  A    between atoms: C_4  and  C_6 
REMARK    6  A    between atoms: C_4  and  C_8 
REMARK    7  A    between atoms: C_4  and  C_9 
REMARK    8  A    between atoms: C_5  and  C_7 
REMARK    9  A    between atoms: C_6  and  C_10 
ROOT
HETATM    1  C   UNK N   1      29.455  17.123   5.940  0.00  0.00     0.043 C 
ENDROOT
BRANCH   1   2
HETATM    2  C   UNK N   1      28.474  15.925   6.040  0.00  0.00     0.057 C 
BRANCH   2   3
HETATM    3  C   UNK N   1      27.161  15.962   5.203  0.00  0.00     0.219 C 
HETATM    4  C   UNK N   1      27.037  14.930   4.078  0.00  0.00     0.043 C 
BRANCH   3   5
HETATM    5  N   UNK N   1      25.917  16.263   5.935  0.00  0.00     0.084 N 
HETATM    6  C   UNK N   1      25.050  17.006   5.036  0.00  0.00     0.309 C 
HETATM    7  C   UNK N   1      25.185  15.053   6.301  0.00  0.00     0.309 C 
ENDBRANCH   3   5
ENDBRANCH   2   3
ENDBRANCH   1   2
BRANCH   1   8
HETATM    8  C   UNK N   1      30.163  17.357   7.333  0.00  0.00     0.149 C 
BRANCH   8   9
HETATM    9  O   UNK N   1      29.382  16.910   8.392  0.00  0.00    -0.315 OA
BRANCH   9  10
HETATM   10  C   UNK N   1      29.388  17.373   9.669  0.00  0.00     0.255 C 
HETATM   11  O   UNK N   1      29.049  16.659  10.609  0.00  0.00    -0.266 OA
HETATM   12  C   UNK N   1      29.727  18.797   9.926  0.00  0.00     0.126 C 
ENDBRANCH   9  10
ENDBRANCH   8   9
BRANCH   8  13
HETATM   13  C   UNK N   1      31.561  16.718   7.370  0.00  0.00     0.029 C 
HETATM   14  C   UNK N   1      32.569  17.750   7.847  0.00  0.00     0.007 C 
ENDBRANCH   8  13
ENDBRANCH   1   8
BRANCH   1  15
HETATM   15  C   UNK N   1      28.613  18.390   5.702  0.00  0.00    -0.042 A 
HETATM   16  C   UNK N   1      28.057  19.148   6.745  0.00  0.00     0.008 A 
HETATM   17  C   UNK N   1      27.248  20.253   6.472  0.00  0.00     0.001 A 
HETATM   18  C   UNK N   1      26.981  20.619   5.150  0.00  0.00     0.000 A 
HETATM   19  C   UNK N   1      27.521  19.877   4.100  0.00  0.00     0.001 A 
HETATM   20  C   UNK N   1      28.324  18.768   4.373  0.00  0.00     0.008 A 
ENDBRANCH   1  15
BRANCH   1  21
HETATM   21  C   UNK N   1      30.511  16.713   4.878  0.00  0.00    -0.042 A 
HETATM   22  C   UNK N   1      31.418  17.687   4.403  0.00  0.00     0.008 A 
HETATM   23  C   UNK N   1      32.419  17.371   3.486  0.00  0.00     0.001 A 
HETATM   24  C   UNK N   1      32.565  16.057   3.051  0.00  0.00     0.000 A 
HETATM   25  C   UNK N   1      31.695  15.070   3.519  0.00  0.00     0.001 A 
HETATM   26  C   UNK N   1      30.670  15.398   4.414  0.00  0.00     0.008 A 
ENDBRANCH   1  21
TORSDOF 9
ENDMDL
MODEL 3
REMARK VINA RESULT:      -5.5     11.508     14.347
REMARK  9 active torsions:
REMARK  status: ('A' for Active; 'I' for Inactive)
REMARK    1  A    between atoms: C_6  and  O_1 
REMARK    2  A    between atoms: O_1  and  C_23 
REMARK    3  A    between atoms: C_7  and  N_3 
REMARK    4  A    between atoms: C_4  and  C_5 
REMARK    5  A    between atoms: C_4  and  C_6 
REMARK    6  A    between atoms: C_4  and  C_8 
REMARK    7  A    between atoms: C_4  and  C_9 
REMARK    8  A    between atoms: C_5  and  C_7 
REMARK    9  A    between atoms: C_6  and  C_10 
ROOT
HETATM    1  C   UNK N   1      27.718  23.782  -5.688  0.00  0.00     0.043 C 
ENDROOT
BRANCH   1   2
HETATM    2  C   UNK N   1      26.634  24.398  -4.764  0.00  0.00     0.057 C 
BRANCH   2   3
HETATM    3  C   UNK N   1      26.334  25.923  -4.878  0.00  0.00     0.219 C 
HETATM    4  C   UNK N   1      25.058  26.315  -5.629  0.00  0.00     0.043 C 
BRANCH   3   5
HETATM    5  N   UNK N   1      26.667  26.753  -3.706  0.00  0.00     0.084 N 
HETATM    6  C   UNK N   1      27.966  27.355  -3.952  0.00  0.00     0.309 C 
HETATM    7  C   UNK N   1      25.731  27.860  -3.529  0.00  0.00     0.309 C 
ENDBRANCH   3   5
ENDBRANCH   2   3
ENDBRANCH   1   2
BRANCH   1   8
HETATM    8  C   UNK N   1      28.324  24.900  -6.626  0.00  0.00     0.149 C 
BRANCH   8   9
HETATM    9  O   UNK N   1      29.714  24.880  -6.622  0.00  0.00    -0.315 OA
BRANCH   9  10
HETATM   10  C   UNK N   1      30.548  25.905  -6.305  0.00  0.00     0.255 C 
HETATM   11  O   UNK N   1      30.525  26.963  -6.926  0.00  0.00    -0.266 OA
HETATM   12  C   UNK N   1      31.567  25.710  -5.241  0.00  0.00     0.126 C 
ENDBRANCH   9  10
ENDBRANCH   8   9
BRANCH   8  13
HETATM   13  C   UNK N   1      27.775  24.793  -8.059  0.00  0.00     0.029 C 
HETATM   14  C   UNK N   1      27.330  26.170  -8.526  0.00  0.00     0.007 C 
ENDBRANCH   8  13
ENDBRANCH   1   8
BRANCH   1  15
HETATM   15  C   UNK N   1      27.009  22.803  -6.642  0.00  0.00    -0.042 A 
HETATM   16  C   UNK N   1      25.614  22.649  -6.686  0.00  0.00     0.008 A 
HETATM   17  C   UNK N   1      25.026  21.700  -7.526  0.00  0.00     0.001 A 
HETATM   18  C   UNK N   1      25.824  20.888  -8.335  0.00  0.00     0.000 A 
HETATM   19  C   UNK N   1      27.212  21.022  -8.303  0.00  0.00     0.001 A 
HETATM   20  C   UNK N   1      27.799  21.966  -7.459  0.00  0.00     0.008 A 
ENDBRANCH   1  15
BRANCH   1  21
HETATM   21  C   UNK N   1      28.820  23.240  -4.738  0.00  0.00    -0.042 A 
HETATM   22  C   UNK N   1      28.907  23.757  -3.426  0.00  0.00     0.008 A 
HETATM   23  C   UNK N   1      29.842  23.278  -2.510  0.00  0.00     0.001 A 
HETATM   24  C   UNK N   1      30.689  22.236  -2.873  0.00  0.00     0.000 A 
HETATM   25  C   UNK N   1      30.612  21.692  -4.156  0.00  0.00     0.001 A 
HETATM   26  C   UNK N   1      29.694  22.198  -5.084  0.00  0.00     0.008 A 
ENDBRANCH   1  21
TORSDOF 9
ENDMDL
MODEL 4
REMARK VINA RESULT:      -5.5      2.270      5.183
REMARK  9 active torsions:
REMARK  status: ('A' for Active; 'I' for Inactive)
REMARK    1  A    between atoms: C_6  and  O_1 
REMARK    2  A    between atoms: O_1  and  C_23 
REMARK    3  A    between atoms: C_7  and  N_3 
REMARK    4  A    between atoms: C_4  and  C_5 
REMARK    5  A    between atoms: C_4  and  C_6 
REMARK    6  A    between atoms: C_4  and  C_8 
REMARK    7  A    between atoms: C_4  and  C_9 
REMARK    8  A    between atoms: C_5  and  C_7 
REMARK    9  A    between atoms: C_6  and  C_10 
ROOT
HETATM    1  C   UNK N   1      29.134  17.108   5.634  0.00  0.00     0.043 C 
ENDROOT
BRANCH   1   2
HETATM    2  C   UNK N   1      28.900  18.456   4.902  0.00  0.00     0.057 C 
BRANCH   2   3
HETATM    3  C   UNK N   1      27.527  19.171   5.074  0.00  0.00     0.219 C 
HETATM    4  C   UNK N   1      27.535  20.492   5.849  0.00  0.00     0.043 C 
BRANCH   3   5
HETATM    5  N   UNK N   1      26.598  19.106   3.931  0.00  0.00     0.084 N 
HETATM    6  C   UNK N   1      25.329  18.600   4.428  0.00  0.00     0.309 C 
HETATM    7  C   UNK N   1      26.320  20.425   3.368  0.00  0.00     0.309 C 
ENDBRANCH   3   5
ENDBRANCH   2   3
ENDBRANCH   1   2
BRANCH   1   8
HETATM    8  C   UNK N   1      30.530  16.500   5.209  0.00  0.00     0.149 C 
BRANCH   8   9
HETATM    9  O   UNK N   1      31.519  17.474   5.139  0.00  0.00    -0.315 OA
BRANCH   9  10
HETATM   10  C   UNK N   1      32.777  17.331   4.648  0.00  0.00     0.255 C 
HETATM   11  O   UNK N   1      33.755  17.737   5.270  0.00  0.00    -0.266 OA
HETATM   12  C   UNK N   1      32.970  16.751   3.294  0.00  0.00     0.126 C 
ENDBRANCH   9  10
ENDBRANCH   8   9
BRANCH   8  13
HETATM   13  C   UNK N   1      30.952  15.351   6.140  0.00  0.00     0.029 C 
HETATM   14  C   UNK N   1      31.066  14.070   5.330  0.00  0.00     0.007 C 
ENDBRANCH   8  13
ENDBRANCH   1   8
BRANCH   1  15
HETATM   15  C   UNK N   1      28.087  16.109   5.109  0.00  0.00    -0.042 A 
HETATM   16  C   UNK N   1      27.186  15.432   5.946  0.00  0.00     0.008 A 
HETATM   17  C   UNK N   1      26.298  14.488   5.424  0.00  0.00     0.001 A 
HETATM   18  C   UNK N   1      26.298  14.205   4.057  0.00  0.00     0.000 A 
HETATM   19  C   UNK N   1      27.189  14.864   3.209  0.00  0.00     0.001 A 
HETATM   20  C   UNK N   1      28.080  15.802   3.732  0.00  0.00     0.008 A 
ENDBRANCH   1  15
BRANCH   1  21
HETATM   21  C   UNK N   1      29.152  17.451   7.148  0.00  0.00    -0.042 A 
HETATM   22  C   UNK N   1      30.287  18.094   7.691  0.00  0.00     0.008 A 
HETATM   23  C   UNK N   1      30.345  18.472   9.032  0.00  0.00     0.001 A 
HETATM   24  C   UNK N   1      29.246  18.252   9.857  0.00  0.00     0.000 A 
HETATM   25  C   UNK N   1      28.102  17.637   9.342  0.00  0.00     0.001 A 
HETATM   26  C   UNK N   1      28.061  17.229   8.004  0.00  0.00     0.008 A 
ENDBRANCH   1  21
TORSDOF 9
ENDMDL
MODEL 5
REMARK VINA RESULT:      -5.4      2.108      5.088
REMARK  9 active torsions:
REMARK  status: ('A' for Active; 'I' for Inactive)
REMARK    1  A    between atoms: C_6  and  O_1 
REMARK    2  A    between atoms: O_1  and  C_23 
REMARK    3  A    between atoms: C_7  and  N_3 
REMARK    4  A    between atoms: C_4  and  C_5 
REMARK    5  A    between atoms: C_4  and  C_6 
REMARK    6  A    between atoms: C_4  and  C_8 
REMARK    7  A    between atoms: C_4  and  C_9 
REMARK    8  A    between atoms: C_5  and  C_7 
REMARK    9  A    between atoms: C_6  and  C_10 
ROOT
HETATM    1  C   UNK N   1      29.394  16.733   5.496  0.00  0.00     0.043 C 
ENDROOT
BRANCH   1   2
HETATM    2  C   UNK N   1      29.754  16.364   6.960  0.00  0.00     0.057 C 
BRANCH   2   3
HETATM    3  C   UNK N   1      31.236  16.498   7.422  0.00  0.00     0.219 C 
HETATM    4  C   UNK N   1      31.570  17.702   8.309  0.00  0.00     0.043 C 
BRANCH   3   5
HETATM    5  N   UNK N   1      31.944  15.247   7.749  0.00  0.00     0.084 N 
HETATM    6  C   UNK N   1      33.208  15.261   7.032  0.00  0.00     0.309 C 
HETATM    7  C   UNK N   1      32.279  15.156   9.168  0.00  0.00     0.309 C 
ENDBRANCH   3   5
ENDBRANCH   2   3
ENDBRANCH   1   2
BRANCH   1   8
HETATM    8  C   UNK N   1      28.417  15.648   4.892  0.00  0.00     0.149 C 
BRANCH   8   9
HETATM    9  O   UNK N   1      27.834  14.868   5.884  0.00  0.00    -0.315 OA
BRANCH   9  10
HETATM   10  C   UNK N   1      26.528  14.506   5.980  0.00  0.00     0.255 C 
HETATM   11  O   UNK N   1      26.074  13.573   5.325  0.00  0.00    -0.266 OA
HETATM   12  C   UNK N   1      25.611  15.308   6.831  0.00  0.00     0.126 C 
ENDBRANCH   9  10
ENDBRANCH   8   9
BRANCH   8  13
HETATM   13  C   UNK N   1      27.347  16.290   3.994  0.00  0.00     0.029 C 
HETATM   14  C   UNK N   1      27.443  15.693   2.599  0.00  0.00     0.007 C 
ENDBRANCH   8  13
ENDBRANCH   1   8
BRANCH   1  15
HETATM   15  C   UNK N   1      30.683  16.618   4.662  0.00  0.00    -0.042 A 
HETATM   16  C   UNK N   1      31.569  17.690   4.468  0.00  0.00     0.008 A 
HETATM   17  C   UNK N   1      32.692  17.549   3.649  0.00  0.00     0.001 A 
HETATM   18  C   UNK N   1      32.946  16.334   3.008  0.00  0.00     0.000 A 
HETATM   19  C   UNK N   1      32.075  15.259   3.185  0.00  0.00     0.001 A 
HETATM   20  C   UNK N   1      30.950  15.402   3.998  0.00  0.00     0.008 A 
ENDBRANCH   1  15
BRANCH   1  21
HETATM   21  C   UNK N   1      28.671  18.105   5.575  0.00  0.00    -0.042 A 
HETATM   22  C   UNK N   1      28.225  18.572   6.832  0.00  0.00     0.008 A 
HETATM   23  C   UNK N   1      27.612  19.815   6.977  0.00  0.00     0.001 A 
HETATM   24  C   UNK N   1      27.467  20.644   5.869  0.00  0.00     0.000 A 
HETATM   25  C   UNK N   1      27.916  20.217   4.617  0.00  0.00     0.001 A 
HETATM   26  C   UNK N   1      28.501  18.953   4.471  0.00  0.00     0.008 A 
ENDBRANCH   1  21
TORSDOF 9
ENDMDL
MODEL 6
REMARK VINA RESULT:      -5.4      2.264      5.196
REMARK  9 active torsions:
REMARK  status: ('A' for Active; 'I' for Inactive)
REMARK    1  A    between atoms: C_6  and  O_1 
REMARK    2  A    between atoms: O_1  and  C_23 
REMARK    3  A    between atoms: C_7  and  N_3 
REMARK    4  A    between atoms: C_4  and  C_5 
REMARK    5  A    between atoms: C_4  and  C_6 
REMARK    6  A    between atoms: C_4  and  C_8 
REMARK    7  A    between atoms: C_4  and  C_9 
REMARK    8  A    between atoms: C_5  and  C_7 
REMARK    9  A    between atoms: C_6  and  C_10 
ROOT
HETATM    1  C   UNK N   1      29.298  17.084   5.554  0.00  0.00     0.043 C 
ENDROOT
BRANCH   1   2
HETATM    2  C   UNK N   1      29.044  18.407   4.783  0.00  0.00     0.057 C 
BRANCH   2   3
HETATM    3  C   UNK N   1      27.691  19.148   4.997  0.00  0.00     0.219 C 
HETATM    4  C   UNK N   1      27.754  20.489   5.734  0.00  0.00     0.043 C 
BRANCH   3   5
HETATM    5  N   UNK N   1      26.711  19.068   3.899  0.00  0.00     0.084 N 
HETATM    6  C   UNK N   1      25.492  18.492   4.442  0.00  0.00     0.309 C 
HETATM    7  C   UNK N   1      26.347  20.386   3.385  0.00  0.00     0.309 C 
ENDBRANCH   3   5
ENDBRANCH   2   3
ENDBRANCH   1   2
BRANCH   1   8
HETATM    8  C   UNK N   1      30.722  16.509   5.183  0.00  0.00     0.149 C 
BRANCH   8   9
HETATM    9  O   UNK N   1      30.700  15.128   5.035  0.00  0.00    -0.315 OA
BRANCH   9  10
HETATM   10  C   UNK N   1      31.380  14.212   5.774  0.00  0.00     0.255 C 
HETATM   11  O   UNK N   1      31.383  13.023   5.472  0.00  0.00    -0.266 OA
HETATM   12  C   UNK N   1      32.062  14.645   7.022  0.00  0.00     0.126 C 
ENDBRANCH   9  10
ENDBRANCH   8   9
BRANCH   8  13
HETATM   13  C   UNK N   1      31.295  17.189   3.928  0.00  0.00     0.029 C 
HETATM   14  C   UNK N   1      32.743  17.573   4.186  0.00  0.00     0.007 C 
ENDBRANCH   8  13
ENDBRANCH   1   8
BRANCH   1  15
HETATM   15  C   UNK N   1      28.297  16.041   5.024  0.00  0.00    -0.042 A 
HETATM   16  C   UNK N   1      28.038  15.852   3.657  0.00  0.00     0.008 A 
HETATM   17  C   UNK N   1      27.073  14.935   3.233  0.00  0.00     0.001 A 
HETATM   18  C   UNK N   1      26.349  14.194   4.169  0.00  0.00     0.000 A 
HETATM   19  C   UNK N   1      26.589  14.370   5.532  0.00  0.00     0.001 A 
HETATM   20  C   UNK N   1      27.548  15.290   5.956  0.00  0.00     0.008 A 
ENDBRANCH   1  15
BRANCH   1  21
HETATM   21  C   UNK N   1      29.261  17.462   7.060  0.00  0.00    -0.042 A 
HETATM   22  C   UNK N   1      30.455  17.882   7.689  0.00  0.00     0.008 A 
HETATM   23  C   UNK N   1      30.479  18.281   9.024  0.00  0.00     0.001 A 
HETATM   24  C   UNK N   1      29.294  18.310   9.755  0.00  0.00     0.000 A 
HETATM   25  C   UNK N   1      28.096  17.920   9.153  0.00  0.00     0.001 A 
HETATM   26  C   UNK N   1      28.083  17.488   7.822  0.00  0.00     0.008 A 
ENDBRANCH   1  21
TORSDOF 9
ENDMDL
MODEL 7
REMARK VINA RESULT:      -5.4      1.373      4.672
REMARK  9 active torsions:
REMARK  status: ('A' for Active; 'I' for Inactive)
REMARK    1  A    between atoms: C_6  and  O_1 
REMARK    2  A    between atoms: O_1  and  C_23 
REMARK    3  A    between atoms: C_7  and  N_3 
REMARK    4  A    between atoms: C_4  and  C_5 
REMARK    5  A    between atoms: C_4  and  C_6 
REMARK    6  A    between atoms: C_4  and  C_8 
REMARK    7  A    between atoms: C_4  and  C_9 
REMARK    8  A    between atoms: C_5  and  C_7 
REMARK    9  A    between atoms: C_6  and  C_10 
ROOT
HETATM    1  C   UNK N   1      28.572  16.861   4.926  0.00  0.00     0.043 C 
ENDROOT
BRANCH   1   2
HETATM    2  C   UNK N   1      29.919  17.621   5.059  0.00  0.00     0.057 C 
BRANCH   2   3
HETATM    3  C   UNK N   1      31.245  16.835   4.839  0.00  0.00     0.219 C 
HETATM    4  C   UNK N   1      32.075  17.223   3.611  0.00  0.00     0.043 C 
BRANCH   3   5
HETATM    5  N   UNK N   1      32.015  16.484   6.046  0.00  0.00     0.084 N 
HETATM    6  C   UNK N   1      32.480  15.116   5.885  0.00  0.00     0.309 C 
HETATM    7  C   UNK N   1      33.213  17.307   6.197  0.00  0.00     0.309 C 
ENDBRANCH   3   5
ENDBRANCH   2   3
ENDBRANCH   1   2
BRANCH   1   8
HETATM    8  C   UNK N   1      28.130  16.298   6.335  0.00  0.00     0.149 C 
BRANCH   8   9
HETATM    9  O   UNK N   1      28.789  16.940   7.378  0.00  0.00    -0.315 OA
BRANCH   9  10
HETATM   10  C   UNK N   1      28.234  17.711   8.348  0.00  0.00     0.255 C 
HETATM   11  O   UNK N   1      27.771  17.215   9.372  0.00  0.00    -0.266 OA
HETATM   12  C   UNK N   1      28.104  19.175   8.130  0.00  0.00     0.126 C 
ENDBRANCH   9  10
ENDBRANCH   8   9
BRANCH   8  13
HETATM   13  C   UNK N   1      26.605  16.371   6.518  0.00  0.00     0.029 C 
HETATM   14  C   UNK N   1      26.067  14.973   6.775  0.00  0.00     0.007 C 
ENDBRANCH   8  13
ENDBRANCH   1   8
BRANCH   1  15
HETATM   15  C   UNK N   1      28.830  15.612   4.062  0.00  0.00    -0.042 A 
HETATM   16  C   UNK N   1      28.801  15.632   2.658  0.00  0.00     0.008 A 
HETATM   17  C   UNK N   1      28.980  14.457   1.924  0.00  0.00     0.001 A 
HETATM   18  C   UNK N   1      29.189  13.243   2.581  0.00  0.00     0.000 A 
HETATM   19  C   UNK N   1      29.217  13.202   3.975  0.00  0.00     0.001 A 
HETATM   20  C   UNK N   1      29.032  14.375   4.709  0.00  0.00     0.008 A 
ENDBRANCH   1  15
BRANCH   1  21
HETATM   21  C   UNK N   1      27.543  17.914   4.435  0.00  0.00    -0.042 A 
HETATM   22  C   UNK N   1      27.869  19.286   4.530  0.00  0.00     0.008 A 
HETATM   23  C   UNK N   1      27.009  20.278   4.063  0.00  0.00     0.001 A 
HETATM   24  C   UNK N   1      25.813  19.919   3.448  0.00  0.00     0.000 A 
HETATM   25  C   UNK N   1      25.474  18.570   3.323  0.00  0.00     0.001 A 
HETATM   26  C   UNK N   1      26.325  17.578   3.823  0.00  0.00     0.008 A 
ENDBRANCH   1  21
TORSDOF 9
ENDMDL
MODEL 8
REMARK VINA RESULT:      -5.4     11.559     14.711
REMARK  9 active torsions:
REMARK  status: ('A' for Active; 'I' for Inactive)
REMARK    1  A    between atoms: C_6  and  O_1 
REMARK    2  A    between atoms: O_1  and  C_23 
REMARK    3  A    between atoms: C_7  and  N_3 
REMARK    4  A    between atoms: C_4  and  C_5 
REMARK    5  A    between atoms: C_4  and  C_6 
REMARK    6  A    between atoms: C_4  and  C_8 
REMARK    7  A    between atoms: C_4  and  C_9 
REMARK    8  A    between atoms: C_5  and  C_7 
REMARK    9  A    between atoms: C_6  and  C_10 
ROOT
HETATM    1  C   UNK N   1      27.659  25.053  -5.210  0.00  0.00     0.043 C 
ENDROOT
BRANCH   1   2
HETATM    2  C   UNK N   1      26.312  25.448  -4.547  0.00  0.00     0.057 C 
BRANCH   2   3
HETATM    3  C   UNK N   1      25.745  26.877  -4.801  0.00  0.00     0.219 C 
HETATM    4  C   UNK N   1      24.650  26.999  -5.865  0.00  0.00     0.043 C 
BRANCH   3   5
HETATM    5  N   UNK N   1      25.592  27.748  -3.622  0.00  0.00     0.084 N 
HETATM    6  C   UNK N   1      26.391  27.177  -2.550  0.00  0.00     0.309 C 
HETATM    7  C   UNK N   1      26.119  29.090  -3.854  0.00  0.00     0.309 C 
ENDBRANCH   3   5
ENDBRANCH   2   3
ENDBRANCH   1   2
BRANCH   1   8
HETATM    8  C   UNK N   1      27.422  23.902  -6.266  0.00  0.00     0.149 C 
BRANCH   8   9
HETATM    9  O   UNK N   1      28.238  22.803  -6.025  0.00  0.00    -0.315 OA
BRANCH   9  10
HETATM   10  C   UNK N   1      28.971  22.110  -6.935  0.00  0.00     0.255 C 
HETATM   11  O   UNK N   1      28.909  22.365  -8.134  0.00  0.00    -0.266 OA
HETATM   12  C   UNK N   1      29.799  20.962  -6.481  0.00  0.00     0.126 C 
ENDBRANCH   9  10
ENDBRANCH   8   9
BRANCH   8  13
HETATM   13  C   UNK N   1      25.942  23.488  -6.327  0.00  0.00     0.029 C 
HETATM   14  C   UNK N   1      25.517  23.369  -7.782  0.00  0.00     0.007 C 
ENDBRANCH   8  13
ENDBRANCH   1   8
BRANCH   1  15
HETATM   15  C   UNK N   1      28.542  24.418  -4.119  0.00  0.00    -0.042 A 
HETATM   16  C   UNK N   1      29.944  24.395  -4.185  0.00  0.00     0.008 A 
HETATM   17  C   UNK N   1      30.694  23.750  -3.199  0.00  0.00     0.001 A 
HETATM   18  C   UNK N   1      30.054  23.116  -2.132  0.00  0.00     0.000 A 
HETATM   19  C   UNK N   1      28.662  23.124  -2.051  0.00  0.00     0.001 A 
HETATM   20  C   UNK N   1      27.912  23.763  -3.040  0.00  0.00     0.008 A 
ENDBRANCH   1  15
BRANCH   1  21
HETATM   21  C   UNK N   1      28.162  26.332  -5.932  0.00  0.00    -0.042 A 
HETATM   22  C   UNK N   1      27.849  26.514  -7.298  0.00  0.00     0.008 A 
HETATM   23  C   UNK N   1      28.229  27.662  -7.991  0.00  0.00     0.001 A 
HETATM   24  C   UNK N   1      28.898  28.681  -7.320  0.00  0.00     0.000 A 
HETATM   25  C   UNK N   1      29.203  28.537  -5.964  0.00  0.00     0.001 A 
HETATM   26  C   UNK N   1      28.849  27.368  -5.281  0.00  0.00     0.008 A 
ENDBRANCH   1  21
TORSDOF 9
ENDMDL
MODEL 9
REMARK VINA RESULT:      -5.2     15.375     18.049
REMARK  9 active torsions:
REMARK  status: ('A' for Active; 'I' for Inactive)
REMARK    1  A    between atoms: C_6  and  O_1 
REMARK    2  A    between atoms: O_1  and  C_23 
REMARK    3  A    between atoms: C_7  and  N_3 
REMARK    4  A    between atoms: C_4  and  C_5 
REMARK    5  A    between atoms: C_4  and  C_6 
REMARK    6  A    between atoms: C_4  and  C_8 
REMARK    7  A    between atoms: C_4  and  C_9 
REMARK    8  A    between atoms: C_5  and  C_7 
REMARK    9  A    between atoms: C_6  and  C_10 
ROOT
HETATM    1  C   UNK N   1      34.772   9.698  19.956  0.00  0.00     0.043 C 
ENDROOT
BRANCH   1   2
HETATM    2  C   UNK N   1      33.725   8.881  19.151  0.00  0.00     0.057 C 
BRANCH   2   3
HETATM    3  C   UNK N   1      32.798   7.894  19.920  0.00  0.00     0.219 C 
HETATM    4  C   UNK N   1      31.303   8.231  19.936  0.00  0.00     0.043 C 
BRANCH   3   5
HETATM    5  N   UNK N   1      33.128   6.461  19.821  0.00  0.00     0.084 N 
HETATM    6  C   UNK N   1      33.355   5.971  21.170  0.00  0.00     0.309 C 
HETATM    7  C   UNK N   1      32.022   5.674  19.281  0.00  0.00     0.309 C 
ENDBRANCH   3   5
ENDBRANCH   2   3
ENDBRANCH   1   2
BRANCH   1   8
HETATM    8  C   UNK N   1      36.122   8.885  20.062  0.00  0.00     0.149 C 
BRANCH   8   9
HETATM    9  O   UNK N   1      36.164   7.829  19.159  0.00  0.00    -0.315 OA
BRANCH   9  10
HETATM   10  C   UNK N   1      37.179   7.511  18.315  0.00  0.00     0.255 C 
HETATM   11  O   UNK N   1      38.152   6.869  18.700  0.00  0.00    -0.266 OA
HETATM   12  C   UNK N   1      37.154   8.022  16.920  0.00  0.00     0.126 C 
ENDBRANCH   9  10
ENDBRANCH   8   9
BRANCH   8  13
HETATM   13  C   UNK N   1      37.347   9.800  19.897  0.00  0.00     0.029 C 
HETATM   14  C   UNK N   1      38.204   9.717  21.149  0.00  0.00     0.007 C 
ENDBRANCH   8  13
ENDBRANCH   1   8
BRANCH   1  15
HETATM   15  C   UNK N   1      34.257   9.808  21.403  0.00  0.00    -0.042 A 
HETATM   16  C   UNK N   1      33.181  10.630  21.774  0.00  0.00     0.008 A 
HETATM   17  C   UNK N   1      32.796  10.741  23.112  0.00  0.00     0.001 A 
HETATM   18  C   UNK N   1      33.482  10.034  24.102  0.00  0.00     0.000 A 
HETATM   19  C   UNK N   1      34.557   9.216  23.754  0.00  0.00     0.001 A 
HETATM   20  C   UNK N   1      34.946   9.110  22.418  0.00  0.00     0.008 A 
ENDBRANCH   1  15
BRANCH   1  21
HETATM   21  C   UNK N   1      35.005  10.998  19.141  0.00  0.00    -0.042 A 
HETATM   22  C   UNK N   1      35.037  10.925  17.730  0.00  0.00     0.008 A 
HETATM   23  C   UNK N   1      35.195  12.062  16.940  0.00  0.00     0.001 A 
HETATM   24  C   UNK N   1      35.283  13.313  17.544  0.00  0.00     0.000 A 
HETATM   25  C   UNK N   1      35.234  13.418  18.936  0.00  0.00     0.001 A 
HETATM   26  C   UNK N   1      35.109  12.269  19.726  0.00  0.00     0.008 A 
ENDBRANCH   1  21
TORSDOF 9
ENDMDL
