MODEL 1
REMARK VINA RESULT:      -6.6      0.000      0.000
REMARK  6 active torsions:
REMARK  status: ('A' for Active; 'I' for Inactive)
REMARK    1  A    between atoms: N_2  and  C_5 
REMARK    2  A    between atoms: C_5  and  C_9 
REMARK    3  A    between atoms: C_9  and  C_10 
REMARK    4  A    between atoms: C_10  and  C_11 
REMARK    5  A    between atoms: C_11  and  C_12 
REMARK    6  A    between atoms: C_11  and  C_13 
ROOT
HETATM    1  O   UNK N   1      26.308  23.999  -3.148  0.00  0.00    -0.380 OA
HETATM    2  C   UNK N   1      27.207  24.470  -4.112  0.00  0.00     0.112 C 
HETATM    3  H   UNK N   1      25.665  23.806  -2.448  0.00  0.00     0.211 HD
ENDROOT
BRANCH   2   4
HETATM    4  C   UNK N   1      28.644  24.330  -3.605  0.00  0.00     0.050 C 
BRANCH   4   5
HETATM    5  C   UNK N   1      28.841  23.440  -2.388  0.00  0.00     0.034 C 
BRANCH   5   6
HETATM    6  C   UNK N   1      30.257  22.871  -2.428  0.00  0.00     0.272 C 
BRANCH   6   7
HETATM    7  N   UNK N   1      30.649  22.481  -3.783  0.00  0.00     0.088 N 
HETATM    8  C   UNK N   1      32.042  22.891  -3.952  0.00  0.00     0.272 C 
HETATM    9  C   UNK N   1      32.533  22.536  -5.356  0.00  0.00     0.030 C 
HETATM   10  C   UNK N   1      32.399  21.035  -5.590  0.00  0.00     0.003 C 
HETATM   11  C   UNK N   1      30.970  20.586  -5.309  0.00  0.00     0.030 C 
HETATM   12  C   UNK N   1      30.586  21.020  -3.898  0.00  0.00     0.272 C 
ENDBRANCH   6   7
ENDBRANCH   5   6
ENDBRANCH   4   5
ENDBRANCH   2   4
BRANCH   2  13
HETATM   13  C   UNK N   1      27.034  23.643  -5.380  0.00  0.00    -0.019 A 
HETATM   14  C   UNK N   1      25.773  23.414  -5.954  0.00  0.00     0.010 A 
HETATM   15  C   UNK N   1      25.652  22.665  -7.129  0.00  0.00     0.001 A 
HETATM   16  C   UNK N   1      26.790  22.133  -7.739  0.00  0.00     0.000 A 
HETATM   17  C   UNK N   1      28.049  22.345  -7.174  0.00  0.00     0.001 A 
HETATM   18  C   UNK N   1      28.172  23.096  -6.002  0.00  0.00     0.010 A 
ENDBRANCH   2  13
BRANCH   2  19
HETATM   19  C   UNK N   1      27.007  25.971  -4.298  0.00  0.00    -0.019 A 
HETATM   20  C   UNK N   1      27.456  26.606  -5.472  0.00  0.00     0.010 A 
HETATM   21  C   UNK N   1      27.191  27.961  -5.690  0.00  0.00     0.001 A 
HETATM   22  C   UNK N   1      26.477  28.695  -4.741  0.00  0.00     0.000 A 
HETATM   23  C   UNK N   1      26.031  28.078  -3.570  0.00  0.00     0.001 A 
HETATM   24  C   UNK N   1      26.289  26.721  -3.353  0.00  0.00     0.010 A 
ENDBRANCH   2  19
TORSDOF 6
ENDMDL
MODEL 2
REMARK VINA RESULT:      -6.6     20.552     23.566
REMARK  6 active torsions:
REMARK  status: ('A' for Active; 'I' for Inactive)
REMARK    1  A    between atoms: N_2  and  C_5 
REMARK    2  A    between atoms: C_5  and  C_9 
REMARK    3  A    between atoms: C_9  and  C_10 
REMARK    4  A    between atoms: C_10  and  C_11 
REMARK    5  A    between atoms: C_11  and  C_12 
REMARK    6  A    between atoms: C_11  and  C_13 
ROOT
HETATM    1  O   UNK N   1      37.623  12.429  14.687  0.00  0.00    -0.380 OA
HETATM    2  C   UNK N   1      36.228  12.432  14.799  0.00  0.00     0.112 C 
HETATM    3  H   UNK N   1      38.591  12.448  14.747  0.00  0.00     0.211 HD
ENDROOT
BRANCH   2   4
HETATM    4  C   UNK N   1      35.668  13.786  14.359  0.00  0.00     0.050 C 
BRANCH   4   5
HETATM    5  C   UNK N   1      36.437  14.504  13.262  0.00  0.00     0.034 C 
BRANCH   5   6
HETATM    6  C   UNK N   1      35.491  14.751  12.088  0.00  0.00     0.272 C 
BRANCH   6   7
HETATM    7  N   UNK N   1      35.914  14.031  10.888  0.00  0.00     0.088 N 
HETATM    8  C   UNK N   1      37.209  13.426  11.195  0.00  0.00     0.272 C 
HETATM    9  C   UNK N   1      37.741  12.663   9.981  0.00  0.00     0.030 C 
HETATM   10  C   UNK N   1      36.745  11.582   9.570  0.00  0.00     0.003 C 
HETATM   11  C   UNK N   1      35.367  12.195   9.355  0.00  0.00     0.030 C 
HETATM   12  C   UNK N   1      34.960  12.950  10.615  0.00  0.00     0.272 C 
ENDBRANCH   6   7
ENDBRANCH   5   6
ENDBRANCH   4   5
ENDBRANCH   2   4
BRANCH   2  13
HETATM   13  C   UNK N   1      35.669  11.335  13.900  0.00  0.00    -0.019 A 
HETATM   14  C   UNK N   1      34.291  11.187  13.676  0.00  0.00     0.010 A 
HETATM   15  C   UNK N   1      33.812  10.181  12.830  0.00  0.00     0.001 A 
HETATM   16  C   UNK N   1      34.707   9.309  12.204  0.00  0.00     0.000 A 
HETATM   17  C   UNK N   1      36.080   9.440  12.426  0.00  0.00     0.001 A 
HETATM   18  C   UNK N   1      36.559  10.447  13.268  0.00  0.00     0.010 A 
ENDBRANCH   2  13
BRANCH   2  19
HETATM   19  C   UNK N   1      35.839  12.312  16.269  0.00  0.00    -0.019 A 
HETATM   20  C   UNK N   1      35.951  11.075  16.933  0.00  0.00     0.010 A 
HETATM   21  C   UNK N   1      35.688  10.981  18.303  0.00  0.00     0.001 A 
HETATM   22  C   UNK N   1      35.313  12.117  19.022  0.00  0.00     0.000 A 
HETATM   23  C   UNK N   1      35.194  13.349  18.374  0.00  0.00     0.001 A 
HETATM   24  C   UNK N   1      35.463  13.447  17.006  0.00  0.00     0.010 A 
ENDBRANCH   2  19
TORSDOF 6
ENDMDL
MODEL 3
REMARK VINA RESULT:      -6.5     21.422     24.705
REMARK  6 active torsions:
REMARK  status: ('A' for Active; 'I' for Inactive)
REMARK    1  A    between atoms: N_2  and  C_5 
REMARK    2  A    between atoms: C_5  and  C_9 
REMARK    3  A    between atoms: C_9  and  C_10 
REMARK    4  A    between atoms: C_10  and  C_11 
REMARK    5  A    between atoms: C_11  and  C_12 
REMARK    6  A    between atoms: C_11  and  C_13 
ROOT
HETATM    1  O   UNK N   1      34.166  12.283  14.688  0.00  0.00    -0.380 OA
HETATM    2  C   UNK N   1      35.442  12.102  15.233  0.00  0.00     0.112 C 
HETATM    3  H   UNK N   1      33.313  12.302  14.226  0.00  0.00     0.211 HD
ENDROOT
BRANCH   2   4
HETATM    4  C   UNK N   1      36.411  13.139  14.660  0.00  0.00     0.050 C 
BRANCH   4   5
HETATM    5  C   UNK N   1      35.838  14.087  13.619  0.00  0.00     0.034 C 
BRANCH   5   6
HETATM    6  C   UNK N   1      36.562  13.848  12.296  0.00  0.00     0.272 C 
BRANCH   6   7
HETATM    7  N   UNK N   1      36.608  12.428  11.950  0.00  0.00     0.088 N 
HETATM    8  C   UNK N   1      35.447  12.165  11.099  0.00  0.00     0.272 C 
HETATM    9  C   UNK N   1      35.404  10.689  10.702  0.00  0.00     0.030 C 
HETATM   10  C   UNK N   1      36.686  10.310   9.967  0.00  0.00     0.003 C 
HETATM   11  C   UNK N   1      37.901  10.683  10.808  0.00  0.00     0.030 C 
HETATM   12  C   UNK N   1      37.818  12.163  11.165  0.00  0.00     0.272 C 
ENDBRANCH   6   7
ENDBRANCH   5   6
ENDBRANCH   4   5
ENDBRANCH   2   4
BRANCH   2  13
HETATM   13  C   UNK N   1      35.351  12.273  16.744  0.00  0.00    -0.019 A 
HETATM   14  C   UNK N   1      35.337  11.175  17.619  0.00  0.00     0.010 A 
HETATM   15  C   UNK N   1      35.271  11.369  19.003  0.00  0.00     0.001 A 
HETATM   16  C   UNK N   1      35.213  12.663  19.526  0.00  0.00     0.000 A 
HETATM   17  C   UNK N   1      35.217  13.764  18.667  0.00  0.00     0.001 A 
HETATM   18  C   UNK N   1      35.286  13.571  17.284  0.00  0.00     0.010 A 
ENDBRANCH   2  13
BRANCH   2  19
HETATM   19  C   UNK N   1      36.001  10.758  14.776  0.00  0.00    -0.019 A 
HETATM   20  C   UNK N   1      35.137   9.767  14.271  0.00  0.00     0.010 A 
HETATM   21  C   UNK N   1      35.652   8.572  13.762  0.00  0.00     0.001 A 
HETATM   22  C   UNK N   1      37.031   8.354  13.749  0.00  0.00     0.000 A 
HETATM   23  C   UNK N   1      37.898   9.328  14.251  0.00  0.00     0.001 A 
HETATM   24  C   UNK N   1      37.385  10.526  14.755  0.00  0.00     0.010 A 
ENDBRANCH   2  19
TORSDOF 6
ENDMDL
MODEL 4
REMARK VINA RESULT:      -6.4      1.917      5.608
REMARK  6 active torsions:
REMARK  status: ('A' for Active; 'I' for Inactive)
REMARK    1  A    between atoms: N_2  and  C_5 
REMARK    2  A    between atoms: C_5  and  C_9 
REMARK    3  A    between atoms: C_9  and  C_10 
REMARK    4  A    between atoms: C_10  and  C_11 
REMARK    5  A    between atoms: C_11  and  C_12 
REMARK    6  A    between atoms: C_11  and  C_13 
ROOT
HETATM    1  O   UNK N   1      30.275  23.953  -2.304  0.00  0.00    -0.380 OA
HETATM    2  C   UNK N   1      30.248  23.881  -3.701  0.00  0.00     0.112 C 
HETATM    3  H   UNK N   1      30.159  24.036  -1.345  0.00  0.00     0.211 HD
ENDROOT
BRANCH   2   4
HETATM    4  C   UNK N   1      30.843  25.155  -4.305  0.00  0.00     0.050 C 
BRANCH   4   5
HETATM    5  C   UNK N   1      30.672  26.426  -3.489  0.00  0.00     0.034 C 
BRANCH   5   6
HETATM    6  C   UNK N   1      30.000  27.479  -4.367  0.00  0.00     0.272 C 
BRANCH   6   7
HETATM    7  N   UNK N   1      28.560  27.250  -4.487  0.00  0.00     0.088 N 
HETATM    8  C   UNK N   1      27.921  28.020  -3.420  0.00  0.00     0.272 C 
HETATM    9  C   UNK N   1      26.405  27.823  -3.458  0.00  0.00     0.030 C 
HETATM   10  C   UNK N   1      25.858  28.257  -4.814  0.00  0.00     0.003 C 
HETATM   11  C   UNK N   1      26.599  27.535  -5.933  0.00  0.00     0.030 C 
HETATM   12  C   UNK N   1      28.095  27.780  -5.773  0.00  0.00     0.272 C 
ENDBRANCH   6   7
ENDBRANCH   5   6
ENDBRANCH   4   5
ENDBRANCH   2   4
BRANCH   2  13
HETATM   13  C   UNK N   1      31.075  22.678  -4.140  0.00  0.00    -0.019 A 
HETATM   14  C   UNK N   1      30.661  21.360  -3.893  0.00  0.00     0.010 A 
HETATM   15  C   UNK N   1      31.435  20.278  -4.326  0.00  0.00     0.001 A 
HETATM   16  C   UNK N   1      32.635  20.505  -5.005  0.00  0.00     0.000 A 
HETATM   17  C   UNK N   1      33.064  21.811  -5.249  0.00  0.00     0.001 A 
HETATM   18  C   UNK N   1      32.288  22.893  -4.820  0.00  0.00     0.010 A 
ENDBRANCH   2  13
BRANCH   2  19
HETATM   19  C   UNK N   1      28.799  23.867  -4.179  0.00  0.00    -0.019 A 
HETATM   20  C   UNK N   1      27.750  24.079  -3.264  0.00  0.00     0.010 A 
HETATM   21  C   UNK N   1      26.428  24.163  -3.710  0.00  0.00     0.001 A 
HETATM   22  C   UNK N   1      26.139  24.038  -5.069  0.00  0.00     0.000 A 
HETATM   23  C   UNK N   1      27.171  23.824  -5.987  0.00  0.00     0.001 A 
HETATM   24  C   UNK N   1      28.495  23.745  -5.544  0.00  0.00     0.010 A 
ENDBRANCH   2  19
TORSDOF 6
ENDMDL
MODEL 5
REMARK VINA RESULT:      -6.3     10.804     13.094
REMARK  6 active torsions:
REMARK  status: ('A' for Active; 'I' for Inactive)
REMARK    1  A    between atoms: N_2  and  C_5 
REMARK    2  A    between atoms: C_5  and  C_9 
REMARK    3  A    between atoms: C_9  and  C_10 
REMARK    4  A    between atoms: C_10  and  C_11 
REMARK    5  A    between atoms: C_11  and  C_12 
REMARK    6  A    between atoms: C_11  and  C_13 
ROOT
HETATM    1  O   UNK N   1      27.094  16.782   7.077  0.00  0.00    -0.380 OA
HETATM    2  C   UNK N   1      27.979  17.664   6.446  0.00  0.00     0.112 C 
HETATM    3  H   UNK N   1      26.381  16.254   7.469  0.00  0.00     0.211 HD
ENDROOT
BRANCH   2   4
HETATM    4  C   UNK N   1      28.614  18.599   7.478  0.00  0.00     0.050 C 
BRANCH   4   5
HETATM    5  C   UNK N   1      29.086  17.951   8.768  0.00  0.00     0.034 C 
BRANCH   5   6
HETATM    6  C   UNK N   1      30.558  18.302   8.977  0.00  0.00     0.272 C 
BRANCH   6   7
HETATM    7  N   UNK N   1      31.434  17.505   8.118  0.00  0.00     0.088 N 
HETATM    8  C   UNK N   1      32.732  18.179   8.102  0.00  0.00     0.272 C 
HETATM    9  C   UNK N   1      33.713  17.420   7.208  0.00  0.00     0.030 C 
HETATM   10  C   UNK N   1      33.874  15.988   7.710  0.00  0.00     0.003 C 
HETATM   11  C   UNK N   1      32.511  15.319   7.831  0.00  0.00     0.030 C 
HETATM   12  C   UNK N   1      31.616  16.179   8.717  0.00  0.00     0.272 C 
ENDBRANCH   6   7
ENDBRANCH   5   6
ENDBRANCH   4   5
ENDBRANCH   2   4
BRANCH   2  13
HETATM   13  C   UNK N   1      29.069  16.849   5.762  0.00  0.00    -0.019 A 
HETATM   14  C   UNK N   1      29.078  15.445   5.789  0.00  0.00     0.010 A 
HETATM   15  C   UNK N   1      30.084  14.727   5.134  0.00  0.00     0.001 A 
HETATM   16  C   UNK N   1      31.095  15.407   4.449  0.00  0.00     0.000 A 
HETATM   17  C   UNK N   1      31.103  16.803   4.421  0.00  0.00     0.001 A 
HETATM   18  C   UNK N   1      30.096  17.521   5.073  0.00  0.00     0.010 A 
ENDBRANCH   2  13
BRANCH   2  19
HETATM   19  C   UNK N   1      27.195  18.588   5.519  0.00  0.00    -0.019 A 
HETATM   20  C   UNK N   1      27.307  19.985   5.651  0.00  0.00     0.010 A 
HETATM   21  C   UNK N   1      26.667  20.835   4.744  0.00  0.00     0.001 A 
HETATM   22  C   UNK N   1      25.912  20.302   3.699  0.00  0.00     0.000 A 
HETATM   23  C   UNK N   1      25.790  18.916   3.559  0.00  0.00     0.001 A 
HETATM   24  C   UNK N   1      26.433  18.065   4.461  0.00  0.00     0.010 A 
ENDBRANCH   2  19
TORSDOF 6
ENDMDL
MODEL 6
REMARK VINA RESULT:      -6.3     20.171     23.623
REMARK  6 active torsions:
REMARK  status: ('A' for Active; 'I' for Inactive)
REMARK    1  A    between atoms: N_2  and  C_5 
REMARK    2  A    between atoms: C_5  and  C_9 
REMARK    3  A    between atoms: C_9  and  C_10 
REMARK    4  A    between atoms: C_10  and  C_11 
REMARK    5  A    between atoms: C_11  and  C_12 
REMARK    6  A    between atoms: C_11  and  C_13 
ROOT
HETATM    1  O   UNK N   1      34.198  12.388  14.571  0.00  0.00    -0.380 OA
HETATM    2  C   UNK N   1      35.586  12.420  14.751  0.00  0.00     0.112 C 
HETATM    3  H   UNK N   1      33.251  12.228  14.441  0.00  0.00     0.211 HD
ENDROOT
BRANCH   2   4
HETATM    4  C   UNK N   1      36.279  12.776  13.433  0.00  0.00     0.050 C 
BRANCH   4   5
HETATM    5  C   UNK N   1      35.371  13.224  12.299  0.00  0.00     0.034 C 
BRANCH   5   6
HETATM    6  C   UNK N   1      35.474  14.742  12.167  0.00  0.00     0.272 C 
BRANCH   6   7
HETATM    7  N   UNK N   1      34.641  15.251  11.078  0.00  0.00     0.088 N 
HETATM    8  C   UNK N   1      35.340  16.408  10.519  0.00  0.00     0.272 C 
HETATM    9  C   UNK N   1      34.526  17.020   9.379  0.00  0.00     0.030 C 
HETATM   10  C   UNK N   1      34.290  15.977   8.290  0.00  0.00     0.003 C 
HETATM   11  C   UNK N   1      33.661  14.727   8.891  0.00  0.00     0.030 C 
HETATM   12  C   UNK N   1      34.542  14.229  10.031  0.00  0.00     0.272 C 
ENDBRANCH   6   7
ENDBRANCH   5   6
ENDBRANCH   4   5
ENDBRANCH   2   4
BRANCH   2  13
HETATM   13  C   UNK N   1      35.914  13.477  15.798  0.00  0.00    -0.019 A 
HETATM   14  C   UNK N   1      35.255  13.528  17.037  0.00  0.00     0.010 A 
HETATM   15  C   UNK N   1      35.594  14.501  17.983  0.00  0.00     0.001 A 
HETATM   16  C   UNK N   1      36.592  15.436  17.698  0.00  0.00     0.000 A 
HETATM   17  C   UNK N   1      37.249  15.402  16.467  0.00  0.00     0.001 A 
HETATM   18  C   UNK N   1      36.913  14.429  15.522  0.00  0.00     0.010 A 
ENDBRANCH   2  13
BRANCH   2  19
HETATM   19  C   UNK N   1      36.085  11.017  15.082  0.00  0.00    -0.019 A 
HETATM   20  C   UNK N   1      35.166   9.979  15.330  0.00  0.00     0.010 A 
HETATM   21  C   UNK N   1      35.614   8.672  15.539  0.00  0.00     0.001 A 
HETATM   22  C   UNK N   1      36.980   8.387  15.502  0.00  0.00     0.000 A 
HETATM   23  C   UNK N   1      37.902   9.409  15.262  0.00  0.00     0.001 A 
HETATM   24  C   UNK N   1      37.456  10.716  15.047  0.00  0.00     0.010 A 
ENDBRANCH   2  19
TORSDOF 6
ENDMDL
MODEL 7
REMARK VINA RESULT:      -6.3     10.837     13.781
REMARK  6 active torsions:
REMARK  status: ('A' for Active; 'I' for Inactive)
REMARK    1  A    between atoms: N_2  and  C_5 
REMARK    2  A    between atoms: C_5  and  C_9 
REMARK    3  A    between atoms: C_9  and  C_10 
REMARK    4  A    between atoms: C_10  and  C_11 
REMARK    5  A    between atoms: C_11  and  C_12 
REMARK    6  A    between atoms: C_11  and  C_13 
ROOT
HETATM    1  O   UNK N   1      27.627  17.260   8.072  0.00  0.00    -0.380 OA
HETATM    2  C   UNK N   1      28.315  17.456   6.870  0.00  0.00     0.112 C 
HETATM    3  H   UNK N   1      27.271  17.079   8.957  0.00  0.00     0.211 HD
ENDROOT
BRANCH   2   4
HETATM    4  C   UNK N   1      28.027  16.303   5.905  0.00  0.00     0.050 C 
BRANCH   4   5
HETATM    5  C   UNK N   1      26.792  15.471   6.206  0.00  0.00     0.034 C 
BRANCH   5   6
HETATM    6  C   UNK N   1      25.815  15.614   5.041  0.00  0.00     0.272 C 
BRANCH   6   7
HETATM    7  N   UNK N   1      24.892  16.731   5.238  0.00  0.00     0.088 N 
HETATM    8  C   UNK N   1      24.816  17.444   3.964  0.00  0.00     0.272 C 
HETATM    9  C   UNK N   1      23.881  18.648   4.083  0.00  0.00     0.030 C 
HETATM   10  C   UNK N   1      22.490  18.186   4.506  0.00  0.00     0.003 C 
HETATM   11  C   UNK N   1      22.580  17.350   5.777  0.00  0.00     0.030 C 
HETATM   12  C   UNK N   1      23.558  16.204   5.546  0.00  0.00     0.272 C 
ENDBRANCH   6   7
ENDBRANCH   5   6
ENDBRANCH   4   5
ENDBRANCH   2   4
BRANCH   2  13
HETATM   13  C   UNK N   1      27.843  18.766   6.251  0.00  0.00    -0.019 A 
HETATM   14  C   UNK N   1      27.820  18.968   4.862  0.00  0.00     0.010 A 
HETATM   15  C   UNK N   1      27.364  20.177   4.326  0.00  0.00     0.001 A 
HETATM   16  C   UNK N   1      26.930  21.198   5.175  0.00  0.00     0.000 A 
HETATM   17  C   UNK N   1      26.956  21.014   6.559  0.00  0.00     0.001 A 
HETATM   18  C   UNK N   1      27.409  19.805   7.095  0.00  0.00     0.010 A 
ENDBRANCH   2  13
BRANCH   2  19
HETATM   19  C   UNK N   1      29.817  17.377   7.128  0.00  0.00    -0.019 A 
HETATM   20  C   UNK N   1      30.688  16.935   6.114  0.00  0.00     0.010 A 
HETATM   21  C   UNK N   1      32.071  16.951   6.313  0.00  0.00     0.001 A 
HETATM   22  C   UNK N   1      32.599  17.407   7.521  0.00  0.00     0.000 A 
HETATM   23  C   UNK N   1      31.744  17.844   8.538  0.00  0.00     0.001 A 
HETATM   24  C   UNK N   1      30.361  17.834   8.339  0.00  0.00     0.010 A 
ENDBRANCH   2  19
TORSDOF 6
ENDMDL
MODEL 8
REMARK VINA RESULT:      -6.3      2.513      6.345
REMARK  6 active torsions:
REMARK  status: ('A' for Active; 'I' for Inactive)
REMARK    1  A    between atoms: N_2  and  C_5 
REMARK    2  A    between atoms: C_5  and  C_9 
REMARK    3  A    between atoms: C_9  and  C_10 
REMARK    4  A    between atoms: C_10  and  C_11 
REMARK    5  A    between atoms: C_11  and  C_12 
REMARK    6  A    between atoms: C_11  and  C_13 
ROOT
HETATM    1  O   UNK N   1      25.104  24.804  -6.456  0.00  0.00    -0.380 OA
HETATM    2  C   UNK N   1      26.375  24.343  -6.816  0.00  0.00     0.112 C 
HETATM    3  H   UNK N   1      24.175  25.040  -6.306  0.00  0.00     0.211 HD
ENDROOT
BRANCH   2   4
HETATM    4  C   UNK N   1      27.077  25.373  -7.704  0.00  0.00     0.050 C 
BRANCH   4   5
HETATM    5  C   UNK N   1      26.537  26.793  -7.637  0.00  0.00     0.034 C 
BRANCH   5   6
HETATM    6  C   UNK N   1      27.669  27.722  -7.203  0.00  0.00     0.272 C 
BRANCH   6   7
HETATM    7  N   UNK N   1      27.467  28.229  -5.847  0.00  0.00     0.088 N 
HETATM    8  C   UNK N   1      26.089  27.907  -5.478  0.00  0.00     0.272 C 
HETATM    9  C   UNK N   1      25.781  28.420  -4.071  0.00  0.00     0.030 C 
HETATM   10  C   UNK N   1      26.748  27.799  -3.068  0.00  0.00     0.003 C 
HETATM   11  C   UNK N   1      28.186  28.041  -3.508  0.00  0.00     0.030 C 
HETATM   12  C   UNK N   1      28.362  27.517  -4.929  0.00  0.00     0.272 C 
ENDBRANCH   6   7
ENDBRANCH   5   6
ENDBRANCH   4   5
ENDBRANCH   2   4
BRANCH   2  13
HETATM   13  C   UNK N   1      27.189  24.128  -5.547  0.00  0.00    -0.019 A 
HETATM   14  C   UNK N   1      28.555  23.804  -5.584  0.00  0.00     0.010 A 
HETATM   15  C   UNK N   1      29.277  23.632  -4.398  0.00  0.00     0.001 A 
HETATM   16  C   UNK N   1      28.640  23.776  -3.164  0.00  0.00     0.000 A 
HETATM   17  C   UNK N   1      27.280  24.089  -3.113  0.00  0.00     0.001 A 
HETATM   18  C   UNK N   1      26.558  24.264  -4.297  0.00  0.00     0.010 A 
ENDBRANCH   2  13
BRANCH   2  19
HETATM   19  C   UNK N   1      26.231  23.107  -7.700  0.00  0.00    -0.019 A 
HETATM   20  C   UNK N   1      25.551  21.970  -7.222  0.00  0.00     0.010 A 
HETATM   21  C   UNK N   1      25.333  20.872  -8.059  0.00  0.00     0.001 A 
HETATM   22  C   UNK N   1      25.789  20.897  -9.378  0.00  0.00     0.000 A 
HETATM   23  C   UNK N   1      26.469  22.017  -9.862  0.00  0.00     0.001 A 
HETATM   24  C   UNK N   1      26.683  23.119  -9.029  0.00  0.00     0.010 A 
ENDBRANCH   2  19
TORSDOF 6
ENDMDL
MODEL 9
REMARK VINA RESULT:      -6.2     10.767     13.493
REMARK  6 active torsions:
REMARK  status: ('A' for Active; 'I' for Inactive)
REMARK    1  A    between atoms: N_2  and  C_5 
REMARK    2  A    between atoms: C_5  and  C_9 
REMARK    3  A    between atoms: C_9  and  C_10 
REMARK    4  A    between atoms: C_10  and  C_11 
REMARK    5  A    between atoms: C_11  and  C_12 
REMARK    6  A    between atoms: C_11  and  C_13 
ROOT
HETATM    1  O   UNK N   1      27.718  17.703   8.432  0.00  0.00    -0.380 OA
HETATM    2  C   UNK N   1      28.312  17.583   7.170  0.00  0.00     0.112 C 
HETATM    3  H   UNK N   1      27.429  17.747   9.357  0.00  0.00     0.211 HD
ENDROOT
BRANCH   2   4
HETATM    4  C   UNK N   1      27.904  16.259   6.520  0.00  0.00     0.050 C 
BRANCH   4   5
HETATM    5  C   UNK N   1      26.545  15.708   6.920  0.00  0.00     0.034 C 
BRANCH   5   6
HETATM    6  C   UNK N   1      26.124  14.663   5.888  0.00  0.00     0.272 C 
BRANCH   6   7
HETATM    7  N   UNK N   1      26.470  15.071   4.527  0.00  0.00     0.088 N 
HETATM    8  C   UNK N   1      26.552  13.849   3.729  0.00  0.00     0.272 C 
HETATM    9  C   UNK N   1      26.930  14.181   2.285  0.00  0.00     0.030 C 
HETATM   10  C   UNK N   1      25.898  15.129   1.683  0.00  0.00     0.003 C 
HETATM   11  C   UNK N   1      25.732  16.356   2.571  0.00  0.00     0.030 C 
HETATM   12  C   UNK N   1      25.387  15.898   3.984  0.00  0.00     0.272 C 
ENDBRANCH   6   7
ENDBRANCH   5   6
ENDBRANCH   4   5
ENDBRANCH   2   4
BRANCH   2  13
HETATM   13  C   UNK N   1      27.840  18.742   6.301  0.00  0.00    -0.019 A 
HETATM   14  C   UNK N   1      27.701  18.621   4.910  0.00  0.00     0.010 A 
HETATM   15  C   UNK N   1      27.248  19.701   4.143  0.00  0.00     0.001 A 
HETATM   16  C   UNK N   1      26.933  20.913   4.762  0.00  0.00     0.000 A 
HETATM   17  C   UNK N   1      27.076  21.050   6.144  0.00  0.00     0.001 A 
HETATM   18  C   UNK N   1      27.526  19.971   6.911  0.00  0.00     0.010 A 
ENDBRANCH   2  13
BRANCH   2  19
HETATM   19  C   UNK N   1      29.826  17.482   7.333  0.00  0.00    -0.019 A 
HETATM   20  C   UNK N   1      30.617  16.958   6.293  0.00  0.00     0.010 A 
HETATM   21  C   UNK N   1      32.011  16.952   6.398  0.00  0.00     0.001 A 
HETATM   22  C   UNK N   1      32.628  17.468   7.538  0.00  0.00     0.000 A 
HETATM   23  C   UNK N   1      31.854  17.987   8.579  0.00  0.00     0.001 A 
HETATM   24  C   UNK N   1      30.460  18.000   8.474  0.00  0.00     0.010 A 
ENDBRANCH   2  19
TORSDOF 6
ENDMDL
