MODEL 1
REMARK VINA RESULT:      -5.5      0.000      0.000
REMARK  8 active torsions:
REMARK  status: ('A' for Active; 'I' for Inactive)
REMARK    1  A    between atoms: O_2  and  C_15 
REMARK    2  A    between atoms: N_4  and  C_7 
REMARK    3  A    between atoms: N_4  and  C_8 
REMARK    4  A    between atoms: N_4  and  C_9 
REMARK    5  A    between atoms: N_5  and  C_10 
REMARK       I    between atoms: N_5  and  C_13 
REMARK    6  A    between atoms: N_6  and  C_18 
REMARK    7  A    between atoms: C_7  and  C_10 
REMARK    8  A    between atoms: C_13  and  C_14 
ROOT
HETATM    1 Cl   UNK N   1      26.994  21.598   6.100  0.00  0.00    -0.082 Cl
HETATM    2  C   UNK N   1      28.332  18.071   7.572  0.00  0.00     0.067 A 
HETATM    3  C   UNK N   1      28.640  17.346   6.377  0.00  0.00     0.086 A 
HETATM    4  C   UNK N   1      27.815  19.373   7.442  0.00  0.00     0.046 A 
HETATM    5  C   UNK N   1      28.468  17.963   5.134  0.00  0.00     0.068 A 
HETATM    6  C   UNK N   1      27.974  19.261   5.034  0.00  0.00     0.050 A 
HETATM    7  C   UNK N   1      27.629  19.963   6.192  0.00  0.00     0.061 A 
ENDROOT
BRANCH   2   8
HETATM    8  C   UNK N   1      28.641  17.545   8.947  0.00  0.00     0.254 C 
HETATM    9  O   UNK N   1      27.717  17.220   9.676  0.00  0.00    -0.268 OA
HETATM   10  N   UNK N   1      29.899  17.336   9.409  0.00  0.00    -0.355 N 
HETATM   11  H   UNK N   1      29.978  16.869  10.273  0.00  0.00     0.162 HD
BRANCH  10  12
HETATM   12  C   UNK N   1      31.135  17.722   8.775  0.00  0.00     0.153 C 
BRANCH  12  13
HETATM   13  C   UNK N   1      32.039  16.489   8.568  0.00  0.00     0.292 C 
BRANCH  13  14
HETATM   14  N   UNK N   1      33.070  16.630   7.522  0.00  0.00     0.089 N 
BRANCH  14  15
HETATM   15  C   UNK N   1      33.490  18.025   7.381  0.00  0.00     0.268 C 
HETATM   16  C   UNK N   1      34.676  18.298   8.283  0.00  0.00     0.037 C 
ENDBRANCH  14  15
BRANCH  14  17
HETATM   17  C   UNK N   1      32.544  16.121   6.254  0.00  0.00     0.268 C 
HETATM   18  C   UNK N   1      32.343  17.233   5.237  0.00  0.00     0.037 C 
ENDBRANCH  14  17
ENDBRANCH  13  14
ENDBRANCH  12  13
ENDBRANCH  10  12
ENDBRANCH   2   8
BRANCH   3  19
HETATM   19  O   UNK N   1      29.086  16.065   6.361  0.00  0.00    -0.355 OA
HETATM   20  C   UNK N   1      29.009  15.244   5.258  0.00  0.00     0.210 C 
ENDBRANCH   3  19
BRANCH   6  21
HETATM   21  N   UNK N   1      27.819  19.849   3.761  0.00  0.00    -0.398 N 
HETATM   22  H   UNK N   1      28.209  19.430   2.959  0.00  0.00     0.156 HD
HETATM   23  H   UNK N   1      27.314  20.689   3.674  0.00  0.00     0.156 HD
ENDBRANCH   6  21
TORSDOF 8
ENDMDL
MODEL 2
REMARK VINA RESULT:      -5.4      4.085      5.608
REMARK  8 active torsions:
REMARK  status: ('A' for Active; 'I' for Inactive)
REMARK    1  A    between atoms: O_2  and  C_15 
REMARK    2  A    between atoms: N_4  and  C_7 
REMARK    3  A    between atoms: N_4  and  C_8 
REMARK    4  A    between atoms: N_4  and  C_9 
REMARK    5  A    between atoms: N_5  and  C_10 
REMARK       I    between atoms: N_5  and  C_13 
REMARK    6  A    between atoms: N_6  and  C_18 
REMARK    7  A    between atoms: C_7  and  C_10 
REMARK    8  A    between atoms: C_13  and  C_14 
ROOT
HETATM    1 Cl   UNK N   1      33.426  16.278   3.605  0.00  0.00    -0.082 Cl
HETATM    2  C   UNK N   1      33.395  17.710   7.391  0.00  0.00     0.067 A 
HETATM    3  C   UNK N   1      31.998  17.689   7.708  0.00  0.00     0.086 A 
HETATM    4  C   UNK N   1      33.790  17.279   6.113  0.00  0.00     0.046 A 
HETATM    5  C   UNK N   1      31.087  17.199   6.767  0.00  0.00     0.068 A 
HETATM    6  C   UNK N   1      31.508  16.759   5.515  0.00  0.00     0.050 A 
HETATM    7  C   UNK N   1      32.863  16.815   5.179  0.00  0.00     0.061 A 
ENDROOT
BRANCH   2   8
HETATM    8  C   UNK N   1      34.453  18.064   8.400  0.00  0.00     0.254 C 
HETATM    9  O   UNK N   1      35.053  19.120   8.280  0.00  0.00    -0.268 OA
HETATM   10  N   UNK N   1      34.737  17.310   9.492  0.00  0.00    -0.355 N 
HETATM   11  H   UNK N   1      35.357  17.704  10.148  0.00  0.00     0.162 HD
BRANCH  10  12
HETATM   12  C   UNK N   1      34.232  15.994   9.797  0.00  0.00     0.153 C 
BRANCH  12  13
HETATM   13  C   UNK N   1      35.246  14.916   9.361  0.00  0.00     0.292 C 
BRANCH  13  14
HETATM   14  N   UNK N   1      35.641  13.960  10.413  0.00  0.00     0.089 N 
BRANCH  14  15
HETATM   15  C   UNK N   1      34.895  14.196  11.648  0.00  0.00     0.268 C 
HETATM   16  C   UNK N   1      35.849  14.239  12.825  0.00  0.00     0.037 C 
ENDBRANCH  14  15
BRANCH  14  17
HETATM   17  C   UNK N   1      37.081  14.075  10.652  0.00  0.00     0.268 C 
HETATM   18  C   UNK N   1      37.872  14.094   9.354  0.00  0.00     0.037 C 
ENDBRANCH  14  17
ENDBRANCH  13  14
ENDBRANCH  12  13
ENDBRANCH  10  12
ENDBRANCH   2   8
BRANCH   3  19
HETATM   19  O   UNK N   1      31.480  18.133   8.880  0.00  0.00    -0.355 OA
HETATM   20  C   UNK N   1      30.170  18.532   9.032  0.00  0.00     0.210 C 
ENDBRANCH   3  19
BRANCH   6  21
HETATM   21  N   UNK N   1      30.557  16.270   4.595  0.00  0.00    -0.398 N 
HETATM   22  H   UNK N   1      30.334  15.311   4.560  0.00  0.00     0.156 HD
HETATM   23  H   UNK N   1      30.111  16.895   3.980  0.00  0.00     0.156 HD
ENDBRANCH   6  21
TORSDOF 8
ENDMDL
MODEL 3
REMARK VINA RESULT:      -5.0      3.470      4.914
REMARK  8 active torsions:
REMARK  status: ('A' for Active; 'I' for Inactive)
REMARK    1  A    between atoms: O_2  and  C_15 
REMARK    2  A    between atoms: N_4  and  C_7 
REMARK    3  A    between atoms: N_4  and  C_8 
REMARK    4  A    between atoms: N_4  and  C_9 
REMARK    5  A    between atoms: N_5  and  C_10 
REMARK       I    between atoms: N_5  and  C_13 
REMARK    6  A    between atoms: N_6  and  C_18 
REMARK    7  A    between atoms: C_7  and  C_10 
REMARK    8  A    between atoms: C_13  and  C_14 
ROOT
HETATM    1 Cl   UNK N   1      29.559  18.658   9.876  0.00  0.00    -0.082 Cl
HETATM    2  C   UNK N   1      32.502  17.341   7.428  0.00  0.00     0.067 A 
HETATM    3  C   UNK N   1      31.772  16.974   6.252  0.00  0.00     0.086 A 
HETATM    4  C   UNK N   1      31.781  17.844   8.525  0.00  0.00     0.046 A 
HETATM    5  C   UNK N   1      30.388  17.171   6.213  0.00  0.00     0.068 A 
HETATM    6  C   UNK N   1      29.701  17.690   7.307  0.00  0.00     0.050 A 
HETATM    7  C   UNK N   1      30.397  18.011   8.475  0.00  0.00     0.061 A 
ENDROOT
BRANCH   2   8
HETATM    8  C   UNK N   1      34.005  17.317   7.494  0.00  0.00     0.254 C 
HETATM    9  O   UNK N   1      34.625  18.327   7.203  0.00  0.00    -0.268 OA
HETATM   10  N   UNK N   1      34.723  16.252   7.933  0.00  0.00    -0.355 N 
HETATM   11  H   UNK N   1      35.691  16.396   8.055  0.00  0.00     0.162 HD
BRANCH  10  12
HETATM   12  C   UNK N   1      34.227  14.935   8.242  0.00  0.00     0.153 C 
BRANCH  12  13
HETATM   13  C   UNK N   1      35.107  14.271   9.323  0.00  0.00     0.292 C 
BRANCH  13  14
HETATM   14  N   UNK N   1      36.181  15.121   9.871  0.00  0.00     0.089 N 
BRANCH  14  15
HETATM   15  C   UNK N   1      37.468  14.426   9.846  0.00  0.00     0.268 C 
HETATM   16  C   UNK N   1      37.488  13.420   8.713  0.00  0.00     0.037 C 
ENDBRANCH  14  15
BRANCH  14  17
HETATM   17  C   UNK N   1      35.835  15.513  11.239  0.00  0.00     0.268 C 
HETATM   18  C   UNK N   1      35.141  14.390  11.991  0.00  0.00     0.037 C 
ENDBRANCH  14  17
ENDBRANCH  13  14
ENDBRANCH  12  13
ENDBRANCH  10  12
ENDBRANCH   2   8
BRANCH   3  19
HETATM   19  O   UNK N   1      32.338  16.422   5.150  0.00  0.00    -0.355 OA
HETATM   20  C   UNK N   1      32.638  17.134   4.009  0.00  0.00     0.210 C 
ENDBRANCH   3  19
BRANCH   6  21
HETATM   21  N   UNK N   1      28.305  17.876   7.226  0.00  0.00    -0.398 N 
HETATM   22  H   UNK N   1      27.689  17.109   7.261  0.00  0.00     0.156 HD
HETATM   23  H   UNK N   1      27.943  18.786   7.132  0.00  0.00     0.156 HD
ENDBRANCH   6  21
TORSDOF 8
ENDMDL
MODEL 4
REMARK VINA RESULT:      -4.9      4.233      7.089
REMARK  8 active torsions:
REMARK  status: ('A' for Active; 'I' for Inactive)
REMARK    1  A    between atoms: O_2  and  C_15 
REMARK    2  A    between atoms: N_4  and  C_7 
REMARK    3  A    between atoms: N_4  and  C_8 
REMARK    4  A    between atoms: N_4  and  C_9 
REMARK    5  A    between atoms: N_5  and  C_10 
REMARK       I    between atoms: N_5  and  C_13 
REMARK    6  A    between atoms: N_6  and  C_18 
REMARK    7  A    between atoms: C_7  and  C_10 
REMARK    8  A    between atoms: C_13  and  C_14 
ROOT
HETATM    1 Cl   UNK N   1      35.941  15.309  12.375  0.00  0.00    -0.082 Cl
HETATM    2  C   UNK N   1      34.829  16.739   8.754  0.00  0.00     0.067 A 
HETATM    3  C   UNK N   1      34.975  15.586   7.919  0.00  0.00     0.086 A 
HETATM    4  C   UNK N   1      35.149  16.615  10.118  0.00  0.00     0.046 A 
HETATM    5  C   UNK N   1      35.378  14.373   8.486  0.00  0.00     0.068 A 
HETATM    6  C   UNK N   1      35.669  14.271   9.844  0.00  0.00     0.050 A 
HETATM    7  C   UNK N   1      35.571  15.401  10.661  0.00  0.00     0.061 A 
ENDROOT
BRANCH   2   8
HETATM    8  C   UNK N   1      34.246  18.035   8.260  0.00  0.00     0.254 C 
HETATM    9  O   UNK N   1      35.002  18.934   7.928  0.00  0.00    -0.268 OA
HETATM   10  N   UNK N   1      32.917  18.246   8.085  0.00  0.00    -0.355 N 
HETATM   11  H   UNK N   1      32.661  19.084   7.635  0.00  0.00     0.162 HD
BRANCH  10  12
HETATM   12  C   UNK N   1      31.837  17.378   8.485  0.00  0.00     0.153 C 
BRANCH  12  13
HETATM   13  C   UNK N   1      31.417  16.469   7.311  0.00  0.00     0.292 C 
BRANCH  13  14
HETATM   14  N   UNK N   1      30.990  17.176   6.088  0.00  0.00     0.089 N 
BRANCH  14  15
HETATM   15  C   UNK N   1      29.550  17.033   5.872  0.00  0.00     0.268 C 
HETATM   16  C   UNK N   1      29.068  18.095   4.905  0.00  0.00     0.037 C 
ENDBRANCH  14  15
BRANCH  14  17
HETATM   17  C   UNK N   1      31.736  16.652   4.942  0.00  0.00     0.268 C 
HETATM   18  C   UNK N   1      32.826  17.611   4.490  0.00  0.00     0.037 C 
ENDBRANCH  14  17
ENDBRANCH  13  14
ENDBRANCH  12  13
ENDBRANCH  10  12
ENDBRANCH   2   8
BRANCH   3  19
HETATM   19  O   UNK N   1      34.758  15.587   6.580  0.00  0.00    -0.355 OA
HETATM   20  C   UNK N   1      34.872  14.466   5.788  0.00  0.00     0.210 C 
ENDBRANCH   3  19
BRANCH   6  21
HETATM   21  N   UNK N   1      36.068  13.028  10.378  0.00  0.00    -0.398 N 
HETATM   22  H   UNK N   1      37.022  12.797  10.462  0.00  0.00     0.156 HD
HETATM   23  H   UNK N   1      35.384  12.384  10.669  0.00  0.00     0.156 HD
ENDBRANCH   6  21
TORSDOF 8
ENDMDL
MODEL 5
REMARK VINA RESULT:      -4.9     11.262     14.183
REMARK  8 active torsions:
REMARK  status: ('A' for Active; 'I' for Inactive)
REMARK    1  A    between atoms: O_2  and  C_15 
REMARK    2  A    between atoms: N_4  and  C_7 
REMARK    3  A    between atoms: N_4  and  C_8 
REMARK    4  A    between atoms: N_4  and  C_9 
REMARK    5  A    between atoms: N_5  and  C_10 
REMARK       I    between atoms: N_5  and  C_13 
REMARK    6  A    between atoms: N_6  and  C_18 
REMARK    7  A    between atoms: C_7  and  C_10 
REMARK    8  A    between atoms: C_13  and  C_14 
ROOT
HETATM    1 Cl   UNK N   1      33.508  22.169  -6.405  0.00  0.00    -0.082 Cl
HETATM    2  C   UNK N   1      31.042  23.924  -3.716  0.00  0.00     0.067 A 
HETATM    3  C   UNK N   1      30.975  22.935  -2.683  0.00  0.00     0.086 A 
HETATM    4  C   UNK N   1      31.824  23.643  -4.851  0.00  0.00     0.046 A 
HETATM    5  C   UNK N   1      31.718  21.757  -2.808  0.00  0.00     0.068 A 
HETATM    6  C   UNK N   1      32.500  21.512  -3.933  0.00  0.00     0.050 A 
HETATM    7  C   UNK N   1      32.540  22.451  -4.968  0.00  0.00     0.061 A 
ENDROOT
BRANCH   2   8
HETATM    8  C   UNK N   1      30.409  25.282  -3.587  0.00  0.00     0.254 C 
HETATM    9  O   UNK N   1      31.026  26.170  -3.020  0.00  0.00    -0.268 OA
HETATM   10  N   UNK N   1      29.210  25.610  -4.133  0.00  0.00    -0.355 N 
HETATM   11  H   UNK N   1      28.956  26.561  -4.094  0.00  0.00     0.162 HD
BRANCH  10  12
HETATM   12  C   UNK N   1      28.267  24.720  -4.763  0.00  0.00     0.153 C 
BRANCH  12  13
HETATM   13  C   UNK N   1      26.852  24.949  -4.193  0.00  0.00     0.292 C 
BRANCH  13  14
HETATM   14  N   UNK N   1      25.749  24.787  -5.159  0.00  0.00     0.089 N 
BRANCH  14  15
HETATM   15  C   UNK N   1      25.871  23.527  -5.893  0.00  0.00     0.268 C 
HETATM   16  C   UNK N   1      25.787  23.790  -7.383  0.00  0.00     0.037 C 
ENDBRANCH  14  15
BRANCH  14  17
HETATM   17  C   UNK N   1      25.747  25.922  -6.084  0.00  0.00     0.268 C 
HETATM   18  C   UNK N   1      24.785  27.013  -5.640  0.00  0.00     0.037 C 
ENDBRANCH  14  17
ENDBRANCH  13  14
ENDBRANCH  12  13
ENDBRANCH  10  12
ENDBRANCH   2   8
BRANCH   3  19
HETATM   19  O   UNK N   1      30.211  23.056  -1.568  0.00  0.00    -0.355 OA
HETATM   20  C   UNK N   1      28.835  22.989  -1.575  0.00  0.00     0.210 C 
ENDBRANCH   3  19
BRANCH   6  21
HETATM   21  N   UNK N   1      33.237  20.313  -4.019  0.00  0.00    -0.398 N 
HETATM   22  H   UNK N   1      33.233  19.775  -4.844  0.00  0.00     0.156 HD
HETATM   23  H   UNK N   1      33.763  20.011  -3.244  0.00  0.00     0.156 HD
ENDBRANCH   6  21
TORSDOF 8
ENDMDL
MODEL 6
REMARK VINA RESULT:      -4.9      6.716      8.653
REMARK  8 active torsions:
REMARK  status: ('A' for Active; 'I' for Inactive)
REMARK    1  A    between atoms: O_2  and  C_15 
REMARK    2  A    between atoms: N_4  and  C_7 
REMARK    3  A    between atoms: N_4  and  C_8 
REMARK    4  A    between atoms: N_4  and  C_9 
REMARK    5  A    between atoms: N_5  and  C_10 
REMARK       I    between atoms: N_5  and  C_13 
REMARK    6  A    between atoms: N_6  and  C_18 
REMARK    7  A    between atoms: C_7  and  C_10 
REMARK    8  A    between atoms: C_13  and  C_14 
ROOT
HETATM    1 Cl   UNK N   1      19.547  16.600   0.058  0.00  0.00    -0.082 Cl
HETATM    2  C   UNK N   1      21.162  19.076   2.824  0.00  0.00     0.067 A 
HETATM    3  C   UNK N   1      20.946  18.349   4.039  0.00  0.00     0.086 A 
HETATM    4  C   UNK N   1      20.704  18.507   1.622  0.00  0.00     0.046 A 
HETATM    5  C   UNK N   1      20.341  17.090   3.988  0.00  0.00     0.068 A 
HETATM    6  C   UNK N   1      19.915  16.541   2.782  0.00  0.00     0.050 A 
HETATM    7  C   UNK N   1      20.081  17.259   1.595  0.00  0.00     0.061 A 
ENDROOT
BRANCH   2   8
HETATM    8  C   UNK N   1      21.950  20.356   2.770  0.00  0.00     0.254 C 
HETATM    9  O   UNK N   1      21.375  21.391   2.471  0.00  0.00    -0.268 OA
HETATM   10  N   UNK N   1      23.261  20.450   3.107  0.00  0.00    -0.355 N 
HETATM   11  H   UNK N   1      23.637  21.359   3.157  0.00  0.00     0.162 HD
BRANCH  10  12
HETATM   12  C   UNK N   1      24.164  19.366   3.402  0.00  0.00     0.153 C 
BRANCH  12  13
HETATM   13  C   UNK N   1      25.619  19.878   3.449  0.00  0.00     0.292 C 
BRANCH  13  14
HETATM   14  N   UNK N   1      26.364  19.550   4.680  0.00  0.00     0.089 N 
BRANCH  14  15
HETATM   15  C   UNK N   1      26.159  20.571   5.708  0.00  0.00     0.268 C 
HETATM   16  C   UNK N   1      27.487  21.199   6.079  0.00  0.00     0.037 C 
ENDBRANCH  14  15
BRANCH  14  17
HETATM   17  C   UNK N   1      27.787  19.419   4.362  0.00  0.00     0.268 C 
HETATM   18  C   UNK N   1      28.248  17.971   4.417  0.00  0.00     0.037 C 
ENDBRANCH  14  17
ENDBRANCH  13  14
ENDBRANCH  12  13
ENDBRANCH  10  12
ENDBRANCH   2   8
BRANCH   3  19
HETATM   19  O   UNK N   1      21.284  18.812   5.269  0.00  0.00    -0.355 OA
HETATM   20  C   UNK N   1      21.689  17.998   6.304  0.00  0.00     0.210 C 
ENDBRANCH   3  19
BRANCH   6  21
HETATM   21  N   UNK N   1      19.312  15.266   2.774  0.00  0.00    -0.398 N 
HETATM   22  H   UNK N   1      18.360  15.155   3.004  0.00  0.00     0.156 HD
HETATM   23  H   UNK N   1      19.849  14.477   2.535  0.00  0.00     0.156 HD
ENDBRANCH   6  21
TORSDOF 8
ENDMDL
MODEL 7
REMARK VINA RESULT:      -4.8      1.678      2.972
REMARK  8 active torsions:
REMARK  status: ('A' for Active; 'I' for Inactive)
REMARK    1  A    between atoms: O_2  and  C_15 
REMARK    2  A    between atoms: N_4  and  C_7 
REMARK    3  A    between atoms: N_4  and  C_8 
REMARK    4  A    between atoms: N_4  and  C_9 
REMARK    5  A    between atoms: N_5  and  C_10 
REMARK       I    between atoms: N_5  and  C_13 
REMARK    6  A    between atoms: N_6  and  C_18 
REMARK    7  A    between atoms: C_7  and  C_10 
REMARK    8  A    between atoms: C_13  and  C_14 
ROOT
HETATM    1 Cl   UNK N   1      27.016  20.320   3.701  0.00  0.00    -0.082 Cl
HETATM    2  C   UNK N   1      28.633  17.511   6.127  0.00  0.00     0.067 A 
HETATM    3  C   UNK N   1      28.555  18.143   7.409  0.00  0.00     0.086 A 
HETATM    4  C   UNK N   1      28.159  18.221   5.009  0.00  0.00     0.046 A 
HETATM    5  C   UNK N   1      27.972  19.409   7.518  0.00  0.00     0.068 A 
HETATM    6  C   UNK N   1      27.492  20.082   6.398  0.00  0.00     0.050 A 
HETATM    7  C   UNK N   1      27.602  19.494   5.135  0.00  0.00     0.061 A 
ENDROOT
BRANCH   2   8
HETATM    8  C   UNK N   1      29.092  16.090   5.945  0.00  0.00     0.254 C 
HETATM    9  O   UNK N   1      28.284  15.251   5.579  0.00  0.00    -0.268 OA
HETATM   10  N   UNK N   1      30.380  15.689   6.091  0.00  0.00    -0.355 N 
HETATM   11  H   UNK N   1      30.585  14.764   5.822  0.00  0.00     0.162 HD
BRANCH  10  12
HETATM   12  C   UNK N   1      31.482  16.468   6.597  0.00  0.00     0.153 C 
BRANCH  12  13
HETATM   13  C   UNK N   1      32.130  15.758   7.805  0.00  0.00     0.292 C 
BRANCH  13  14
HETATM   14  N   UNK N   1      32.899  16.632   8.712  0.00  0.00     0.089 N 
BRANCH  14  15
HETATM   15  C   UNK N   1      33.044  17.976   8.153  0.00  0.00     0.268 C 
HETATM   16  C   UNK N   1      34.502  18.387   8.172  0.00  0.00     0.037 C 
ENDBRANCH  14  15
BRANCH  14  17
HETATM   17  C   UNK N   1      34.213  16.034   8.958  0.00  0.00     0.268 C 
HETATM   18  C   UNK N   1      34.239  15.237  10.252  0.00  0.00     0.037 C 
ENDBRANCH  14  17
ENDBRANCH  13  14
ENDBRANCH  12  13
ENDBRANCH  10  12
ENDBRANCH   2   8
BRANCH   3  19
HETATM   19  O   UNK N   1      29.030  17.593   8.555  0.00  0.00    -0.355 OA
HETATM   20  C   UNK N   1      29.552  18.330   9.595  0.00  0.00     0.210 C 
ENDBRANCH   3  19
BRANCH   6  21
HETATM   21  N   UNK N   1      26.908  21.357   6.551  0.00  0.00    -0.398 N 
HETATM   22  H   UNK N   1      26.219  21.676   5.923  0.00  0.00     0.156 HD
HETATM   23  H   UNK N   1      27.192  21.934   7.295  0.00  0.00     0.156 HD
ENDBRANCH   6  21
TORSDOF 8
ENDMDL
MODEL 8
REMARK VINA RESULT:      -4.8      2.687      6.301
REMARK  8 active torsions:
REMARK  status: ('A' for Active; 'I' for Inactive)
REMARK    1  A    between atoms: O_2  and  C_15 
REMARK    2  A    between atoms: N_4  and  C_7 
REMARK    3  A    between atoms: N_4  and  C_8 
REMARK    4  A    between atoms: N_4  and  C_9 
REMARK    5  A    between atoms: N_5  and  C_10 
REMARK       I    between atoms: N_5  and  C_13 
REMARK    6  A    between atoms: N_6  and  C_18 
REMARK    7  A    between atoms: C_7  and  C_10 
REMARK    8  A    between atoms: C_13  and  C_14 
ROOT
HETATM    1 Cl   UNK N   1      29.956  17.087   9.536  0.00  0.00    -0.082 Cl
HETATM    2  C   UNK N   1      30.426  17.206   5.517  0.00  0.00     0.067 A 
HETATM    3  C   UNK N   1      31.846  17.339   5.386  0.00  0.00     0.086 A 
HETATM    4  C   UNK N   1      29.884  17.144   6.813  0.00  0.00     0.046 A 
HETATM    5  C   UNK N   1      32.644  17.353   6.534  0.00  0.00     0.068 A 
HETATM    6  C   UNK N   1      32.083  17.270   7.805  0.00  0.00     0.050 A 
HETATM    7  C   UNK N   1      30.696  17.183   7.947  0.00  0.00     0.061 A 
ENDROOT
BRANCH   2   8
HETATM    8  C   UNK N   1      29.513  17.018   4.337  0.00  0.00     0.254 C 
HETATM    9  O   UNK N   1      29.606  15.996   3.675  0.00  0.00    -0.268 OA
HETATM   10  N   UNK N   1      28.528  17.888   3.998  0.00  0.00    -0.355 N 
HETATM   11  H   UNK N   1      27.912  17.598   3.286  0.00  0.00     0.162 HD
BRANCH  10  12
HETATM   12  C   UNK N   1      28.284  19.190   4.567  0.00  0.00     0.153 C 
BRANCH  12  13
HETATM   13  C   UNK N   1      27.241  19.955   3.724  0.00  0.00     0.292 C 
BRANCH  13  14
HETATM   14  N   UNK N   1      26.089  20.487   4.477  0.00  0.00     0.089 N 
BRANCH  14  15
HETATM   15  C   UNK N   1      26.283  20.330   5.918  0.00  0.00     0.268 C 
HETATM   16  C   UNK N   1      26.519  21.684   6.555  0.00  0.00     0.037 C 
ENDBRANCH  14  15
BRANCH  14  17
HETATM   17  C   UNK N   1      24.871  19.798   4.044  0.00  0.00     0.268 C 
HETATM   18  C   UNK N   1      24.142  20.569   2.955  0.00  0.00     0.037 C 
ENDBRANCH  14  17
ENDBRANCH  13  14
ENDBRANCH  12  13
ENDBRANCH  10  12
ENDBRANCH   2   8
BRANCH   3  19
HETATM   19  O   UNK N   1      32.488  17.470   4.198  0.00  0.00    -0.355 OA
HETATM   20  C   UNK N   1      33.110  16.426   3.549  0.00  0.00     0.210 C 
ENDBRANCH   3  19
BRANCH   6  21
HETATM   21  N   UNK N   1      32.924  17.284   8.937  0.00  0.00    -0.398 N 
HETATM   22  H   UNK N   1      32.670  16.809   9.762  0.00  0.00     0.156 HD
HETATM   23  H   UNK N   1      33.776  17.776   8.902  0.00  0.00     0.156 HD
ENDBRANCH   6  21
TORSDOF 8
ENDMDL
MODEL 9
REMARK VINA RESULT:      -4.8      7.702      9.990
REMARK  8 active torsions:
REMARK  status: ('A' for Active; 'I' for Inactive)
REMARK    1  A    between atoms: O_2  and  C_15 
REMARK    2  A    between atoms: N_4  and  C_7 
REMARK    3  A    between atoms: N_4  and  C_8 
REMARK    4  A    between atoms: N_4  and  C_9 
REMARK    5  A    between atoms: N_5  and  C_10 
REMARK       I    between atoms: N_5  and  C_13 
REMARK    6  A    between atoms: N_6  and  C_18 
REMARK    7  A    between atoms: C_7  and  C_10 
REMARK    8  A    between atoms: C_13  and  C_14 
ROOT
HETATM    1 Cl   UNK N   1      22.307  11.955  12.208  0.00  0.00    -0.082 Cl
HETATM    2  C   UNK N   1      22.124  13.313   8.398  0.00  0.00     0.067 A 
HETATM    3  C   UNK N   1      23.509  13.479   8.073  0.00  0.00     0.086 A 
HETATM    4  C   UNK N   1      21.797  12.853   9.686  0.00  0.00     0.046 A 
HETATM    5  C   UNK N   1      24.482  13.136   9.016  0.00  0.00     0.068 A 
HETATM    6  C   UNK N   1      24.132  12.664  10.278  0.00  0.00     0.050 A 
HETATM    7  C   UNK N   1      22.783  12.538  10.621  0.00  0.00     0.061 A 
ENDROOT
BRANCH   2   8
HETATM    8  C   UNK N   1      21.022  13.500   7.391  0.00  0.00     0.254 C 
HETATM    9  O   UNK N   1      20.550  12.517   6.843  0.00  0.00    -0.268 OA
HETATM   10  N   UNK N   1      20.461  14.701   7.102  0.00  0.00    -0.355 N 
HETATM   11  H   UNK N   1      19.663  14.685   6.524  0.00  0.00     0.162 HD
BRANCH  10  12
HETATM   12  C   UNK N   1      20.903  15.999   7.548  0.00  0.00     0.153 C 
BRANCH  12  13
HETATM   13  C   UNK N   1      21.797  16.658   6.476  0.00  0.00     0.292 C 
BRANCH  13  14
HETATM   14  N   UNK N   1      21.378  16.431   5.079  0.00  0.00     0.089 N 
BRANCH  14  15
HETATM   15  C   UNK N   1      22.481  15.903   4.276  0.00  0.00     0.268 C 
HETATM   16  C   UNK N   1      22.167  14.487   3.838  0.00  0.00     0.037 C 
ENDBRANCH  14  15
BRANCH  14  17
HETATM   17  C   UNK N   1      20.886  17.688   4.513  0.00  0.00     0.268 C 
HETATM   18  C   UNK N   1      19.831  17.453   3.443  0.00  0.00     0.037 C 
ENDBRANCH  14  17
ENDBRANCH  13  14
ENDBRANCH  12  13
ENDBRANCH  10  12
ENDBRANCH   2   8
BRANCH   3  19
HETATM   19  O   UNK N   1      23.955  13.971   6.890  0.00  0.00    -0.355 OA
HETATM   20  C   UNK N   1      25.136  14.666   6.751  0.00  0.00     0.210 C 
ENDBRANCH   3  19
BRANCH   6  21
HETATM   21  N   UNK N   1      25.145  12.326  11.199  0.00  0.00    -0.398 N 
HETATM   22  H   UNK N   1      25.953  12.882  11.289  0.00  0.00     0.156 HD
HETATM   23  H   UNK N   1      25.043  11.523  11.758  0.00  0.00     0.156 HD
ENDBRANCH   6  21
TORSDOF 8
ENDMDL
