REMARK  4 active torsions:
REMARK  status: ('A' for Active; 'I' for Inactive)
REMARK    1  A    between atoms: C_15  and  O_3 
REMARK    2  A    between atoms: O_5  and  C_26 
REMARK    3  A    between atoms: C_11  and  C_21 
REMARK    4  A    between atoms: C_21  and  C_26 
ROOT
HETATM    1  F   UNK N   1       4.206  -1.135   1.846  0.00  0.00    -0.238 F 
HETATM    2  O   UNK N   1       8.444   0.677   1.684  0.00  0.00    -0.381 OA
HETATM    3  O   UNK N   1      -0.592  -3.581  -0.001  0.00  0.00    -0.289 OA
HETATM    4  C   UNK N   1       6.922   0.254  -0.124  0.00  0.00     0.001 C 
HETATM    5  C   UNK N   1       6.814  -1.179   0.408  0.00  0.00     0.005 C 
HETATM    6  C   UNK N   1       5.503  -1.839  -0.050  0.00  0.00     0.035 C 
HETATM    7  C   UNK N   1       4.272  -1.014   0.462  0.00  0.00     0.147 C 
HETATM    8  C   UNK N   1       8.372   0.601   0.286  0.00  0.00     0.131 C 
HETATM    9  C   UNK N   1       8.119  -1.829  -0.053  0.00  0.00     0.013 C 
HETATM   10  C   UNK N   1       5.807   1.086   0.512  0.00  0.00     0.048 C 
HETATM   11  C   UNK N   1       9.143  -0.677  -0.149  0.00  0.00     0.025 C 
HETATM   12  C   UNK N   1       4.437   0.503   0.117  0.00  0.00     0.160 C 
HETATM   13  C   UNK N   1       2.975  -1.615  -0.183  0.00  0.00     0.036 C 
HETATM   14  C   UNK N   1       5.390  -3.283   0.449  0.00  0.00     0.013 C 
HETATM   15  C   UNK N   1       6.766   0.308  -1.662  0.00  0.00     0.019 C 
HETATM   16  C   UNK N   1       4.162  -3.962  -0.157  0.00  0.00     0.036 C 
HETATM   17  C   UNK N   1       2.919  -3.135   0.026  0.00  0.00    -0.061 C 
HETATM   18  C   UNK N   1       9.642  -0.635  -1.590  0.00  0.00     0.013 C 
HETATM   19  C   UNK N   1       3.007  -1.387  -1.695  0.00  0.00     0.028 C 
HETATM   20  C   UNK N   1       1.710  -0.925   0.305  0.00  0.00    -0.006 C 
HETATM   21  C   UNK N   1       1.739  -3.776   0.064  0.00  0.00     0.058 C 
HETATM   22  C   UNK N   1       0.536  -1.567   0.376  0.00  0.00     0.052 C 
HETATM   23  C   UNK N   1       0.482  -3.013   0.118  0.00  0.00     0.172 C 
HETATM   24  H   UNK N   1       8.515   0.659   2.651  0.00  0.00     0.211 HD
ENDROOT
BRANCH   8  25
HETATM   25  C   UNK N   1       8.962   1.897  -0.256  0.00  0.00     0.185 C 
HETATM   26  O   UNK N   1      10.123   2.177   0.002  0.00  0.00    -0.292 OA
BRANCH  25  27
HETATM   27  C   UNK N   1       8.160   2.851  -1.088  0.00  0.00     0.245 C 
BRANCH  27  28
HETATM   28  O   UNK N   1       8.060   4.082  -0.440  0.00  0.00    -0.393 OA
HETATM   29  H   UNK N   1       8.767   4.570   0.010  0.00  0.00     0.209 HD
ENDBRANCH  27  28
ENDBRANCH  25  27
ENDBRANCH   8  25
BRANCH  12  30
HETATM   30  O   UNK N   1       3.433   1.272   0.708  0.00  0.00    -0.392 OA
HETATM   31  H   UNK N   1       3.547   2.144   1.118  0.00  0.00     0.210 HD
ENDBRANCH  12  30
TORSDOF 4
