MODEL 1
REMARK VINA RESULT:      -7.7      0.000      0.000
REMARK  4 active torsions:
REMARK  status: ('A' for Active; 'I' for Inactive)
REMARK    1  A    between atoms: C_15  and  O_3 
REMARK    2  A    between atoms: O_5  and  C_26 
REMARK    3  A    between atoms: C_11  and  C_21 
REMARK    4  A    between atoms: C_21  and  C_26 
ROOT
HETATM    1  F   UNK N   1      19.490  17.033   5.404  0.00  0.00    -0.238 F 
HETATM    2  O   UNK N   1      19.944  13.782   8.643  0.00  0.00    -0.381 OA
HETATM    3  O   UNK N   1      20.754  20.178   0.829  0.00  0.00    -0.289 OA
HETATM    4  C   UNK N   1      21.612  14.669   7.161  0.00  0.00     0.001 C 
HETATM    5  C   UNK N   1      20.645  14.357   6.015  0.00  0.00     0.005 C 
HETATM    6  C   UNK N   1      20.949  15.228   4.785  0.00  0.00     0.035 C 
HETATM    7  C   UNK N   1      20.827  16.747   5.152  0.00  0.00     0.147 C 
HETATM    8  C   UNK N   1      21.240  13.549   8.160  0.00  0.00     0.131 C 
HETATM    9  C   UNK N   1      20.772  12.842   5.844  0.00  0.00     0.013 C 
HETATM   10  C   UNK N   1      21.368  16.109   7.616  0.00  0.00     0.048 C 
HETATM   11  C   UNK N   1      21.172  12.302   7.234  0.00  0.00     0.025 C 
HETATM   12  C   UNK N   1      21.643  17.074   6.447  0.00  0.00     0.160 C 
HETATM   13  C   UNK N   1      21.326  17.590   3.928  0.00  0.00     0.036 C 
HETATM   14  C   UNK N   1      20.010  14.910   3.618  0.00  0.00     0.013 C 
HETATM   15  C   UNK N   1      23.088  14.531   6.719  0.00  0.00     0.019 C 
HETATM   16  C   UNK N   1      20.441  15.670   2.364  0.00  0.00     0.036 C 
HETATM   17  C   UNK N   1      20.630  17.137   2.637  0.00  0.00    -0.061 C 
HETATM   18  C   UNK N   1      22.506  11.581   7.072  0.00  0.00     0.013 C 
HETATM   19  C   UNK N   1      22.822  17.349   3.721  0.00  0.00     0.028 C 
HETATM   20  C   UNK N   1      21.184  19.088   4.157  0.00  0.00    -0.006 C 
HETATM   21  C   UNK N   1      20.465  17.992   1.614  0.00  0.00     0.058 C 
HETATM   22  C   UNK N   1      20.987  19.943   3.145  0.00  0.00     0.052 C 
HETATM   23  C   UNK N   1      20.755  19.424   1.789  0.00  0.00     0.172 C 
HETATM   24  H   UNK N   1      19.024  13.899   8.924  0.00  0.00     0.211 HD
ENDROOT
BRANCH   8  25
HETATM   25  C   UNK N   1      22.137  13.370   9.378  0.00  0.00     0.185 C 
HETATM   26  O   UNK N   1      23.273  13.820   9.353  0.00  0.00    -0.292 OA
BRANCH  25  27
HETATM   27  C   UNK N   1      21.678  12.645  10.607  0.00  0.00     0.245 C 
BRANCH  27  28
HETATM   28  O   UNK N   1      22.351  11.429  10.724  0.00  0.00    -0.393 OA
HETATM   29  H   UNK N   1      21.978  10.571  10.978  0.00  0.00     0.209 HD
ENDBRANCH  27  28
ENDBRANCH  25  27
ENDBRANCH   8  25
BRANCH  12  30
HETATM   30  O   UNK N   1      21.412  18.381   6.878  0.00  0.00    -0.392 OA
HETATM   31  H   UNK N   1      22.044  18.949   7.345  0.00  0.00     0.210 HD
ENDBRANCH  12  30
TORSDOF 4
ENDMDL
MODEL 2
REMARK VINA RESULT:      -7.7      7.174     10.451
REMARK  4 active torsions:
REMARK  status: ('A' for Active; 'I' for Inactive)
REMARK    1  A    between atoms: C_15  and  O_3 
REMARK    2  A    between atoms: O_5  and  C_26 
REMARK    3  A    between atoms: C_11  and  C_21 
REMARK    4  A    between atoms: C_21  and  C_26 
ROOT
HETATM    1  F   UNK N   1      28.645  15.579   6.361  0.00  0.00    -0.238 F 
HETATM    2  O   UNK N   1      25.237  18.532   5.393  0.00  0.00    -0.381 OA
HETATM    3  O   UNK N   1      33.949  13.699   7.228  0.00  0.00    -0.289 OA
HETATM    4  C   UNK N   1      27.590  18.767   4.978  0.00  0.00     0.001 C 
HETATM    5  C   UNK N   1      27.803  18.435   6.458  0.00  0.00     0.005 C 
HETATM    6  C   UNK N   1      29.219  17.887   6.701  0.00  0.00     0.035 C 
HETATM    7  C   UNK N   1      29.453  16.590   5.852  0.00  0.00     0.147 C 
HETATM    8  C   UNK N   1      26.215  19.472   5.040  0.00  0.00     0.131 C 
HETATM    9  C   UNK N   1      27.427  19.733   7.172  0.00  0.00     0.013 C 
HETATM   10  C   UNK N   1      27.662  17.464   4.179  0.00  0.00     0.048 C 
HETATM   11  C   UNK N   1      26.399  20.428   6.252  0.00  0.00     0.025 C 
HETATM   12  C   UNK N   1      29.052  16.824   4.358  0.00  0.00     0.160 C 
HETATM   13  C   UNK N   1      30.961  16.180   5.987  0.00  0.00     0.036 C 
HETATM   14  C   UNK N   1      29.461  17.576   8.181  0.00  0.00     0.013 C 
HETATM   15  C   UNK N   1      28.672  19.735   4.445  0.00  0.00     0.019 C 
HETATM   16  C   UNK N   1      30.922  17.193   8.414  0.00  0.00     0.036 C 
HETATM   17  C   UNK N   1      31.377  16.119   7.464  0.00  0.00    -0.061 C 
HETATM   18  C   UNK N   1      26.974  21.791   5.880  0.00  0.00     0.013 C 
HETATM   19  C   UNK N   1      31.839  17.248   5.334  0.00  0.00     0.028 C 
HETATM   20  C   UNK N   1      31.279  14.887   5.251  0.00  0.00    -0.006 C 
HETATM   21  C   UNK N   1      32.376  15.313   7.859  0.00  0.00     0.058 C 
HETATM   22  C   UNK N   1      32.254  14.062   5.658  0.00  0.00     0.052 C 
HETATM   23  C   UNK N   1      32.945  14.325   6.928  0.00  0.00     0.172 C 
HETATM   24  H   UNK N   1      24.570  17.902   5.708  0.00  0.00     0.211 HD
ENDROOT
BRANCH   8  25
HETATM   25  C   UNK N   1      25.724  20.162   3.773  0.00  0.00     0.185 C 
HETATM   26  O   UNK N   1      26.542  20.603   2.980  0.00  0.00    -0.292 OA
BRANCH  25  27
HETATM   27  C   UNK N   1      24.266  20.332   3.472  0.00  0.00     0.245 C 
BRANCH  27  28
HETATM   28  O   UNK N   1      24.104  21.041   2.282  0.00  0.00    -0.393 OA
HETATM   29  H   UNK N   1      23.503  20.834   1.550  0.00  0.00     0.209 HD
ENDBRANCH  27  28
ENDBRANCH  25  27
ENDBRANCH   8  25
BRANCH  12  30
HETATM   30  O   UNK N   1      29.098  15.636   3.626  0.00  0.00    -0.392 OA
HETATM   31  H   UNK N   1      29.492  15.521   2.747  0.00  0.00     0.210 HD
ENDBRANCH  12  30
TORSDOF 4
ENDMDL
MODEL 3
REMARK VINA RESULT:      -7.5     14.973     18.613
REMARK  4 active torsions:
REMARK  status: ('A' for Active; 'I' for Inactive)
REMARK    1  A    between atoms: C_15  and  O_3 
REMARK    2  A    between atoms: O_5  and  C_26 
REMARK    3  A    between atoms: C_11  and  C_21 
REMARK    4  A    between atoms: C_21  and  C_26 
ROOT
HETATM    1  F   UNK N   1      36.934  12.698  15.612  0.00  0.00    -0.238 F 
HETATM    2  O   UNK N   1      36.794  15.229  11.759  0.00  0.00    -0.381 OA
HETATM    3  O   UNK N   1      36.407   8.147  18.992  0.00  0.00    -0.289 OA
HETATM    4  C   UNK N   1      35.739  13.120  12.209  0.00  0.00     0.001 C 
HETATM    5  C   UNK N   1      37.119  12.612  12.640  0.00  0.00     0.005 C 
HETATM    6  C   UNK N   1      36.991  11.407  13.587  0.00  0.00     0.035 C 
HETATM    7  C   UNK N   1      36.175  11.804  14.865  0.00  0.00     0.147 C 
HETATM    8  C   UNK N   1      36.141  14.157  11.135  0.00  0.00     0.131 C 
HETATM    9  C   UNK N   1      37.844  12.382  11.314  0.00  0.00     0.013 C 
HETATM   10  C   UNK N   1      35.016  13.653  13.447  0.00  0.00     0.048 C 
HETATM   11  C   UNK N   1      37.208  13.376  10.318  0.00  0.00     0.025 C 
HETATM   12  C   UNK N   1      34.838  12.516  14.472  0.00  0.00     0.160 C 
HETATM   13  C   UNK N   1      35.912  10.505  15.703  0.00  0.00     0.036 C 
HETATM   14  C   UNK N   1      38.362  10.867  14.007  0.00  0.00     0.013 C 
HETATM   15  C   UNK N   1      34.884  11.993  11.582  0.00  0.00     0.019 C 
HETATM   16  C   UNK N   1      38.204   9.576  14.809  0.00  0.00     0.036 C 
HETATM   17  C   UNK N   1      37.219   9.734  15.935  0.00  0.00    -0.061 C 
HETATM   18  C   UNK N   1      36.627  12.555   9.171  0.00  0.00     0.013 C 
HETATM   19  C   UNK N   1      34.992   9.570  14.917  0.00  0.00     0.028 C 
HETATM   20  C   UNK N   1      35.181  10.793  17.006  0.00  0.00    -0.006 C 
HETATM   21  C   UNK N   1      37.365   8.944  17.011  0.00  0.00     0.058 C 
HETATM   22  C   UNK N   1      35.345  10.028  18.094  0.00  0.00     0.052 C 
HETATM   23  C   UNK N   1      36.363   8.967  18.089  0.00  0.00     0.172 C 
HETATM   24  H   UNK N   1      37.310  15.936  12.176  0.00  0.00     0.211 HD
ENDROOT
BRANCH   8  25
HETATM   25  C   UNK N   1      35.025  14.755  10.287  0.00  0.00     0.185 C 
HETATM   26  O   UNK N   1      33.986  14.128  10.140  0.00  0.00    -0.292 OA
BRANCH  25  27
HETATM   27  C   UNK N   1      35.162  16.087   9.614  0.00  0.00     0.245 C 
BRANCH  27  28
HETATM   28  O   UNK N   1      34.894  17.111  10.521  0.00  0.00    -0.393 OA
HETATM   29  H   UNK N   1      34.972  18.066  10.372  0.00  0.00     0.209 HD
ENDBRANCH  27  28
ENDBRANCH  25  27
ENDBRANCH   8  25
BRANCH  12  30
HETATM   30  O   UNK N   1      34.181  13.021  15.595  0.00  0.00    -0.392 OA
HETATM   31  H   UNK N   1      33.556  13.764  15.606  0.00  0.00     0.210 HD
ENDBRANCH  12  30
TORSDOF 4
ENDMDL
MODEL 4
REMARK VINA RESULT:      -7.4     14.704     17.273
REMARK  4 active torsions:
REMARK  status: ('A' for Active; 'I' for Inactive)
REMARK    1  A    between atoms: C_15  and  O_3 
REMARK    2  A    between atoms: O_5  and  C_26 
REMARK    3  A    between atoms: C_11  and  C_21 
REMARK    4  A    between atoms: C_21  and  C_26 
ROOT
HETATM    1  F   UNK N   1      30.788  24.872  -5.713  0.00  0.00    -0.238 F 
HETATM    2  O   UNK N   1      28.024  28.550  -6.029  0.00  0.00    -0.381 OA
HETATM    3  O   UNK N   1      32.457  19.586  -4.415  0.00  0.00    -0.289 OA
HETATM    4  C   UNK N   1      27.783  26.607  -4.640  0.00  0.00     0.001 C 
HETATM    5  C   UNK N   1      27.957  25.773  -5.914  0.00  0.00     0.005 C 
HETATM    6  C   UNK N   1      28.446  24.354  -5.582  0.00  0.00     0.035 C 
HETATM    7  C   UNK N   1      29.818  24.416  -4.826  0.00  0.00     0.147 C 
HETATM    8  C   UNK N   1      27.105  27.871  -5.217  0.00  0.00     0.131 C 
HETATM    9  C   UNK N   1      26.599  25.897  -6.608  0.00  0.00     0.013 C 
HETATM   10  C   UNK N   1      29.160  26.794  -4.000  0.00  0.00     0.048 C 
HETATM   11  C   UNK N   1      26.025  27.257  -6.152  0.00  0.00     0.025 C 
HETATM   12  C   UNK N   1      29.749  25.419  -3.628  0.00  0.00     0.160 C 
HETATM   13  C   UNK N   1      30.181  22.968  -4.346  0.00  0.00     0.036 C 
HETATM   14  C   UNK N   1      28.598  23.496  -6.842  0.00  0.00     0.013 C 
HETATM   15  C   UNK N   1      26.853  25.909  -3.621  0.00  0.00     0.019 C 
HETATM   16  C   UNK N   1      28.924  22.051  -6.467  0.00  0.00     0.036 C 
HETATM   17  C   UNK N   1      30.081  21.970  -5.509  0.00  0.00    -0.061 C 
HETATM   18  C   UNK N   1      24.696  26.976  -5.458  0.00  0.00     0.013 C 
HETATM   19  C   UNK N   1      29.168  22.512  -3.296  0.00  0.00     0.028 C 
HETATM   20  C   UNK N   1      31.536  22.906  -3.657  0.00  0.00    -0.006 C 
HETATM   21  C   UNK N   1      30.820  20.848  -5.511  0.00  0.00     0.058 C 
HETATM   22  C   UNK N   1      32.294  21.802  -3.683  0.00  0.00     0.052 C 
HETATM   23  C   UNK N   1      31.886  20.660  -4.515  0.00  0.00     0.172 C 
HETATM   24  H   UNK N   1      28.631  28.984  -6.648  0.00  0.00     0.211 HD
ENDROOT
BRANCH   8  25
HETATM   25  C   UNK N   1      26.559  28.888  -4.223  0.00  0.00     0.185 C 
HETATM   26  O   UNK N   1      25.955  28.493  -3.237  0.00  0.00    -0.292 OA
BRANCH  25  27
HETATM   27  C   UNK N   1      26.728  30.364  -4.420  0.00  0.00     0.245 C 
BRANCH  27  28
HETATM   28  O   UNK N   1      25.963  31.061  -3.485  0.00  0.00    -0.393 OA
HETATM   29  H   UNK N   1      26.282  31.650  -2.784  0.00  0.00     0.209 HD
ENDBRANCH  27  28
ENDBRANCH  25  27
ENDBRANCH   8  25
BRANCH  12  30
HETATM   30  O   UNK N   1      31.004  25.609  -3.049  0.00  0.00    -0.392 OA
HETATM   31  H   UNK N   1      31.223  26.251  -2.355  0.00  0.00     0.210 HD
ENDBRANCH  12  30
TORSDOF 4
ENDMDL
MODEL 5
REMARK VINA RESULT:      -7.4     14.977     17.131
REMARK  4 active torsions:
REMARK  status: ('A' for Active; 'I' for Inactive)
REMARK    1  A    between atoms: C_15  and  O_3 
REMARK    2  A    between atoms: O_5  and  C_26 
REMARK    3  A    between atoms: C_11  and  C_21 
REMARK    4  A    between atoms: C_21  and  C_26 
ROOT
HETATM    1  F   UNK N   1      32.256  24.266  -3.807  0.00  0.00    -0.238 F 
HETATM    2  O   UNK N   1      28.674  27.147  -4.184  0.00  0.00    -0.381 OA
HETATM    3  O   UNK N   1      35.316  19.502  -4.396  0.00  0.00    -0.289 OA
HETATM    4  C   UNK N   1      28.724  24.767  -4.488  0.00  0.00     0.001 C 
HETATM    5  C   UNK N   1      29.887  24.996  -5.459  0.00  0.00     0.005 C 
HETATM    6  C   UNK N   1      30.747  23.728  -5.598  0.00  0.00     0.035 C 
HETATM    7  C   UNK N   1      31.326  23.310  -4.202  0.00  0.00     0.147 C 
HETATM    8  C   UNK N   1      27.925  26.075  -4.688  0.00  0.00     0.131 C 
HETATM    9  C   UNK N   1      29.199  25.512  -6.724  0.00  0.00     0.013 C 
HETATM   10  C   UNK N   1      29.305  24.518  -3.095  0.00  0.00     0.048 C 
HETATM   11  C   UNK N   1      27.910  26.209  -6.237  0.00  0.00     0.025 C 
HETATM   12  C   UNK N   1      30.195  23.261  -3.122  0.00  0.00     0.160 C 
HETATM   13  C   UNK N   1      32.034  21.920  -4.360  0.00  0.00     0.036 C 
HETATM   14  C   UNK N   1      31.899  23.929  -6.587  0.00  0.00     0.013 C 
HETATM   15  C   UNK N   1      27.870  23.543  -4.895  0.00  0.00     0.019 C 
HETATM   16  C   UNK N   1      32.632  22.609  -6.827  0.00  0.00     0.036 C 
HETATM   17  C   UNK N   1      33.021  21.944  -5.535  0.00  0.00    -0.061 C 
HETATM   18  C   UNK N   1      26.734  25.502  -6.905  0.00  0.00     0.013 C 
HETATM   19  C   UNK N   1      30.989  20.853  -4.694  0.00  0.00     0.028 C 
HETATM   20  C   UNK N   1      32.692  21.453  -3.071  0.00  0.00    -0.006 C 
HETATM   21  C   UNK N   1      34.089  21.128  -5.547  0.00  0.00     0.058 C 
HETATM   22  C   UNK N   1      33.777  20.665  -3.075  0.00  0.00     0.052 C 
HETATM   23  C   UNK N   1      34.444  20.355  -4.347  0.00  0.00     0.172 C 
HETATM   24  H   UNK N   1      29.218  27.899  -3.903  0.00  0.00     0.211 HD
ENDROOT
BRANCH   8  25
HETATM   25  C   UNK N   1      26.547  26.160  -4.044  0.00  0.00     0.185 C 
HETATM   26  O   UNK N   1      26.077  25.167  -3.509  0.00  0.00    -0.292 OA
BRANCH  25  27
HETATM   27  C   UNK N   1      25.738  27.421  -4.054  0.00  0.00     0.245 C 
BRANCH  27  28
HETATM   28  O   UNK N   1      26.019  28.178  -2.917  0.00  0.00    -0.393 OA
HETATM   29  H   UNK N   1      26.886  28.494  -2.618  0.00  0.00     0.209 HD
ENDBRANCH  27  28
ENDBRANCH  25  27
ENDBRANCH   8  25
BRANCH  12  30
HETATM   30  O   UNK N   1      30.718  23.052  -1.845  0.00  0.00    -0.392 OA
HETATM   31  H   UNK N   1      31.549  23.416  -1.501  0.00  0.00     0.210 HD
ENDBRANCH  12  30
TORSDOF 4
ENDMDL
MODEL 6
REMARK VINA RESULT:      -7.4      2.329      7.281
REMARK  4 active torsions:
REMARK  status: ('A' for Active; 'I' for Inactive)
REMARK    1  A    between atoms: C_15  and  O_3 
REMARK    2  A    between atoms: O_5  and  C_26 
REMARK    3  A    between atoms: C_11  and  C_21 
REMARK    4  A    between atoms: C_21  and  C_26 
ROOT
HETATM    1  F   UNK N   1      22.397  15.439   7.560  0.00  0.00    -0.238 F 
HETATM    2  O   UNK N   1      21.229  16.832   3.321  0.00  0.00    -0.381 OA
HETATM    3  O   UNK N   1      24.100  11.935  11.711  0.00  0.00    -0.289 OA
HETATM    4  C   UNK N   1      21.414  14.593   4.168  0.00  0.00     0.001 C 
HETATM    5  C   UNK N   1      22.818  14.976   4.648  0.00  0.00     0.005 C 
HETATM    6  C   UNK N   1      23.275  14.062   5.797  0.00  0.00     0.035 C 
HETATM    7  C   UNK N   1      22.281  14.169   7.004  0.00  0.00     0.147 C 
HETATM    8  C   UNK N   1      21.287  15.491   2.915  0.00  0.00     0.131 C 
HETATM    9  C   UNK N   1      23.651  14.951   3.366  0.00  0.00     0.013 C 
HETATM   10  C   UNK N   1      20.430  14.856   5.309  0.00  0.00     0.048 C 
HETATM   11  C   UNK N   1      22.662  15.274   2.224  0.00  0.00     0.025 C 
HETATM   12  C   UNK N   1      20.803  13.986   6.524  0.00  0.00     0.160 C 
HETATM   13  C   UNK N   1      22.680  13.089   8.068  0.00  0.00     0.036 C 
HETATM   14  C   UNK N   1      24.689  14.412   6.272  0.00  0.00     0.013 C 
HETATM   15  C   UNK N   1      21.330  13.099   3.774  0.00  0.00     0.019 C 
HETATM   16  C   UNK N   1      25.177  13.387   7.295  0.00  0.00     0.036 C 
HETATM   17  C   UNK N   1      24.177  13.181   8.400  0.00  0.00    -0.061 C 
HETATM   18  C   UNK N   1      22.687  14.094   1.258  0.00  0.00     0.013 C 
HETATM   19  C   UNK N   1      22.452  11.693   7.485  0.00  0.00     0.028 C 
HETATM   20  C   UNK N   1      21.814  13.154   9.317  0.00  0.00    -0.006 C 
HETATM   21  C   UNK N   1      24.637  12.779   9.596  0.00  0.00     0.058 C 
HETATM   22  C   UNK N   1      22.276  12.785  10.519  0.00  0.00     0.052 C 
HETATM   23  C   UNK N   1      23.697  12.444  10.678  0.00  0.00     0.172 C 
HETATM   24  H   UNK N   1      21.262  17.762   3.591  0.00  0.00     0.211 HD
ENDROOT
BRANCH   8  25
HETATM   25  C   UNK N   1      20.089  15.255   2.003  0.00  0.00     0.185 C 
HETATM   26  O   UNK N   1      19.320  14.340   2.255  0.00  0.00    -0.292 OA
BRANCH  25  27
HETATM   27  C   UNK N   1      19.828  16.103   0.796  0.00  0.00     0.245 C 
BRANCH  27  28
HETATM   28  O   UNK N   1      19.298  17.334   1.182  0.00  0.00    -0.393 OA
HETATM   29  H   UNK N   1      18.377  17.628   1.105  0.00  0.00     0.209 HD
ENDBRANCH  27  28
ENDBRANCH  25  27
ENDBRANCH   8  25
BRANCH  12  30
HETATM   30  O   UNK N   1      19.897  14.241   7.555  0.00  0.00    -0.392 OA
HETATM   31  H   UNK N   1      19.656  15.115   7.901  0.00  0.00     0.210 HD
ENDBRANCH  12  30
TORSDOF 4
ENDMDL
MODEL 7
REMARK VINA RESULT:      -7.2      9.129     10.567
REMARK  4 active torsions:
REMARK  status: ('A' for Active; 'I' for Inactive)
REMARK    1  A    between atoms: C_15  and  O_3 
REMARK    2  A    between atoms: O_5  and  C_26 
REMARK    3  A    between atoms: C_11  and  C_21 
REMARK    4  A    between atoms: C_21  and  C_26 
ROOT
HETATM    1  F   UNK N   1      29.047  16.019   7.637  0.00  0.00    -0.238 F 
HETATM    2  O   UNK N   1      32.824  15.154  10.139  0.00  0.00    -0.381 OA
HETATM    3  O   UNK N   1      25.888  17.631   3.183  0.00  0.00    -0.289 OA
HETATM    4  C   UNK N   1      32.615  16.470   8.142  0.00  0.00     0.001 C 
HETATM    5  C   UNK N   1      31.924  15.257   7.510  0.00  0.00     0.005 C 
HETATM    6  C   UNK N   1      31.035  15.683   6.330  0.00  0.00     0.035 C 
HETATM    7  C   UNK N   1      29.940  16.696   6.813  0.00  0.00     0.147 C 
HETATM    8  C   UNK N   1      33.577  15.768   9.128  0.00  0.00     0.131 C 
HETATM    9  C   UNK N   1      33.082  14.308   7.203  0.00  0.00     0.013 C 
HETATM   10  C   UNK N   1      31.539  17.371   8.751  0.00  0.00     0.048 C 
HETATM   11  C   UNK N   1      34.174  14.638   8.244  0.00  0.00     0.025 C 
HETATM   12  C   UNK N   1      30.582  17.855   7.644  0.00  0.00     0.160 C 
HETATM   13  C   UNK N   1      29.184  17.240   5.551  0.00  0.00     0.036 C 
HETATM   14  C   UNK N   1      30.357  14.479   5.668  0.00  0.00     0.013 C 
HETATM   15  C   UNK N   1      33.411  17.286   7.096  0.00  0.00     0.019 C 
HETATM   16  C   UNK N   1      29.616  14.914   4.403  0.00  0.00     0.036 C 
HETATM   17  C   UNK N   1      28.706  16.083   4.663  0.00  0.00    -0.061 C 
HETATM   18  C   UNK N   1      35.423  15.054   7.472  0.00  0.00     0.013 C 
HETATM   19  C   UNK N   1      30.147  18.070   4.701  0.00  0.00     0.028 C 
HETATM   20  C   UNK N   1      28.049  18.185   5.917  0.00  0.00    -0.006 C 
HETATM   21  C   UNK N   1      27.631  16.229   3.871  0.00  0.00     0.058 C 
HETATM   22  C   UNK N   1      26.959  18.312   5.148  0.00  0.00     0.052 C 
HETATM   23  C   UNK N   1      26.773  17.418   3.997  0.00  0.00     0.172 C 
HETATM   24  H   UNK N   1      32.305  14.667  10.798  0.00  0.00     0.211 HD
ENDROOT
BRANCH   8  25
HETATM   25  C   UNK N   1      34.622  16.632   9.822  0.00  0.00     0.185 C 
HETATM   26  O   UNK N   1      34.864  17.745   9.380  0.00  0.00    -0.292 OA
BRANCH  25  27
HETATM   27  C   UNK N   1      35.377  16.157  11.027  0.00  0.00     0.245 C 
BRANCH  27  28
HETATM   28  O   UNK N   1      36.749  16.218  10.785  0.00  0.00    -0.393 OA
HETATM   29  H   UNK N   1      37.232  16.906  10.302  0.00  0.00     0.209 HD
ENDBRANCH  27  28
ENDBRANCH  25  27
ENDBRANCH   8  25
BRANCH  12  30
HETATM   30  O   UNK N   1      29.606  18.672   8.218  0.00  0.00    -0.392 OA
HETATM   31  H   UNK N   1      29.187  19.441   7.801  0.00  0.00     0.210 HD
ENDBRANCH  12  30
TORSDOF 4
ENDMDL
MODEL 8
REMARK VINA RESULT:      -7.2     16.078     18.128
REMARK  4 active torsions:
REMARK  status: ('A' for Active; 'I' for Inactive)
REMARK    1  A    between atoms: C_15  and  O_3 
REMARK    2  A    between atoms: O_5  and  C_26 
REMARK    3  A    between atoms: C_11  and  C_21 
REMARK    4  A    between atoms: C_21  and  C_26 
ROOT
HETATM    1  F   UNK N   1      25.203  26.750  -7.225  0.00  0.00    -0.238 F 
HETATM    2  O   UNK N   1      25.590  23.553 -10.527  0.00  0.00    -0.381 OA
HETATM    3  O   UNK N   1      26.679  30.002  -2.791  0.00  0.00    -0.289 OA
HETATM    4  C   UNK N   1      26.941  23.857  -8.566  0.00  0.00     0.001 C 
HETATM    5  C   UNK N   1      27.111  25.315  -9.006  0.00  0.00     0.005 C 
HETATM    6  C   UNK N   1      27.471  26.213  -7.811  0.00  0.00     0.035 C 
HETATM    7  C   UNK N   1      26.347  26.140  -6.720  0.00  0.00     0.147 C 
HETATM    8  C   UNK N   1      26.800  23.160  -9.939  0.00  0.00     0.131 C 
HETATM    9  C   UNK N   1      28.131  25.227 -10.142  0.00  0.00     0.013 C 
HETATM   10  C   UNK N   1      25.738  23.778  -7.625  0.00  0.00     0.048 C 
HETATM   11  C   UNK N   1      27.948  23.820 -10.753  0.00  0.00     0.025 C 
HETATM   12  C   UNK N   1      25.993  24.654  -6.384  0.00  0.00     0.160 C 
HETATM   13  C   UNK N   1      26.843  26.917  -5.451  0.00  0.00     0.036 C 
HETATM   14  C   UNK N   1      27.673  27.670  -8.236  0.00  0.00     0.013 C 
HETATM   15  C   UNK N   1      28.191  23.334  -7.818  0.00  0.00     0.019 C 
HETATM   16  C   UNK N   1      28.188  28.502  -7.062  0.00  0.00     0.036 C 
HETATM   17  C   UNK N   1      27.341  28.318  -5.833  0.00  0.00    -0.061 C 
HETATM   18  C   UNK N   1      29.285  23.097 -10.631  0.00  0.00     0.013 C 
HETATM   19  C   UNK N   1      28.038  26.183  -4.841  0.00  0.00     0.028 C 
HETATM   20  C   UNK N   1      25.792  26.965  -4.352  0.00  0.00    -0.006 C 
HETATM   21  C   UNK N   1      27.302  29.323  -4.942  0.00  0.00     0.058 C 
HETATM   22  C   UNK N   1      25.727  27.980  -3.479  0.00  0.00     0.052 C 
HETATM   23  C   UNK N   1      26.591  29.154  -3.665  0.00  0.00     0.172 C 
HETATM   24  H   UNK N   1      24.790  23.879 -10.969  0.00  0.00     0.211 HD
ENDROOT
BRANCH   8  25
HETATM   25  C   UNK N   1      26.823  21.637  -9.957  0.00  0.00     0.185 C 
HETATM   26  O   UNK N   1      27.190  21.034  -8.959  0.00  0.00    -0.292 OA
BRANCH  25  27
HETATM   27  C   UNK N   1      26.421  20.848 -11.166  0.00  0.00     0.245 C 
BRANCH  27  28
HETATM   28  O   UNK N   1      25.038  20.661 -11.176  0.00  0.00    -0.393 OA
HETATM   29  H   UNK N   1      24.552  19.849 -10.965  0.00  0.00     0.209 HD
ENDBRANCH  27  28
ENDBRANCH  25  27
ENDBRANCH   8  25
BRANCH  12  30
HETATM   30  O   UNK N   1      24.885  24.572  -5.539  0.00  0.00    -0.392 OA
HETATM   31  H   UNK N   1      24.883  24.233  -4.630  0.00  0.00     0.210 HD
ENDBRANCH  12  30
TORSDOF 4
ENDMDL
MODEL 9
REMARK VINA RESULT:      -7.2     14.542     16.977
REMARK  4 active torsions:
REMARK  status: ('A' for Active; 'I' for Inactive)
REMARK    1  A    between atoms: C_15  and  O_3 
REMARK    2  A    between atoms: O_5  and  C_26 
REMARK    3  A    between atoms: C_11  and  C_21 
REMARK    4  A    between atoms: C_21  and  C_26 
ROOT
HETATM    1  F   UNK N   1      29.680  20.953  -5.168  0.00  0.00    -0.238 F 
HETATM    2  O   UNK N   1      25.666  23.036  -6.073  0.00  0.00    -0.381 OA
HETATM    3  O   UNK N   1      35.181  20.397  -3.808  0.00  0.00    -0.289 OA
HETATM    4  C   UNK N   1      27.871  23.985  -6.019  0.00  0.00     0.001 C 
HETATM    5  C   UNK N   1      28.017  23.363  -4.625  0.00  0.00     0.005 C 
HETATM    6  C   UNK N   1      29.498  23.170  -4.261  0.00  0.00     0.035 C 
HETATM    7  C   UNK N   1      30.198  22.236  -5.308  0.00  0.00     0.147 C 
HETATM    8  C   UNK N   1      26.350  24.260  -6.049  0.00  0.00     0.131 C 
HETATM    9  C   UNK N   1      27.196  24.295  -3.733  0.00  0.00     0.013 C 
HETATM   10  C   UNK N   1      28.414  22.989  -7.045  0.00  0.00     0.048 C 
HETATM   11  C   UNK N   1      26.111  24.897  -4.652  0.00  0.00     0.025 C 
HETATM   12  C   UNK N   1      29.904  22.719  -6.767  0.00  0.00     0.160 C 
HETATM   13  C   UNK N   1      31.736  22.221  -5.003  0.00  0.00     0.036 C 
HETATM   14  C   UNK N   1      29.665  22.576  -2.859  0.00  0.00     0.013 C 
HETATM   15  C   UNK N   1      28.664  25.307  -6.143  0.00  0.00     0.019 C 
HETATM   16  C   UNK N   1      31.141  22.550  -2.462  0.00  0.00     0.036 C 
HETATM   17  C   UNK N   1      31.993  21.908  -3.522  0.00  0.00    -0.061 C 
HETATM   18  C   UNK N   1      26.288  26.412  -4.627  0.00  0.00     0.013 C 
HETATM   19  C   UNK N   1      32.318  23.613  -5.258  0.00  0.00     0.028 C 
HETATM   20  C   UNK N   1      32.502  21.285  -5.926  0.00  0.00    -0.006 C 
HETATM   21  C   UNK N   1      33.140  21.325  -3.137  0.00  0.00     0.058 C 
HETATM   22  C   UNK N   1      33.630  20.675  -5.537  0.00  0.00     0.052 C 
HETATM   23  C   UNK N   1      34.073  20.788  -4.140  0.00  0.00     0.172 C 
HETATM   24  H   UNK N   1      25.189  22.194  -6.017  0.00  0.00     0.211 HD
ENDROOT
BRANCH   8  25
HETATM   25  C   UNK N   1      25.812  25.087  -7.210  0.00  0.00     0.185 C 
HETATM   26  O   UNK N   1      25.463  26.241  -7.008  0.00  0.00    -0.292 OA
BRANCH  25  27
HETATM   27  C   UNK N   1      25.682  24.529  -8.594  0.00  0.00     0.245 C 
BRANCH  27  28
HETATM   28  O   UNK N   1      24.653  23.589  -8.636  0.00  0.00    -0.393 OA
HETATM   29  H   UNK N   1      24.096  23.359  -9.396  0.00  0.00     0.209 HD
ENDBRANCH  27  28
ENDBRANCH  25  27
ENDBRANCH   8  25
BRANCH  12  30
HETATM   30  O   UNK N   1      30.381  21.807  -7.710  0.00  0.00    -0.392 OA
HETATM   31  H   UNK N   1      31.146  21.220  -7.603  0.00  0.00     0.210 HD
ENDBRANCH  12  30
TORSDOF 4
ENDMDL
