REMARK  7 active torsions:
REMARK  status: ('A' for Active; 'I' for Inactive)
REMARK    1  A    between atoms: O_1  and  C_11 
REMARK    2  A    between atoms: O_2  and  C_12 
REMARK    3  A    between atoms: O_3  and  C_14 
REMARK    4  A    between atoms: C_7  and  N_5 
REMARK    5  A    between atoms: C_6  and  C_7 
REMARK    6  A    between atoms: C_6  and  C_8 
REMARK    7  A    between atoms: C_7  and  C_12 
ROOT
HETATM    1  C   UNK N   1       3.535  -0.184   0.432  0.00  0.00    -0.053 A 
HETATM    2  C   UNK N   1       2.327  -0.619  -0.127  0.00  0.00     0.046 A 
HETATM    3  C   UNK N   1       4.614  -1.074   0.518  0.00  0.00     0.010 A 
HETATM    4  C   UNK N   1       2.202  -1.933  -0.612  0.00  0.00     0.099 A 
HETATM    5  C   UNK N   1       4.498  -2.377   0.024  0.00  0.00     0.040 A 
HETATM    6  C   UNK N   1       3.296  -2.807  -0.532  0.00  0.00     0.098 A 
ENDROOT
BRANCH   1   7
HETATM    7  C   UNK N   1       3.624   1.183   1.060  0.00  0.00     0.074 C 
BRANCH   7   8
HETATM    8  C   UNK N   1       4.741   2.124   0.565  0.00  0.00     0.177 C 
BRANCH   8   9
HETATM    9  N   UNK N   1       6.019   1.440   0.446  0.00  0.00    -0.417 N 
HETATM   10  H   UNK N   1       6.052   0.424   0.363  0.00  0.00     0.150 HD
HETATM   11  H   UNK N   1       6.886   1.978   0.446  0.00  0.00     0.150 HD
ENDBRANCH   8   9
BRANCH   8  12
HETATM   12  C   UNK N   1       4.439   2.905  -0.681  0.00  0.00     0.163 C 
HETATM   13  O   UNK N   1       3.386   2.753  -1.278  0.00  0.00    -0.648 OA
BRANCH  12  14
HETATM   14  O   UNK N   1       5.329   3.816  -1.121  0.00  0.00    -0.775 OA
HETATM   15  H   UNK N   1       6.187   3.596  -1.427  0.00  0.00     0.167 HD
ENDBRANCH  12  14
ENDBRANCH   8  12
ENDBRANCH   7   8
ENDBRANCH   1   7
BRANCH   4  16
HETATM   16  O   UNK N   1       1.038  -2.344  -1.134  0.00  0.00    -0.358 OA
HETATM   17  H   UNK N   1       0.382  -1.783  -1.498  0.00  0.00     0.217 HD
ENDBRANCH   4  16
BRANCH   6  18
HETATM   18  O   UNK N   1       3.187  -4.071  -0.988  0.00  0.00    -0.358 OA
HETATM   19  H   UNK N   1       2.388  -4.445  -1.304  0.00  0.00     0.217 HD
ENDBRANCH   6  18
TORSDOF 7
