MODEL 1
REMARK VINA RESULT:      -5.7      0.000      0.000
REMARK  7 active torsions:
REMARK  status: ('A' for Active; 'I' for Inactive)
REMARK    1  A    between atoms: O_1  and  C_11 
REMARK    2  A    between atoms: O_2  and  C_12 
REMARK    3  A    between atoms: O_3  and  C_14 
REMARK    4  A    between atoms: C_7  and  N_5 
REMARK    5  A    between atoms: C_6  and  C_7 
REMARK    6  A    between atoms: C_6  and  C_8 
REMARK    7  A    between atoms: C_7  and  C_12 
ROOT
HETATM    1  C   UNK N   1      30.935  17.149   7.742  0.00  0.00    -0.053 A 
HETATM    2  C   UNK N   1      30.007  17.464   8.743  0.00  0.00     0.046 A 
HETATM    3  C   UNK N   1      30.551  17.226   6.397  0.00  0.00     0.010 A 
HETATM    4  C   UNK N   1      28.704  17.868   8.400  0.00  0.00     0.099 A 
HETATM    5  C   UNK N   1      29.260  17.641   6.052  0.00  0.00     0.040 A 
HETATM    6  C   UNK N   1      28.339  17.954   7.049  0.00  0.00     0.098 A 
ENDROOT
BRANCH   1   7
HETATM    7  C   UNK N   1      32.288  16.600   8.117  0.00  0.00     0.074 C 
BRANCH   7   8
HETATM    8  C   UNK N   1      33.283  17.560   8.799  0.00  0.00     0.177 C 
BRANCH   8   9
HETATM    9  N   UNK N   1      33.988  16.925   9.901  0.00  0.00    -0.417 N 
HETATM   10  H   UNK N   1      35.007  16.875   9.899  0.00  0.00     0.150 HD
HETATM   11  H   UNK N   1      33.462  16.527  10.679  0.00  0.00     0.150 HD
ENDBRANCH   8   9
BRANCH   8  12
HETATM   12  C   UNK N   1      34.247  18.264   7.888  0.00  0.00     0.163 C 
HETATM   13  O   UNK N   1      35.004  19.121   8.315  0.00  0.00    -0.648 OA
BRANCH  12  14
HETATM   14  O   UNK N   1      34.303  17.914   6.588  0.00  0.00    -0.775 OA
HETATM   15  H   UNK N   1      33.789  18.322   5.919  0.00  0.00     0.167 HD
ENDBRANCH  12  14
ENDBRANCH   8  12
ENDBRANCH   7   8
ENDBRANCH   1   7
BRANCH   4  16
HETATM   16  O   UNK N   1      27.819  18.155   9.365  0.00  0.00    -0.358 OA
HETATM   17  H   UNK N   1      26.890  18.196   9.250  0.00  0.00     0.217 HD
ENDBRANCH   4  16
BRANCH   6  18
HETATM   18  O   UNK N   1      27.092  18.334   6.707  0.00  0.00    -0.358 OA
HETATM   19  H   UNK N   1      26.798  18.427   5.822  0.00  0.00     0.217 HD
ENDBRANCH   6  18
TORSDOF 7
ENDMDL
MODEL 2
REMARK VINA RESULT:      -5.6      0.838      1.930
REMARK  7 active torsions:
REMARK  status: ('A' for Active; 'I' for Inactive)
REMARK    1  A    between atoms: O_1  and  C_11 
REMARK    2  A    between atoms: O_2  and  C_12 
REMARK    3  A    between atoms: O_3  and  C_14 
REMARK    4  A    between atoms: C_7  and  N_5 
REMARK    5  A    between atoms: C_6  and  C_7 
REMARK    6  A    between atoms: C_6  and  C_8 
REMARK    7  A    between atoms: C_7  and  C_12 
ROOT
HETATM    1  C   UNK N   1      30.985  17.328   7.987  0.00  0.00    -0.053 A 
HETATM    2  C   UNK N   1      30.230  17.215   6.813  0.00  0.00     0.046 A 
HETATM    3  C   UNK N   1      30.502  18.111   9.044  0.00  0.00     0.010 A 
HETATM    4  C   UNK N   1      28.990  17.869   6.701  0.00  0.00     0.099 A 
HETATM    5  C   UNK N   1      29.263  18.752   8.942  0.00  0.00     0.040 A 
HETATM    6  C   UNK N   1      28.514  18.638   7.774  0.00  0.00     0.098 A 
ENDROOT
BRANCH   1   7
HETATM    7  C   UNK N   1      32.365  16.726   8.054  0.00  0.00     0.074 C 
BRANCH   7   8
HETATM    8  C   UNK N   1      33.454  17.522   8.801  0.00  0.00     0.177 C 
BRANCH   8   9
HETATM    9  N   UNK N   1      34.142  16.710   9.793  0.00  0.00    -0.417 N 
HETATM   10  H   UNK N   1      34.223  17.034  10.756  0.00  0.00     0.150 HD
HETATM   11  H   UNK N   1      34.545  15.812   9.524  0.00  0.00     0.150 HD
ENDBRANCH   8   9
BRANCH   8  12
HETATM   12  C   UNK N   1      34.441  18.255   7.940  0.00  0.00     0.163 C 
HETATM   13  O   UNK N   1      34.492  18.059   6.737  0.00  0.00    -0.648 OA
BRANCH  12  14
HETATM   14  O   UNK N   1      35.252  19.174   8.500  0.00  0.00    -0.775 OA
HETATM   15  H   UNK N   1      35.157  20.097   8.370  0.00  0.00     0.167 HD
ENDBRANCH  12  14
ENDBRANCH   8  12
ENDBRANCH   7   8
ENDBRANCH   1   7
BRANCH   4  16
HETATM   16  O   UNK N   1      28.280  17.765   5.569  0.00  0.00    -0.358 OA
HETATM   17  H   UNK N   1      28.435  17.137   4.891  0.00  0.00     0.217 HD
ENDBRANCH   4  16
BRANCH   6  18
HETATM   18  O   UNK N   1      27.330  19.275   7.676  0.00  0.00    -0.358 OA
HETATM   19  H   UNK N   1      26.815  19.303   6.894  0.00  0.00     0.217 HD
ENDBRANCH   6  18
TORSDOF 7
ENDMDL
MODEL 3
REMARK VINA RESULT:      -5.5      9.674     11.374
REMARK  7 active torsions:
REMARK  status: ('A' for Active; 'I' for Inactive)
REMARK    1  A    between atoms: O_1  and  C_11 
REMARK    2  A    between atoms: O_2  and  C_12 
REMARK    3  A    between atoms: O_3  and  C_14 
REMARK    4  A    between atoms: C_7  and  N_5 
REMARK    5  A    between atoms: C_6  and  C_7 
REMARK    6  A    between atoms: C_6  and  C_8 
REMARK    7  A    between atoms: C_7  and  C_12 
ROOT
HETATM    1  C   UNK N   1      35.453  12.248  16.468  0.00  0.00    -0.053 A 
HETATM    2  C   UNK N   1      35.340  13.565  16.929  0.00  0.00     0.046 A 
HETATM    3  C   UNK N   1      35.478  11.194  17.391  0.00  0.00     0.010 A 
HETATM    4  C   UNK N   1      35.237  13.828  18.307  0.00  0.00     0.099 A 
HETATM    5  C   UNK N   1      35.361  11.451  18.761  0.00  0.00     0.040 A 
HETATM    6  C   UNK N   1      35.248  12.761  19.218  0.00  0.00     0.098 A 
ENDROOT
BRANCH   1   7
HETATM    7  C   UNK N   1      35.686  11.981  15.003  0.00  0.00     0.074 C 
BRANCH   7   8
HETATM    8  C   UNK N   1      36.592  12.964  14.235  0.00  0.00     0.177 C 
BRANCH   8   9
HETATM    9  N   UNK N   1      37.664  12.281  13.528  0.00  0.00    -0.417 N 
HETATM   10  H   UNK N   1      37.457  11.480  12.932  0.00  0.00     0.150 HD
HETATM   11  H   UNK N   1      38.627  12.604  13.628  0.00  0.00     0.150 HD
ENDBRANCH   8   9
BRANCH   8  12
HETATM   12  C   UNK N   1      35.892  13.933  13.327  0.00  0.00     0.163 C 
HETATM   13  O   UNK N   1      34.766  13.706  12.915  0.00  0.00    -0.648 OA
BRANCH  12  14
HETATM   14  O   UNK N   1      36.501  15.089  12.998  0.00  0.00    -0.775 OA
HETATM   15  H   UNK N   1      36.309  15.572  12.219  0.00  0.00     0.167 HD
ENDBRANCH  12  14
ENDBRANCH   8  12
ENDBRANCH   7   8
ENDBRANCH   1   7
BRANCH   4  16
HETATM   16  O   UNK N   1      35.142  15.093  18.740  0.00  0.00    -0.358 OA
HETATM   17  H   UNK N   1      34.564  15.741  18.389  0.00  0.00     0.217 HD
ENDBRANCH   4  16
BRANCH   6  18
HETATM   18  O   UNK N   1      35.156  13.000  20.541  0.00  0.00    -0.358 OA
HETATM   19  H   UNK N   1      34.696  12.447  21.141  0.00  0.00     0.217 HD
ENDBRANCH   6  18
TORSDOF 7
ENDMDL
MODEL 4
REMARK VINA RESULT:      -5.4     10.757     12.326
REMARK  7 active torsions:
REMARK  status: ('A' for Active; 'I' for Inactive)
REMARK    1  A    between atoms: O_1  and  C_11 
REMARK    2  A    between atoms: O_2  and  C_12 
REMARK    3  A    between atoms: O_3  and  C_14 
REMARK    4  A    between atoms: C_7  and  N_5 
REMARK    5  A    between atoms: C_6  and  C_7 
REMARK    6  A    between atoms: C_6  and  C_8 
REMARK    7  A    between atoms: C_7  and  C_12 
ROOT
HETATM    1  C   UNK N   1      35.385  12.266  17.242  0.00  0.00    -0.053 A 
HETATM    2  C   UNK N   1      35.065  13.149  18.282  0.00  0.00     0.046 A 
HETATM    3  C   UNK N   1      35.714  10.938  17.544  0.00  0.00     0.010 A 
HETATM    4  C   UNK N   1      35.059  12.703  19.615  0.00  0.00     0.099 A 
HETATM    5  C   UNK N   1      35.696  10.487  18.867  0.00  0.00     0.040 A 
HETATM    6  C   UNK N   1      35.376  11.366  19.899  0.00  0.00     0.098 A 
ENDROOT
BRANCH   1   7
HETATM    7  C   UNK N   1      35.509  12.780  15.831  0.00  0.00     0.074 C 
BRANCH   7   8
HETATM    8  C   UNK N   1      36.909  13.211  15.350  0.00  0.00     0.177 C 
BRANCH   8   9
HETATM    9  N   UNK N   1      37.329  12.480  14.164  0.00  0.00    -0.417 N 
HETATM   10  H   UNK N   1      36.960  12.732  13.248  0.00  0.00     0.150 HD
HETATM   11  H   UNK N   1      37.994  11.711  14.250  0.00  0.00     0.150 HD
ENDBRANCH   8   9
BRANCH   8  12
HETATM   12  C   UNK N   1      37.115  14.686  15.164  0.00  0.00     0.163 C 
HETATM   13  O   UNK N   1      37.568  15.376  16.063  0.00  0.00    -0.648 OA
BRANCH  12  14
HETATM   14  O   UNK N   1      36.834  15.247  13.971  0.00  0.00    -0.775 OA
HETATM   15  H   UNK N   1      37.195  14.948  13.160  0.00  0.00     0.167 HD
ENDBRANCH  12  14
ENDBRANCH   8  12
ENDBRANCH   7   8
ENDBRANCH   1   7
BRANCH   4  16
HETATM   16  O   UNK N   1      34.764  13.558  20.604  0.00  0.00    -0.358 OA
HETATM   17  H   UNK N   1      35.364  13.851  21.261  0.00  0.00     0.217 HD
ENDBRANCH   4  16
BRANCH   6  18
HETATM   18  O   UNK N   1      35.380  10.928  21.174  0.00  0.00    -0.358 OA
HETATM   19  H   UNK N   1      35.227  10.036  21.420  0.00  0.00     0.217 HD
ENDBRANCH   6  18
TORSDOF 7
ENDMDL
MODEL 5
REMARK VINA RESULT:      -5.2      9.430     11.268
REMARK  7 active torsions:
REMARK  status: ('A' for Active; 'I' for Inactive)
REMARK    1  A    between atoms: O_1  and  C_11 
REMARK    2  A    between atoms: O_2  and  C_12 
REMARK    3  A    between atoms: O_3  and  C_14 
REMARK    4  A    between atoms: C_7  and  N_5 
REMARK    5  A    between atoms: C_6  and  C_7 
REMARK    6  A    between atoms: C_6  and  C_8 
REMARK    7  A    between atoms: C_7  and  C_12 
ROOT
HETATM    1  C   UNK N   1      22.183  12.787   8.999  0.00  0.00    -0.053 A 
HETATM    2  C   UNK N   1      21.834  12.286  10.259  0.00  0.00     0.046 A 
HETATM    3  C   UNK N   1      23.526  13.073   8.719  0.00  0.00     0.010 A 
HETATM    4  C   UNK N   1      22.824  12.057  11.231  0.00  0.00     0.099 A 
HETATM    5  C   UNK N   1      24.515  12.833   9.678  0.00  0.00     0.040 A 
HETATM    6  C   UNK N   1      24.165  12.334  10.930  0.00  0.00     0.098 A 
ENDROOT
BRANCH   1   7
HETATM    7  C   UNK N   1      21.106  13.146   8.007  0.00  0.00     0.074 C 
BRANCH   7   8
HETATM    8  C   UNK N   1      20.938  14.635   7.644  0.00  0.00     0.177 C 
BRANCH   8   9
HETATM    9  N   UNK N   1      20.335  14.814   6.333  0.00  0.00    -0.417 N 
HETATM   10  H   UNK N   1      20.678  15.540   5.704  0.00  0.00     0.150 HD
HETATM   11  H   UNK N   1      19.565  14.211   6.040  0.00  0.00     0.150 HD
ENDBRANCH   8   9
BRANCH   8  12
HETATM   12  C   UNK N   1      20.244  15.487   8.668  0.00  0.00     0.163 C 
HETATM   13  O   UNK N   1      19.360  15.028   9.372  0.00  0.00    -0.648 OA
BRANCH  12  14
HETATM   14  O   UNK N   1      20.634  16.765   8.837  0.00  0.00    -0.775 OA
HETATM   15  H   UNK N   1      21.250  17.197   8.277  0.00  0.00     0.167 HD
ENDBRANCH  12  14
ENDBRANCH   8  12
ENDBRANCH   7   8
ENDBRANCH   1   7
BRANCH   4  16
HETATM   16  O   UNK N   1      22.478  11.589  12.438  0.00  0.00    -0.358 OA
HETATM   17  H   UNK N   1      22.235  12.117  13.172  0.00  0.00     0.217 HD
ENDBRANCH   4  16
BRANCH   6  18
HETATM   18  O   UNK N   1      25.123  12.124  11.855  0.00  0.00    -0.358 OA
HETATM   19  H   UNK N   1      25.469  12.795  12.411  0.00  0.00     0.217 HD
ENDBRANCH   6  18
TORSDOF 7
ENDMDL
MODEL 6
REMARK VINA RESULT:      -5.1      3.714      4.641
REMARK  7 active torsions:
REMARK  status: ('A' for Active; 'I' for Inactive)
REMARK    1  A    between atoms: O_1  and  C_11 
REMARK    2  A    between atoms: O_2  and  C_12 
REMARK    3  A    between atoms: O_3  and  C_14 
REMARK    4  A    between atoms: C_7  and  N_5 
REMARK    5  A    between atoms: C_6  and  C_7 
REMARK    6  A    between atoms: C_6  and  C_8 
REMARK    7  A    between atoms: C_7  and  C_12 
ROOT
HETATM    1  C   UNK N   1      33.581  16.390   5.787  0.00  0.00    -0.053 A 
HETATM    2  C   UNK N   1      33.947  15.659   4.650  0.00  0.00     0.046 A 
HETATM    3  C   UNK N   1      32.630  17.413   5.671  0.00  0.00     0.010 A 
HETATM    4  C   UNK N   1      33.355  15.939   3.406  0.00  0.00     0.099 A 
HETATM    5  C   UNK N   1      32.029  17.685   4.438  0.00  0.00     0.040 A 
HETATM    6  C   UNK N   1      32.394  16.956   3.310  0.00  0.00     0.098 A 
ENDROOT
BRANCH   1   7
HETATM    7  C   UNK N   1      34.307  16.170   7.089  0.00  0.00     0.074 C 
BRANCH   7   8
HETATM    8  C   UNK N   1      33.824  16.966   8.319  0.00  0.00     0.177 C 
BRANCH   8   9
HETATM    9  N   UNK N   1      33.193  16.110   9.311  0.00  0.00    -0.417 N 
HETATM   10  H   UNK N   1      33.084  15.112   9.133  0.00  0.00     0.150 HD
HETATM   11  H   UNK N   1      32.859  16.509  10.188  0.00  0.00     0.150 HD
ENDBRANCH   8   9
BRANCH   8  12
HETATM   12  C   UNK N   1      34.841  17.863   8.961  0.00  0.00     0.163 C 
HETATM   13  O   UNK N   1      35.408  17.535   9.991  0.00  0.00    -0.648 OA
BRANCH  12  14
HETATM   14  O   UNK N   1      35.161  19.030   8.368  0.00  0.00    -0.775 OA
HETATM   15  H   UNK N   1      34.695  19.831   8.516  0.00  0.00     0.167 HD
ENDBRANCH  12  14
ENDBRANCH   8  12
ENDBRANCH   7   8
ENDBRANCH   1   7
BRANCH   4  16
HETATM   16  O   UNK N   1      33.721  15.242   2.321  0.00  0.00    -0.358 OA
HETATM   17  H   UNK N   1      33.288  15.270   1.490  0.00  0.00     0.217 HD
ENDBRANCH   4  16
BRANCH   6  18
HETATM   18  O   UNK N   1      31.823  17.237   2.121  0.00  0.00    -0.358 OA
HETATM   19  H   UNK N   1      30.920  17.081   1.926  0.00  0.00     0.217 HD
ENDBRANCH   6  18
TORSDOF 7
ENDMDL
MODEL 7
REMARK VINA RESULT:      -5.1      4.568      6.968
REMARK  7 active torsions:
REMARK  status: ('A' for Active; 'I' for Inactive)
REMARK    1  A    between atoms: O_1  and  C_11 
REMARK    2  A    between atoms: O_2  and  C_12 
REMARK    3  A    between atoms: O_3  and  C_14 
REMARK    4  A    between atoms: C_7  and  N_5 
REMARK    5  A    between atoms: C_6  and  C_7 
REMARK    6  A    between atoms: C_6  and  C_8 
REMARK    7  A    between atoms: C_7  and  C_12 
ROOT
HETATM    1  C   UNK N   1      35.326  14.706   9.770  0.00  0.00    -0.053 A 
HETATM    2  C   UNK N   1      34.597  14.200  10.853  0.00  0.00     0.046 A 
HETATM    3  C   UNK N   1      36.708  14.485   9.706  0.00  0.00     0.010 A 
HETATM    4  C   UNK N   1      35.244  13.461  11.860  0.00  0.00     0.099 A 
HETATM    5  C   UNK N   1      37.352  13.739  10.698  0.00  0.00     0.040 A 
HETATM    6  C   UNK N   1      36.625  13.236  11.774  0.00  0.00     0.098 A 
ENDROOT
BRANCH   1   7
HETATM    7  C   UNK N   1      34.650  15.599   8.761  0.00  0.00     0.074 C 
BRANCH   7   8
HETATM    8  C   UNK N   1      34.389  17.064   9.165  0.00  0.00     0.177 C 
BRANCH   8   9
HETATM    9  N   UNK N   1      35.060  17.415  10.407  0.00  0.00    -0.417 N 
HETATM   10  H   UNK N   1      35.633  16.727  10.894  0.00  0.00     0.150 HD
HETATM   11  H   UNK N   1      34.955  18.354  10.794  0.00  0.00     0.150 HD
ENDBRANCH   8   9
BRANCH   8  12
HETATM   12  C   UNK N   1      34.656  18.095   8.108  0.00  0.00     0.163 C 
HETATM   13  O   UNK N   1      35.078  19.202   8.402  0.00  0.00    -0.648 OA
BRANCH  12  14
HETATM   14  O   UNK N   1      34.465  17.778   6.813  0.00  0.00    -0.775 OA
HETATM   15  H   UNK N   1      33.988  18.317   6.212  0.00  0.00     0.167 HD
ENDBRANCH  12  14
ENDBRANCH   8  12
ENDBRANCH   7   8
ENDBRANCH   1   7
BRANCH   4  16
HETATM   16  O   UNK N   1      34.540  12.991  12.900  0.00  0.00    -0.358 OA
HETATM   17  H   UNK N   1      34.794  13.061  13.799  0.00  0.00     0.217 HD
ENDBRANCH   4  16
BRANCH   6  18
HETATM   18  O   UNK N   1      37.258  12.535  12.736  0.00  0.00    -0.358 OA
HETATM   19  H   UNK N   1      37.030  11.659  12.979  0.00  0.00     0.217 HD
ENDBRANCH   6  18
TORSDOF 7
ENDMDL
MODEL 8
REMARK VINA RESULT:      -5.0     10.194     11.310
REMARK  7 active torsions:
REMARK  status: ('A' for Active; 'I' for Inactive)
REMARK    1  A    between atoms: O_1  and  C_11 
REMARK    2  A    between atoms: O_2  and  C_12 
REMARK    3  A    between atoms: O_3  and  C_14 
REMARK    4  A    between atoms: C_7  and  N_5 
REMARK    5  A    between atoms: C_6  and  C_7 
REMARK    6  A    between atoms: C_6  and  C_8 
REMARK    7  A    between atoms: C_7  and  C_12 
ROOT
HETATM    1  C   UNK N   1      21.457  18.221   3.791  0.00  0.00    -0.053 A 
HETATM    2  C   UNK N   1      22.489  19.159   3.673  0.00  0.00     0.046 A 
HETATM    3  C   UNK N   1      20.224  18.472   3.174  0.00  0.00     0.010 A 
HETATM    4  C   UNK N   1      22.296  20.337   2.929  0.00  0.00     0.099 A 
HETATM    5  C   UNK N   1      20.032  19.636   2.423  0.00  0.00     0.040 A 
HETATM    6  C   UNK N   1      21.060  20.567   2.306  0.00  0.00     0.098 A 
ENDROOT
BRANCH   1   7
HETATM    7  C   UNK N   1      21.629  17.022   4.688  0.00  0.00     0.074 C 
BRANCH   7   8
HETATM    8  C   UNK N   1      20.557  16.781   5.769  0.00  0.00     0.177 C 
BRANCH   8   9
HETATM    9  N   UNK N   1      20.269  15.367   5.948  0.00  0.00    -0.417 N 
HETATM   10  H   UNK N   1      19.362  15.068   6.306  0.00  0.00     0.150 HD
HETATM   11  H   UNK N   1      20.978  14.670   5.716  0.00  0.00     0.150 HD
ENDBRANCH   8   9
BRANCH   8  12
HETATM   12  C   UNK N   1      20.798  17.445   7.094  0.00  0.00     0.163 C 
HETATM   13  O   UNK N   1      20.913  16.787   8.115  0.00  0.00    -0.648 OA
BRANCH  12  14
HETATM   14  O   UNK N   1      20.929  18.785   7.146  0.00  0.00    -0.775 OA
HETATM   15  H   UNK N   1      20.399  19.337   7.688  0.00  0.00     0.167 HD
ENDBRANCH  12  14
ENDBRANCH   8  12
ENDBRANCH   7   8
ENDBRANCH   1   7
BRANCH   4  16
HETATM   16  O   UNK N   1      23.286  21.236   2.832  0.00  0.00    -0.358 OA
HETATM   17  H   UNK N   1      24.039  21.151   2.282  0.00  0.00     0.217 HD
ENDBRANCH   4  16
BRANCH   6  18
HETATM   18  O   UNK N   1      20.860  21.695   1.596  0.00  0.00    -0.358 OA
HETATM   19  H   UNK N   1      20.065  22.191   1.616  0.00  0.00     0.217 HD
ENDBRANCH   6  18
TORSDOF 7
ENDMDL
MODEL 9
REMARK VINA RESULT:      -5.0     12.593     14.546
REMARK  7 active torsions:
REMARK  status: ('A' for Active; 'I' for Inactive)
REMARK    1  A    between atoms: O_1  and  C_11 
REMARK    2  A    between atoms: O_2  and  C_12 
REMARK    3  A    between atoms: O_3  and  C_14 
REMARK    4  A    between atoms: C_7  and  N_5 
REMARK    5  A    between atoms: C_6  and  C_7 
REMARK    6  A    between atoms: C_6  and  C_8 
REMARK    7  A    between atoms: C_7  and  C_12 
ROOT
HETATM    1  C   UNK N   1      29.396  22.670  -4.817  0.00  0.00    -0.053 A 
HETATM    2  C   UNK N   1      29.415  23.129  -3.494  0.00  0.00     0.046 A 
HETATM    3  C   UNK N   1      30.366  21.753  -5.242  0.00  0.00     0.010 A 
HETATM    4  C   UNK N   1      30.391  22.663  -2.595  0.00  0.00     0.099 A 
HETATM    5  C   UNK N   1      31.329  21.276  -4.347  0.00  0.00     0.040 A 
HETATM    6  C   UNK N   1      31.347  21.734  -3.032  0.00  0.00     0.098 A 
ENDROOT
BRANCH   1   7
HETATM    7  C   UNK N   1      28.426  23.265  -5.805  0.00  0.00     0.074 C 
BRANCH   7   8
HETATM    8  C   UNK N   1      27.282  24.136  -5.246  0.00  0.00     0.177 C 
BRANCH   8   9
HETATM    9  N   UNK N   1      27.660  25.537  -5.148  0.00  0.00    -0.417 N 
HETATM   10  H   UNK N   1      28.237  25.965  -5.872  0.00  0.00     0.150 HD
HETATM   11  H   UNK N   1      27.348  26.093  -4.352  0.00  0.00     0.150 HD
ENDBRANCH   8   9
BRANCH   8  12
HETATM   12  C   UNK N   1      25.952  23.991  -5.927  0.00  0.00     0.163 C 
HETATM   13  O   UNK N   1      25.435  22.895  -6.069  0.00  0.00    -0.648 OA
BRANCH  12  14
HETATM   14  O   UNK N   1      25.304  25.094  -6.351  0.00  0.00    -0.775 OA
HETATM   15  H   UNK N   1      24.414  25.289  -6.130  0.00  0.00     0.167 HD
ENDBRANCH  12  14
ENDBRANCH   8  12
ENDBRANCH   7   8
ENDBRANCH   1   7
BRANCH   4  16
HETATM   16  O   UNK N   1      30.410  23.118  -1.335  0.00  0.00    -0.358 OA
HETATM   17  H   UNK N   1      30.073  22.659  -0.590  0.00  0.00     0.217 HD
ENDBRANCH   4  16
BRANCH   6  18
HETATM   18  O   UNK N   1      32.291  21.284  -2.182  0.00  0.00    -0.358 OA
HETATM   19  H   UNK N   1      32.464  21.666  -1.344  0.00  0.00     0.217 HD
ENDBRANCH   6  18
TORSDOF 7
ENDMDL
