MODEL 1
REMARK VINA RESULT:      -4.4      0.000      0.000
REMARK  4 active torsions:
REMARK  status: ('A' for Active; 'I' for Inactive)
REMARK    1  A    between atoms: O_8  and  C_9 
REMARK    2  A    between atoms: O_8  and  C_12 
REMARK    3  A    between atoms: C_9  and  C_10 
REMARK    4  A    between atoms: C_9  and  C_11 
ROOT
HETATM    1  C   UNK N   1      22.932  12.798  10.511  0.00  0.00     0.339 C 
ENDROOT
BRANCH   1   2
HETATM    2  O   UNK N   1      22.990  11.576  11.185  0.00  0.00    -0.339 OA
BRANCH   2   3
HETATM    3  C   UNK N   1      23.536  11.877  12.437  0.00  0.00     0.392 C 
HETATM    4  F   UNK N   1      22.693  11.431  13.438  0.00  0.00    -0.227 F 
ENDBRANCH   2   3
ENDBRANCH   1   2
BRANCH   1   5
HETATM    5  C   UNK N   1      23.960  12.819   9.369  0.00  0.00     0.421 C 
HETATM    6  F   UNK N   1      23.619  13.767   8.425  0.00  0.00    -0.168 F 
HETATM    7  F   UNK N   1      25.205  13.135   9.881  0.00  0.00    -0.168 F 
HETATM    8  F   UNK N   1      24.032  11.576   8.764  0.00  0.00    -0.168 F 
ENDBRANCH   1   5
BRANCH   1   9
HETATM    9  C   UNK N   1      21.496  13.092  10.050  0.00  0.00     0.421 C 
HETATM   10  F   UNK N   1      21.320  14.453   9.884  0.00  0.00    -0.168 F 
HETATM   11  F   UNK N   1      20.605  12.650  11.012  0.00  0.00    -0.168 F 
HETATM   12  F   UNK N   1      21.221  12.446   8.858  0.00  0.00    -0.168 F 
ENDBRANCH   1   9
TORSDOF 4
ENDMDL
MODEL 2
REMARK VINA RESULT:      -4.4     19.327     20.819
REMARK  4 active torsions:
REMARK  status: ('A' for Active; 'I' for Inactive)
REMARK    1  A    between atoms: O_8  and  C_9 
REMARK    2  A    between atoms: O_8  and  C_12 
REMARK    3  A    between atoms: C_9  and  C_10 
REMARK    4  A    between atoms: C_9  and  C_11 
ROOT
HETATM    1  C   UNK N   1      26.087  25.807  -5.291  0.00  0.00     0.339 C 
ENDROOT
BRANCH   1   2
HETATM    2  O   UNK N   1      25.258  24.684  -5.274  0.00  0.00    -0.339 OA
BRANCH   2   3
HETATM    3  C   UNK N   1      25.963  23.702  -5.978  0.00  0.00     0.392 C 
HETATM    4  F   UNK N   1      25.183  22.568  -6.114  0.00  0.00    -0.227 F 
ENDBRANCH   2   3
ENDBRANCH   1   2
BRANCH   1   5
HETATM    5  C   UNK N   1      25.401  26.957  -6.045  0.00  0.00     0.421 C 
HETATM    6  F   UNK N   1      26.073  28.145  -5.836  0.00  0.00    -0.168 F 
HETATM    7  F   UNK N   1      25.406  26.681  -7.401  0.00  0.00    -0.168 F 
HETATM    8  F   UNK N   1      24.089  27.093  -5.626  0.00  0.00    -0.168 F 
ENDBRANCH   1   5
BRANCH   1   9
HETATM    9  C   UNK N   1      26.518  26.181  -3.864  0.00  0.00     0.421 C 
HETATM   10  F   UNK N   1      27.760  26.786  -3.886  0.00  0.00    -0.168 F 
HETATM   11  F   UNK N   1      26.604  25.034  -3.095  0.00  0.00    -0.168 F 
HETATM   12  F   UNK N   1      25.601  27.038  -3.283  0.00  0.00    -0.168 F 
ENDBRANCH   1   9
TORSDOF 4
ENDMDL
MODEL 3
REMARK VINA RESULT:      -4.3     19.233     20.764
REMARK  4 active torsions:
REMARK  status: ('A' for Active; 'I' for Inactive)
REMARK    1  A    between atoms: O_8  and  C_9 
REMARK    2  A    between atoms: O_8  and  C_12 
REMARK    3  A    between atoms: C_9  and  C_10 
REMARK    4  A    between atoms: C_9  and  C_11 
ROOT
HETATM    1  C   UNK N   1      25.807  26.305  -4.584  0.00  0.00     0.339 C 
ENDROOT
BRANCH   1   2
HETATM    2  O   UNK N   1      26.835  25.383  -4.793  0.00  0.00    -0.339 OA
BRANCH   2   3
HETATM    3  C   UNK N   1      26.369  24.188  -4.236  0.00  0.00     0.392 C 
HETATM    4  F   UNK N   1      26.888  24.027  -2.964  0.00  0.00    -0.227 F 
ENDBRANCH   2   3
ENDBRANCH   1   2
BRANCH   1   5
HETATM    5  C   UNK N   1      26.248  27.362  -3.559  0.00  0.00     0.421 C 
HETATM    6  F   UNK N   1      25.457  28.490  -3.652  0.00  0.00    -0.168 F 
HETATM    7  F   UNK N   1      26.123  26.840  -2.284  0.00  0.00    -0.168 F 
HETATM    8  F   UNK N   1      27.571  27.712  -3.767  0.00  0.00    -0.168 F 
ENDBRANCH   1   5
BRANCH   1   9
HETATM    9  C   UNK N   1      25.341  26.904  -5.920  0.00  0.00     0.421 C 
HETATM   10  F   UNK N   1      24.054  27.393  -5.797  0.00  0.00    -0.168 F 
HETATM   11  F   UNK N   1      25.344  25.919  -6.891  0.00  0.00    -0.168 F 
HETATM   12  F   UNK N   1      26.183  27.926  -6.320  0.00  0.00    -0.168 F 
ENDBRANCH   1   9
TORSDOF 4
ENDMDL
MODEL 4
REMARK VINA RESULT:      -4.2     11.744     13.178
REMARK  4 active torsions:
REMARK  status: ('A' for Active; 'I' for Inactive)
REMARK    1  A    between atoms: O_8  and  C_9 
REMARK    2  A    between atoms: O_8  and  C_12 
REMARK    3  A    between atoms: C_9  and  C_10 
REMARK    4  A    between atoms: C_9  and  C_11 
ROOT
HETATM    1  C   UNK N   1      34.891  11.980  14.524  0.00  0.00     0.339 C 
ENDROOT
BRANCH   1   2
HETATM    2  O   UNK N   1      34.481  13.053  13.730  0.00  0.00    -0.339 OA
BRANCH   2   3
HETATM    3  C   UNK N   1      35.637  13.478  13.068  0.00  0.00     0.392 C 
HETATM    4  F   UNK N   1      36.154  14.597  13.695  0.00  0.00    -0.227 F 
ENDBRANCH   2   3
ENDBRANCH   1   2
BRANCH   1   5
HETATM    5  C   UNK N   1      34.942  12.406  16.000  0.00  0.00     0.421 C 
HETATM    6  F   UNK N   1      34.792  11.312  16.827  0.00  0.00    -0.168 F 
HETATM    7  F   UNK N   1      36.167  12.993  16.263  0.00  0.00    -0.168 F 
HETATM    8  F   UNK N   1      33.944  13.326  16.270  0.00  0.00    -0.168 F 
ENDBRANCH   1   5
BRANCH   1   9
HETATM    9  C   UNK N   1      34.004  10.752  14.271  0.00  0.00     0.421 C 
HETATM   10  F   UNK N   1      34.671   9.600  14.642  0.00  0.00    -0.168 F 
HETATM   11  F   UNK N   1      33.707  10.669  12.922  0.00  0.00    -0.168 F 
HETATM   12  F   UNK N   1      32.821  10.846  14.982  0.00  0.00    -0.168 F 
ENDBRANCH   1   9
TORSDOF 4
ENDMDL
MODEL 5
REMARK VINA RESULT:      -4.2      1.445      3.540
REMARK  4 active torsions:
REMARK  status: ('A' for Active; 'I' for Inactive)
REMARK    1  A    between atoms: O_8  and  C_9 
REMARK    2  A    between atoms: O_8  and  C_12 
REMARK    3  A    between atoms: C_9  and  C_10 
REMARK    4  A    between atoms: C_9  and  C_11 
ROOT
HETATM    1  C   UNK N   1      23.090  13.082  10.085  0.00  0.00     0.339 C 
ENDROOT
BRANCH   1   2
HETATM    2  O   UNK N   1      21.941  12.984   9.297  0.00  0.00    -0.339 OA
BRANCH   2   3
HETATM    3  C   UNK N   1      21.116  14.028   9.727  0.00  0.00     0.392 C 
HETATM    4  F   UNK N   1      20.039  13.519  10.428  0.00  0.00    -0.227 F 
ENDBRANCH   2   3
ENDBRANCH   1   2
BRANCH   1   5
HETATM    5  C   UNK N   1      23.143  11.920  11.089  0.00  0.00     0.421 C 
HETATM    6  F   UNK N   1      22.224  12.111  12.102  0.00  0.00    -0.168 F 
HETATM    7  F   UNK N   1      22.839  10.739  10.435  0.00  0.00    -0.168 F 
HETATM    8  F   UNK N   1      24.410  11.812  11.634  0.00  0.00    -0.168 F 
ENDBRANCH   1   5
BRANCH   1   9
HETATM    9  C   UNK N   1      24.343  13.185   9.200  0.00  0.00     0.421 C 
HETATM   10  F   UNK N   1      24.088  13.994   8.109  0.00  0.00    -0.168 F 
HETATM   11  F   UNK N   1      24.684  11.925   8.739  0.00  0.00    -0.168 F 
HETATM   12  F   UNK N   1      25.408  13.701   9.915  0.00  0.00    -0.168 F 
ENDBRANCH   1   9
TORSDOF 4
ENDMDL
MODEL 6
REMARK VINA RESULT:      -4.2     19.495     20.931
REMARK  4 active torsions:
REMARK  status: ('A' for Active; 'I' for Inactive)
REMARK    1  A    between atoms: O_8  and  C_9 
REMARK    2  A    between atoms: O_8  and  C_12 
REMARK    3  A    between atoms: C_9  and  C_10 
REMARK    4  A    between atoms: C_9  and  C_11 
ROOT
HETATM    1  C   UNK N   1      25.986  25.908  -5.155  0.00  0.00     0.339 C 
ENDROOT
BRANCH   1   2
HETATM    2  O   UNK N   1      27.021  25.259  -5.832  0.00  0.00    -0.339 OA
BRANCH   2   3
HETATM    3  C   UNK N   1      26.578  23.943  -5.996  0.00  0.00     0.392 C 
HETATM    4  F   UNK N   1      25.365  23.771  -5.354  0.00  0.00    -0.227 F 
ENDBRANCH   2   3
ENDBRANCH   1   2
BRANCH   1   5
HETATM    5  C   UNK N   1      26.475  26.386  -3.779  0.00  0.00     0.421 C 
HETATM    6  F   UNK N   1      26.634  25.316  -2.920  0.00  0.00    -0.168 F 
HETATM    7  F   UNK N   1      27.696  27.020  -3.924  0.00  0.00    -0.168 F 
HETATM    8  F   UNK N   1      25.573  27.282  -3.232  0.00  0.00    -0.168 F 
ENDBRANCH   1   5
BRANCH   1   9
HETATM    9  C   UNK N   1      25.397  27.033  -6.021  0.00  0.00     0.421 C 
HETATM   10  F   UNK N   1      26.113  28.200  -5.833  0.00  0.00    -0.168 F 
HETATM   11  F   UNK N   1      24.084  27.260  -5.648  0.00  0.00    -0.168 F 
HETATM   12  F   UNK N   1      25.426  26.688  -7.360  0.00  0.00    -0.168 F 
ENDBRANCH   1   9
TORSDOF 4
ENDMDL
MODEL 7
REMARK VINA RESULT:      -4.1      1.440      3.576
REMARK  4 active torsions:
REMARK  status: ('A' for Active; 'I' for Inactive)
REMARK    1  A    between atoms: O_8  and  C_9 
REMARK    2  A    between atoms: O_8  and  C_12 
REMARK    3  A    between atoms: C_9  and  C_10 
REMARK    4  A    between atoms: C_9  and  C_11 
ROOT
HETATM    1  C   UNK N   1      23.263  12.949  10.105  0.00  0.00     0.339 C 
ENDROOT
BRANCH   1   2
HETATM    2  O   UNK N   1      23.867  12.520   8.921  0.00  0.00    -0.339 OA
BRANCH   2   3
HETATM    3  C   UNK N   1      24.744  13.551   8.567  0.00  0.00     0.392 C 
HETATM    4  F   UNK N   1      25.576  13.847   9.631  0.00  0.00    -0.227 F 
ENDBRANCH   2   3
ENDBRANCH   1   2
BRANCH   1   5
HETATM    5  C   UNK N   1      21.779  13.258   9.857  0.00  0.00     0.421 C 
HETATM    6  F   UNK N   1      21.328  12.608   8.726  0.00  0.00    -0.168 F 
HETATM    7  F   UNK N   1      21.036  12.824  10.941  0.00  0.00    -0.168 F 
HETATM    8  F   UNK N   1      21.589  14.621   9.708  0.00  0.00    -0.168 F 
ENDBRANCH   1   5
BRANCH   1   9
HETATM    9  C   UNK N   1      23.498  11.928  11.230  0.00  0.00     0.421 C 
HETATM   10  F   UNK N   1      22.887  10.728  10.916  0.00  0.00    -0.168 F 
HETATM   11  F   UNK N   1      22.946  12.404  12.405  0.00  0.00    -0.168 F 
HETATM   12  F   UNK N   1      24.850  11.716  11.427  0.00  0.00    -0.168 F 
ENDBRANCH   1   9
TORSDOF 4
ENDMDL
MODEL 8
REMARK VINA RESULT:      -4.0     13.382     14.423
REMARK  4 active torsions:
REMARK  status: ('A' for Active; 'I' for Inactive)
REMARK    1  A    between atoms: O_8  and  C_9 
REMARK    2  A    between atoms: O_8  and  C_12 
REMARK    3  A    between atoms: C_9  and  C_10 
REMARK    4  A    between atoms: C_9  and  C_11 
ROOT
HETATM    1  C   UNK N   1      35.984  12.396  16.056  0.00  0.00     0.339 C 
ENDROOT
BRANCH   1   2
HETATM    2  O   UNK N   1      35.268  11.361  15.451  0.00  0.00    -0.339 OA
BRANCH   2   3
HETATM    3  C   UNK N   1      35.809  10.186  15.983  0.00  0.00     0.392 C 
HETATM    4  F   UNK N   1      37.002  10.464  16.623  0.00  0.00    -0.227 F 
ENDBRANCH   2   3
ENDBRANCH   1   2
BRANCH   1   5
HETATM    5  C   UNK N   1      36.614  13.299  14.983  0.00  0.00     0.421 C 
HETATM    6  F   UNK N   1      37.517  14.174  15.553  0.00  0.00    -0.168 F 
HETATM    7  F   UNK N   1      37.282  12.513  14.062  0.00  0.00    -0.168 F 
HETATM    8  F   UNK N   1      35.632  14.018  14.323  0.00  0.00    -0.168 F 
ENDBRANCH   1   5
BRANCH   1   9
HETATM    9  C   UNK N   1      35.095  13.156  17.053  0.00  0.00     0.421 C 
HETATM   10  F   UNK N   1      35.718  14.325  17.448  0.00  0.00    -0.168 F 
HETATM   11  F   UNK N   1      34.885  12.372  18.173  0.00  0.00    -0.168 F 
HETATM   12  F   UNK N   1      33.871  13.459  16.486  0.00  0.00    -0.168 F 
ENDBRANCH   1   9
TORSDOF 4
ENDMDL
MODEL 9
REMARK VINA RESULT:      -4.0     23.523     24.950
REMARK  4 active torsions:
REMARK  status: ('A' for Active; 'I' for Inactive)
REMARK    1  A    between atoms: O_8  and  C_9 
REMARK    2  A    between atoms: O_8  and  C_12 
REMARK    3  A    between atoms: C_9  and  C_10 
REMARK    4  A    between atoms: C_9  and  C_11 
ROOT
HETATM    1  C   UNK N   1      44.262  22.903   2.726  0.00  0.00     0.339 C 
ENDROOT
BRANCH   1   2
HETATM    2  O   UNK N   1      44.421  24.243   3.085  0.00  0.00    -0.339 OA
BRANCH   2   3
HETATM    3  C   UNK N   1      45.536  24.683   2.365  0.00  0.00     0.392 C 
HETATM    4  F   UNK N   1      45.782  26.015   2.644  0.00  0.00    -0.227 F 
ENDBRANCH   2   3
ENDBRANCH   1   2
BRANCH   1   5
HETATM    5  C   UNK N   1      44.403  22.005   3.964  0.00  0.00     0.421 C 
HETATM    6  F   UNK N   1      43.925  20.736   3.702  0.00  0.00    -0.168 F 
HETATM    7  F   UNK N   1      45.739  21.910   4.310  0.00  0.00    -0.168 F 
HETATM    8  F   UNK N   1      43.707  22.545   5.032  0.00  0.00    -0.168 F 
ENDBRANCH   1   5
BRANCH   1   9
HETATM    9  C   UNK N   1      42.940  22.701   1.968  0.00  0.00     0.421 C 
HETATM   10  F   UNK N   1      43.051  21.634   1.097  0.00  0.00    -0.168 F 
HETATM   11  F   UNK N   1      42.654  23.838   1.233  0.00  0.00    -0.168 F 
HETATM   12  F   UNK N   1      41.901  22.467   2.850  0.00  0.00    -0.168 F 
ENDBRANCH   1   9
TORSDOF 4
ENDMDL
