REMARK  4 active torsions:
REMARK  status: ('A' for Active; 'I' for Inactive)
REMARK    1  A    between atoms: O_8  and  C_9 
REMARK    2  A    between atoms: O_8  and  C_12 
REMARK    3  A    between atoms: C_9  and  C_10 
REMARK    4  A    between atoms: C_9  and  C_11 
ROOT
HETATM    1  C   UNK N   1       3.054   0.293  -0.179  0.00  0.00     0.339 C 
ENDROOT
BRANCH   1   2
HETATM    2  O   UNK N   1       3.084  -0.669   0.833  0.00  0.00    -0.339 OA
BRANCH   2   3
HETATM    3  C   UNK N   1       3.317  -1.881   0.175  0.00  0.00     0.392 C 
HETATM    4  F   UNK N   1       2.122  -2.549  -0.018  0.00  0.00    -0.227 F 
ENDBRANCH   2   3
ENDBRANCH   1   2
BRANCH   1   5
HETATM    5  C   UNK N   1       1.706   1.031  -0.165  0.00  0.00     0.421 C 
HETATM    6  F   UNK N   1       1.651   1.963  -1.182  0.00  0.00    -0.168 F 
HETATM    7  F   UNK N   1       0.684   0.117  -0.349  0.00  0.00    -0.168 F 
HETATM    8  F   UNK N   1       1.518   1.667   1.050  0.00  0.00    -0.168 F 
ENDBRANCH   1   5
BRANCH   1   9
HETATM    9  C   UNK N   1       4.267   1.230  -0.068  0.00  0.00     0.421 C 
HETATM   10  F   UNK N   1       4.326   2.062  -1.170  0.00  0.00    -0.168 F 
HETATM   11  F   UNK N   1       5.427   0.477  -0.026  0.00  0.00    -0.168 F 
HETATM   12  F   UNK N   1       4.192   1.996   1.081  0.00  0.00    -0.168 F 
ENDBRANCH   1   9
TORSDOF 4
