REMARK  6 active torsions:
REMARK  status: ('A' for Active; 'I' for Inactive)
REMARK    1  A    between atoms: O_2  and  C_4 
REMARK    2  A    between atoms: O_2  and  C_7 
REMARK    3  A    between atoms: N_3  and  C_8 
REMARK    4  A    between atoms: C_4  and  C_5 
REMARK    5  A    between atoms: C_4  and  C_6 
REMARK    6  A    between atoms: C_7  and  C_8 
ROOT
HETATM    1  C   UNK N   1       3.605   0.379   0.263  0.00  0.00     0.187 C 
ENDROOT
BRANCH   1   2
HETATM    2  O   UNK N   1       2.701   0.983  -0.623  0.00  0.00    -0.375 OA
BRANCH   2   3
HETATM    3  C   UNK N   1       1.874   1.767   0.188  0.00  0.00     0.199 C 
BRANCH   3   4
HETATM    4  C   UNK N   1       1.434   3.004  -0.575  0.00  0.00     0.297 C 
BRANCH   4   5
HETATM    5  N   UNK N   1       1.417   4.154   0.313  0.00  0.00     0.082 N 
HETATM    6  C   UNK N   1       0.299   4.989  -0.085  0.00  0.00     0.309 C 
HETATM    7  C   UNK N   1       2.625   4.916   0.049  0.00  0.00     0.309 C 
ENDBRANCH   4   5
ENDBRANCH   3   4
ENDBRANCH   2   3
ENDBRANCH   1   2
BRANCH   1   8
HETATM    8  C   UNK N   1       3.458  -1.133   0.173  0.00  0.00    -0.025 A 
HETATM    9  C   UNK N   1       4.538  -1.993  -0.093  0.00  0.00     0.011 A 
HETATM   10  C   UNK N   1       4.350  -3.374  -0.172  0.00  0.00     0.019 A 
HETATM   11  C   UNK N   1       3.078  -3.917   0.008  0.00  0.00     0.011 A 
HETATM   12 Br   UNK N   1       2.822  -5.801  -0.108  0.00  0.00    -0.051 Br
HETATM   13  C   UNK N   1       1.993  -3.077   0.272  0.00  0.00     0.019 A 
HETATM   14  C   UNK N   1       2.184  -1.694   0.357  0.00  0.00     0.011 A 
ENDBRANCH   1   8
BRANCH   1  15
HETATM   15  C   UNK N   1       4.974   1.033   0.124  0.00  0.00    -0.025 A 
HETATM   16  C   UNK N   1       5.065   2.426   0.254  0.00  0.00     0.010 A 
HETATM   17  C   UNK N   1       6.295   3.078   0.132  0.00  0.00     0.001 A 
HETATM   18  C   UNK N   1       7.455   2.340  -0.114  0.00  0.00     0.000 A 
HETATM   19  C   UNK N   1       7.382   0.952  -0.239  0.00  0.00     0.001 A 
HETATM   20  C   UNK N   1       6.150   0.303  -0.123  0.00  0.00     0.010 A 
ENDBRANCH   1  15
TORSDOF 6
