MODEL 1
REMARK VINA RESULT:      -5.6      0.000      0.000
REMARK  6 active torsions:
REMARK  status: ('A' for Active; 'I' for Inactive)
REMARK    1  A    between atoms: O_2  and  C_4 
REMARK    2  A    between atoms: O_2  and  C_7 
REMARK    3  A    between atoms: N_3  and  C_8 
REMARK    4  A    between atoms: C_4  and  C_5 
REMARK    5  A    between atoms: C_4  and  C_6 
REMARK    6  A    between atoms: C_7  and  C_8 
ROOT
HETATM    1  C   UNK N   1      32.535  16.892   7.581  0.00  0.00     0.187 C 
ENDROOT
BRANCH   1   2
HETATM    2  O   UNK N   1      33.249  17.856   6.854  0.00  0.00    -0.375 OA
BRANCH   2   3
HETATM    3  C   UNK N   1      33.735  17.174   5.734  0.00  0.00     0.199 C 
BRANCH   3   4
HETATM    4  C   UNK N   1      32.860  17.477   4.531  0.00  0.00     0.297 C 
BRANCH   4   5
HETATM    5  N   UNK N   1      32.364  16.239   3.954  0.00  0.00     0.082 N 
HETATM    6  C   UNK N   1      33.384  15.749   3.046  0.00  0.00     0.309 C 
HETATM    7  C   UNK N   1      31.208  16.578   3.143  0.00  0.00     0.309 C 
ENDBRANCH   4   5
ENDBRANCH   3   4
ENDBRANCH   2   3
ENDBRANCH   1   2
BRANCH   1   8
HETATM    8  C   UNK N   1      33.384  16.419   8.752  0.00  0.00    -0.025 A 
HETATM    9  C   UNK N   1      34.463  17.160   9.264  0.00  0.00     0.011 A 
HETATM   10  C   UNK N   1      35.216  16.679  10.336  0.00  0.00     0.019 A 
HETATM   11  C   UNK N   1      34.906  15.447  10.910  0.00  0.00     0.011 A 
HETATM   12 Br   UNK N   1      35.940  14.789  12.369  0.00  0.00    -0.051 Br
HETATM   13  C   UNK N   1      33.838  14.696  10.413  0.00  0.00     0.019 A 
HETATM   14  C   UNK N   1      33.080  15.182   9.343  0.00  0.00     0.011 A 
ENDBRANCH   1   8
BRANCH   1  15
HETATM   15  C   UNK N   1      31.106  17.372   7.805  0.00  0.00    -0.025 A 
HETATM   16  C   UNK N   1      30.841  18.182   8.917  0.00  0.00     0.010 A 
HETATM   17  C   UNK N   1      29.548  18.647   9.173  0.00  0.00     0.001 A 
HETATM   18  C   UNK N   1      28.503  18.313   8.309  0.00  0.00     0.000 A 
HETATM   19  C   UNK N   1      28.752  17.512   7.194  0.00  0.00     0.001 A 
HETATM   20  C   UNK N   1      30.044  17.043   6.944  0.00  0.00     0.010 A 
ENDBRANCH   1  15
TORSDOF 6
ENDMDL
MODEL 2
REMARK VINA RESULT:      -5.6      6.453      9.806
REMARK  6 active torsions:
REMARK  status: ('A' for Active; 'I' for Inactive)
REMARK    1  A    between atoms: O_2  and  C_4 
REMARK    2  A    between atoms: O_2  and  C_7 
REMARK    3  A    between atoms: N_3  and  C_8 
REMARK    4  A    between atoms: C_4  and  C_5 
REMARK    5  A    between atoms: C_4  and  C_6 
REMARK    6  A    between atoms: C_7  and  C_8 
ROOT
HETATM    1  C   UNK N   1      35.593  12.650  15.111  0.00  0.00     0.187 C 
ENDROOT
BRANCH   1   2
HETATM    2  O   UNK N   1      36.796  13.289  14.778  0.00  0.00    -0.375 OA
BRANCH   2   3
HETATM    3  C   UNK N   1      36.409  14.468  14.132  0.00  0.00     0.199 C 
BRANCH   3   4
HETATM    4  C   UNK N   1      36.481  14.273  12.628  0.00  0.00     0.297 C 
BRANCH   4   5
HETATM    5  N   UNK N   1      35.267  14.772  12.005  0.00  0.00     0.082 N 
HETATM    6  C   UNK N   1      34.808  13.752  11.080  0.00  0.00     0.309 C 
HETATM    7  C   UNK N   1      35.639  15.926  11.206  0.00  0.00     0.309 C 
ENDBRANCH   4   5
ENDBRANCH   3   4
ENDBRANCH   2   3
ENDBRANCH   1   2
BRANCH   1   8
HETATM    8  C   UNK N   1      35.383  11.464  14.180  0.00  0.00    -0.025 A 
HETATM    9  C   UNK N   1      36.438  10.655  13.722  0.00  0.00     0.011 A 
HETATM   10  C   UNK N   1      36.195   9.581  12.863  0.00  0.00     0.019 A 
HETATM   11  C   UNK N   1      34.894   9.303  12.445  0.00  0.00     0.011 A 
HETATM   12 Br   UNK N   1      34.564   7.842  11.267  0.00  0.00    -0.051 Br
HETATM   13  C   UNK N   1      33.834  10.097  12.890  0.00  0.00     0.019 A 
HETATM   14  C   UNK N   1      34.078  11.169  13.755  0.00  0.00     0.011 A 
ENDBRANCH   1   8
BRANCH   1  15
HETATM   15  C   UNK N   1      35.506  12.473  16.621  0.00  0.00    -0.025 A 
HETATM   16  C   UNK N   1      35.743  11.200  17.160  0.00  0.00     0.010 A 
HETATM   17  C   UNK N   1      35.673  10.981  18.538  0.00  0.00     0.001 A 
HETATM   18  C   UNK N   1      35.373  12.039  19.399  0.00  0.00     0.000 A 
HETATM   19  C   UNK N   1      35.141  13.313  18.879  0.00  0.00     0.001 A 
HETATM   20  C   UNK N   1      35.205  13.528  17.500  0.00  0.00     0.010 A 
ENDBRANCH   1  15
TORSDOF 6
ENDMDL
MODEL 3
REMARK VINA RESULT:      -5.5     13.154     16.240
REMARK  6 active torsions:
REMARK  status: ('A' for Active; 'I' for Inactive)
REMARK    1  A    between atoms: O_2  and  C_4 
REMARK    2  A    between atoms: O_2  and  C_7 
REMARK    3  A    between atoms: N_3  and  C_8 
REMARK    4  A    between atoms: C_4  and  C_5 
REMARK    5  A    between atoms: C_4  and  C_6 
REMARK    6  A    between atoms: C_7  and  C_8 
ROOT
HETATM    1  C   UNK N   1      27.998  24.895  -4.586  0.00  0.00     0.187 C 
ENDROOT
BRANCH   1   2
HETATM    2  O   UNK N   1      28.122  24.281  -3.331  0.00  0.00    -0.375 OA
BRANCH   2   3
HETATM    3  C   UNK N   1      29.500  24.185  -3.113  0.00  0.00     0.199 C 
BRANCH   3   4
HETATM    4  C   UNK N   1      29.812  22.898  -2.371  0.00  0.00     0.297 C 
BRANCH   4   5
HETATM    5  N   UNK N   1      30.992  22.271  -2.942  0.00  0.00     0.082 N 
HETATM    6  C   UNK N   1      31.555  23.204  -3.900  0.00  0.00     0.309 C 
HETATM    7  C   UNK N   1      30.540  21.115  -3.696  0.00  0.00     0.309 C 
ENDBRANCH   4   5
ENDBRANCH   3   4
ENDBRANCH   2   3
ENDBRANCH   1   2
BRANCH   1   8
HETATM    8  C   UNK N   1      27.493  23.874  -5.595  0.00  0.00    -0.025 A 
HETATM    9  C   UNK N   1      28.352  23.101  -6.397  0.00  0.00     0.011 A 
HETATM   10  C   UNK N   1      27.839  22.182  -7.313  0.00  0.00     0.019 A 
HETATM   11  C   UNK N   1      26.460  22.024  -7.447  0.00  0.00     0.011 A 
HETATM   12 Br   UNK N   1      25.762  20.774  -8.704  0.00  0.00    -0.051 Br
HETATM   13  C   UNK N   1      25.592  22.785  -6.659  0.00  0.00     0.019 A 
HETATM   14  C   UNK N   1      26.107  23.701  -5.737  0.00  0.00     0.011 A 
ENDBRANCH   1   8
BRANCH   1  15
HETATM   15  C   UNK N   1      27.299  26.241  -4.431  0.00  0.00    -0.025 A 
HETATM   16  C   UNK N   1      27.531  27.229  -5.398  0.00  0.00     0.010 A 
HETATM   17  C   UNK N   1      26.920  28.482  -5.303  0.00  0.00     0.001 A 
HETATM   18  C   UNK N   1      26.058  28.759  -4.240  0.00  0.00     0.000 A 
HETATM   19  C   UNK N   1      25.812  27.784  -3.273  0.00  0.00     0.001 A 
HETATM   20  C   UNK N   1      26.429  26.534  -3.366  0.00  0.00     0.010 A 
ENDBRANCH   1  15
TORSDOF 6
ENDMDL
MODEL 4
REMARK VINA RESULT:      -5.4      6.158      9.367
REMARK  6 active torsions:
REMARK  status: ('A' for Active; 'I' for Inactive)
REMARK    1  A    between atoms: O_2  and  C_4 
REMARK    2  A    between atoms: O_2  and  C_7 
REMARK    3  A    between atoms: N_3  and  C_8 
REMARK    4  A    between atoms: C_4  and  C_5 
REMARK    5  A    between atoms: C_4  and  C_6 
REMARK    6  A    between atoms: C_7  and  C_8 
ROOT
HETATM    1  C   UNK N   1      36.223  12.827  14.272  0.00  0.00     0.187 C 
ENDROOT
BRANCH   1   2
HETATM    2  O   UNK N   1      36.913  13.427  13.208  0.00  0.00    -0.375 OA
BRANCH   2   3
HETATM    3  C   UNK N   1      35.938  13.652  12.231  0.00  0.00     0.199 C 
BRANCH   3   4
HETATM    4  C   UNK N   1      35.636  15.138  12.144  0.00  0.00     0.297 C 
BRANCH   4   5
HETATM    5  N   UNK N   1      36.237  15.697  10.945  0.00  0.00     0.082 N 
HETATM    6  C   UNK N   1      35.331  16.713  10.443  0.00  0.00     0.309 C 
HETATM    7  C   UNK N   1      36.273  14.638   9.951  0.00  0.00     0.309 C 
ENDBRANCH   4   5
ENDBRANCH   3   4
ENDBRANCH   2   3
ENDBRANCH   1   2
BRANCH   1   8
HETATM    8  C   UNK N   1      36.611  11.358  14.355  0.00  0.00    -0.025 A 
HETATM    9  C   UNK N   1      35.672  10.313  14.298  0.00  0.00     0.011 A 
HETATM   10  C   UNK N   1      36.078   8.981  14.385  0.00  0.00     0.019 A 
HETATM   11  C   UNK N   1      37.429   8.671  14.536  0.00  0.00     0.011 A 
HETATM   12 Br   UNK N   1      37.981   6.852  14.662  0.00  0.00    -0.051 Br
HETATM   13  C   UNK N   1      38.377   9.697  14.595  0.00  0.00     0.019 A 
HETATM   14  C   UNK N   1      37.969  11.032  14.502  0.00  0.00     0.011 A 
ENDBRANCH   1   8
BRANCH   1  15
HETATM   15  C   UNK N   1      36.304  13.720  15.504  0.00  0.00    -0.025 A 
HETATM   16  C   UNK N   1      35.500  13.408  16.609  0.00  0.00     0.010 A 
HETATM   17  C   UNK N   1      35.532  14.195  17.764  0.00  0.00     0.001 A 
HETATM   18  C   UNK N   1      36.380  15.303  17.830  0.00  0.00     0.000 A 
HETATM   19  C   UNK N   1      37.192  15.622  16.741  0.00  0.00     0.001 A 
HETATM   20  C   UNK N   1      37.153  14.838  15.585  0.00  0.00     0.010 A 
ENDBRANCH   1  15
TORSDOF 6
ENDMDL
MODEL 5
REMARK VINA RESULT:      -5.4      3.338      4.756
REMARK  6 active torsions:
REMARK  status: ('A' for Active; 'I' for Inactive)
REMARK    1  A    between atoms: O_2  and  C_4 
REMARK    2  A    between atoms: O_2  and  C_7 
REMARK    3  A    between atoms: N_3  and  C_8 
REMARK    4  A    between atoms: C_4  and  C_5 
REMARK    5  A    between atoms: C_4  and  C_6 
REMARK    6  A    between atoms: C_7  and  C_8 
ROOT
HETATM    1  C   UNK N   1      28.813  17.293   6.011  0.00  0.00     0.187 C 
ENDROOT
BRANCH   1   2
HETATM    2  O   UNK N   1      28.865  16.375   4.952  0.00  0.00    -0.375 OA
BRANCH   2   3
HETATM    3  C   UNK N   1      27.964  15.366   5.308  0.00  0.00     0.199 C 
BRANCH   3   4
HETATM    4  C   UNK N   1      27.555  14.586   4.072  0.00  0.00     0.297 C 
BRANCH   4   5
HETATM    5  N   UNK N   1      27.687  15.423   2.891  0.00  0.00     0.082 N 
HETATM    6  C   UNK N   1      26.347  15.788   2.470  0.00  0.00     0.309 C 
HETATM    7  C   UNK N   1      28.247  14.593   1.839  0.00  0.00     0.309 C 
ENDBRANCH   4   5
ENDBRANCH   3   4
ENDBRANCH   2   3
ENDBRANCH   1   2
BRANCH   1   8
HETATM    8  C   UNK N   1      30.190  17.392   6.653  0.00  0.00    -0.025 A 
HETATM    9  C   UNK N   1      30.380  17.674   8.017  0.00  0.00     0.011 A 
HETATM   10  C   UNK N   1      31.664  17.760   8.558  0.00  0.00     0.019 A 
HETATM   11  C   UNK N   1      32.779  17.574   7.741  0.00  0.00     0.011 A 
HETATM   12 Br   UNK N   1      34.531  17.700   8.478  0.00  0.00    -0.051 Br
HETATM   13  C   UNK N   1      32.609  17.295   6.383  0.00  0.00     0.019 A 
HETATM   14  C   UNK N   1      31.321  17.202   5.844  0.00  0.00     0.011 A 
ENDBRANCH   1   8
BRANCH   1  15
HETATM   15  C   UNK N   1      28.075  18.549   5.566  0.00  0.00    -0.025 A 
HETATM   16  C   UNK N   1      27.675  19.471   6.544  0.00  0.00     0.010 A 
HETATM   17  C   UNK N   1      26.991  20.638   6.192  0.00  0.00     0.001 A 
HETATM   18  C   UNK N   1      26.706  20.902   4.850  0.00  0.00     0.000 A 
HETATM   19  C   UNK N   1      27.103  19.998   3.864  0.00  0.00     0.001 A 
HETATM   20  C   UNK N   1      27.781  18.828   4.219  0.00  0.00     0.010 A 
ENDBRANCH   1  15
TORSDOF 6
ENDMDL
MODEL 6
REMARK VINA RESULT:      -5.3     14.101     16.766
REMARK  6 active torsions:
REMARK  status: ('A' for Active; 'I' for Inactive)
REMARK    1  A    between atoms: O_2  and  C_4 
REMARK    2  A    between atoms: O_2  and  C_7 
REMARK    3  A    between atoms: N_3  and  C_8 
REMARK    4  A    between atoms: C_4  and  C_5 
REMARK    5  A    between atoms: C_4  and  C_6 
REMARK    6  A    between atoms: C_7  and  C_8 
ROOT
HETATM    1  C   UNK N   1      26.759  26.501  -5.214  0.00  0.00     0.187 C 
ENDROOT
BRANCH   1   2
HETATM    2  O   UNK N   1      26.705  26.249  -6.593  0.00  0.00    -0.375 OA
BRANCH   2   3
HETATM    3  C   UNK N   1      25.554  25.473  -6.770  0.00  0.00     0.199 C 
BRANCH   3   4
HETATM    4  C   UNK N   1      25.887  24.250  -7.605  0.00  0.00     0.297 C 
BRANCH   4   5
HETATM    5  N   UNK N   1      26.078  23.097  -6.741  0.00  0.00     0.082 N 
HETATM    6  C   UNK N   1      27.465  22.689  -6.868  0.00  0.00     0.309 C 
HETATM    7  C   UNK N   1      25.272  22.018  -7.284  0.00  0.00     0.309 C 
ENDBRANCH   4   5
ENDBRANCH   3   4
ENDBRANCH   2   3
ENDBRANCH   1   2
BRANCH   1   8
HETATM    8  C   UNK N   1      27.710  25.508  -4.562  0.00  0.00    -0.025 A 
HETATM    9  C   UNK N   1      27.300  24.585  -3.584  0.00  0.00     0.011 A 
HETATM   10  C   UNK N   1      28.213  23.698  -3.011  0.00  0.00     0.019 A 
HETATM   11  C   UNK N   1      29.552  23.723  -3.402  0.00  0.00     0.011 A 
HETATM   12 Br   UNK N   1      30.798  22.517  -2.613  0.00  0.00    -0.051 Br
HETATM   13  C   UNK N   1      29.976  24.635  -4.372  0.00  0.00     0.019 A 
HETATM   14  C   UNK N   1      29.059  25.519  -4.950  0.00  0.00     0.011 A 
ENDBRANCH   1   8
BRANCH   1  15
HETATM   15  C   UNK N   1      26.917  27.997  -4.972  0.00  0.00    -0.025 A 
HETATM   16  C   UNK N   1      26.238  28.573  -3.889  0.00  0.00     0.010 A 
HETATM   17  C   UNK N   1      26.344  29.941  -3.623  0.00  0.00     0.001 A 
HETATM   18  C   UNK N   1      27.142  30.750  -4.435  0.00  0.00     0.000 A 
HETATM   19  C   UNK N   1      27.830  30.190  -5.513  0.00  0.00     0.001 A 
HETATM   20  C   UNK N   1      27.717  28.823  -5.781  0.00  0.00     0.010 A 
ENDBRANCH   1  15
TORSDOF 6
ENDMDL
MODEL 7
REMARK VINA RESULT:      -5.3     13.608     16.653
REMARK  6 active torsions:
REMARK  status: ('A' for Active; 'I' for Inactive)
REMARK    1  A    between atoms: O_2  and  C_4 
REMARK    2  A    between atoms: O_2  and  C_7 
REMARK    3  A    between atoms: N_3  and  C_8 
REMARK    4  A    between atoms: C_4  and  C_5 
REMARK    5  A    between atoms: C_4  and  C_6 
REMARK    6  A    between atoms: C_7  and  C_8 
ROOT
HETATM    1  C   UNK N   1      27.461  25.009  -4.775  0.00  0.00     0.187 C 
ENDROOT
BRANCH   1   2
HETATM    2  O   UNK N   1      26.263  24.298  -4.618  0.00  0.00    -0.375 OA
BRANCH   2   3
HETATM    3  C   UNK N   1      25.731  24.202  -5.907  0.00  0.00     0.199 C 
BRANCH   3   4
HETATM    4  C   UNK N   1      25.652  22.743  -6.321  0.00  0.00     0.297 C 
BRANCH   4   5
HETATM    5  N   UNK N   1      26.168  22.581  -7.669  0.00  0.00     0.082 N 
HETATM    6  C   UNK N   1      27.611  22.469  -7.568  0.00  0.00     0.309 C 
HETATM    7  C   UNK N   1      25.892  23.815  -8.383  0.00  0.00     0.309 C 
ENDBRANCH   4   5
ENDBRANCH   3   4
ENDBRANCH   2   3
ENDBRANCH   1   2
BRANCH   1   8
HETATM    8  C   UNK N   1      27.190  26.494  -4.579  0.00  0.00    -0.025 A 
HETATM    9  C   UNK N   1      27.653  27.481  -5.468  0.00  0.00     0.011 A 
HETATM   10  C   UNK N   1      27.383  28.831  -5.240  0.00  0.00     0.019 A 
HETATM   11  C   UNK N   1      26.651  29.218  -4.117  0.00  0.00     0.011 A 
HETATM   12 Br   UNK N   1      26.291  31.062  -3.804  0.00  0.00    -0.051 Br
HETATM   13  C   UNK N   1      26.185  28.250  -3.223  0.00  0.00     0.019 A 
HETATM   14  C   UNK N   1      26.450  26.897  -3.456  0.00  0.00     0.011 A 
ENDBRANCH   1   8
BRANCH   1  15
HETATM   15  C   UNK N   1      28.575  24.317  -4.000  0.00  0.00    -0.025 A 
HETATM   16  C   UNK N   1      28.236  23.595  -2.846  0.00  0.00     0.010 A 
HETATM   17  C   UNK N   1      29.218  22.944  -2.095  0.00  0.00     0.001 A 
HETATM   18  C   UNK N   1      30.555  23.000  -2.495  0.00  0.00     0.000 A 
HETATM   19  C   UNK N   1      30.907  23.709  -3.645  0.00  0.00     0.001 A 
HETATM   20  C   UNK N   1      29.924  24.364  -4.391  0.00  0.00     0.010 A 
ENDBRANCH   1  15
TORSDOF 6
ENDMDL
MODEL 8
REMARK VINA RESULT:      -5.3      4.371      7.509
REMARK  6 active torsions:
REMARK  status: ('A' for Active; 'I' for Inactive)
REMARK    1  A    between atoms: O_2  and  C_4 
REMARK    2  A    between atoms: O_2  and  C_7 
REMARK    3  A    between atoms: N_3  and  C_8 
REMARK    4  A    between atoms: C_4  and  C_5 
REMARK    5  A    between atoms: C_4  and  C_6 
REMARK    6  A    between atoms: C_7  and  C_8 
ROOT
HETATM    1  C   UNK N   1      29.359  17.164   5.398  0.00  0.00     0.187 C 
ENDROOT
BRANCH   1   2
HETATM    2  O   UNK N   1      29.784  17.836   6.553  0.00  0.00    -0.375 OA
BRANCH   2   3
HETATM    3  C   UNK N   1      30.001  16.826   7.496  0.00  0.00     0.199 C 
BRANCH   3   4
HETATM    4  C   UNK N   1      31.230  17.156   8.325  0.00  0.00     0.297 C 
BRANCH   4   5
HETATM    5  N   UNK N   1      32.399  16.504   7.760  0.00  0.00     0.082 N 
HETATM    6  C   UNK N   1      32.049  15.114   7.533  0.00  0.00     0.309 C 
HETATM    7  C   UNK N   1      33.431  16.516   8.782  0.00  0.00     0.309 C 
ENDBRANCH   4   5
ENDBRANCH   3   4
ENDBRANCH   2   3
ENDBRANCH   1   2
BRANCH   1   8
HETATM    8  C   UNK N   1      28.212  17.937   4.764  0.00  0.00    -0.025 A 
HETATM    9  C   UNK N   1      27.106  17.311   4.163  0.00  0.00     0.011 A 
HETATM   10  C   UNK N   1      26.081  18.065   3.589  0.00  0.00     0.019 A 
HETATM   11  C   UNK N   1      26.149  19.458   3.601  0.00  0.00     0.011 A 
HETATM   12 Br   UNK N   1      24.754  20.486   2.810  0.00  0.00    -0.051 Br
HETATM   13  C   UNK N   1      27.241  20.097   4.193  0.00  0.00     0.019 A 
HETATM   14  C   UNK N   1      28.264  19.340   4.774  0.00  0.00     0.011 A 
ENDBRANCH   1   8
BRANCH   1  15
HETATM   15  C   UNK N   1      30.569  16.755   4.568  0.00  0.00    -0.025 A 
HETATM   16  C   UNK N   1      31.599  17.688   4.385  0.00  0.00     0.010 A 
HETATM   17  C   UNK N   1      32.730  17.367   3.629  0.00  0.00     0.001 A 
HETATM   18  C   UNK N   1      32.848  16.100   3.052  0.00  0.00     0.000 A 
HETATM   19  C   UNK N   1      31.834  15.158   3.231  0.00  0.00     0.001 A 
HETATM   20  C   UNK N   1      30.702  15.484   3.982  0.00  0.00     0.010 A 
ENDBRANCH   1  15
TORSDOF 6
ENDMDL
MODEL 9
REMARK VINA RESULT:      -5.2      5.759      8.733
REMARK  6 active torsions:
REMARK  status: ('A' for Active; 'I' for Inactive)
REMARK    1  A    between atoms: O_2  and  C_4 
REMARK    2  A    between atoms: O_2  and  C_7 
REMARK    3  A    between atoms: N_3  and  C_8 
REMARK    4  A    between atoms: C_4  and  C_5 
REMARK    5  A    between atoms: C_4  and  C_6 
REMARK    6  A    between atoms: C_7  and  C_8 
ROOT
HETATM    1  C   UNK N   1      35.766  12.455  13.844  0.00  0.00     0.187 C 
ENDROOT
BRANCH   1   2
HETATM    2  O   UNK N   1      35.039  13.603  13.498  0.00  0.00    -0.375 OA
BRANCH   2   3
HETATM    3  C   UNK N   1      35.946  14.406  12.799  0.00  0.00     0.199 C 
BRANCH   3   4
HETATM    4  C   UNK N   1      35.225  15.141  11.684  0.00  0.00     0.297 C 
BRANCH   4   5
HETATM    5  N   UNK N   1      34.578  14.187  10.799  0.00  0.00     0.082 N 
HETATM    6  C   UNK N   1      35.584  13.716   9.864  0.00  0.00     0.309 C 
HETATM    7  C   UNK N   1      33.595  14.921  10.023  0.00  0.00     0.309 C 
ENDBRANCH   4   5
ENDBRANCH   3   4
ENDBRANCH   2   3
ENDBRANCH   1   2
BRANCH   1   8
HETATM    8  C   UNK N   1      35.637  12.213  15.341  0.00  0.00    -0.025 A 
HETATM    9  C   UNK N   1      35.083  13.157  16.224  0.00  0.00     0.011 A 
HETATM   10  C   UNK N   1      34.993  12.890  17.591  0.00  0.00     0.019 A 
HETATM   11  C   UNK N   1      35.460  11.677  18.098  0.00  0.00     0.011 A 
HETATM   12 Br   UNK N   1      35.344  11.318  19.965  0.00  0.00    -0.051 Br
HETATM   13  C   UNK N   1      36.015  10.729  17.235  0.00  0.00     0.019 A 
HETATM   14  C   UNK N   1      36.099  10.995  15.864  0.00  0.00     0.011 A 
ENDBRANCH   1   8
BRANCH   1  15
HETATM   15  C   UNK N   1      35.466  11.339  12.851  0.00  0.00    -0.025 A 
HETATM   16  C   UNK N   1      34.162  10.826  12.797  0.00  0.00     0.010 A 
HETATM   17  C   UNK N   1      33.832   9.800  11.908  0.00  0.00     0.001 A 
HETATM   18  C   UNK N   1      34.804   9.278  11.052  0.00  0.00     0.000 A 
HETATM   19  C   UNK N   1      36.105   9.783  11.088  0.00  0.00     0.001 A 
HETATM   20  C   UNK N   1      36.434  10.804  11.983  0.00  0.00     0.010 A 
ENDBRANCH   1  15
TORSDOF 6
ENDMDL
