MODEL 1
REMARK VINA RESULT:      -7.3      0.000      0.000
REMARK  7 active torsions:
REMARK  status: ('A' for Active; 'I' for Inactive)
REMARK    1  A    between atoms: O_3  and  C_16 
REMARK    2  A    between atoms: O_3  and  C_22 
REMARK    3  A    between atoms: N_5  and  C_12 
REMARK    4  A    between atoms: N_6  and  C_14 
REMARK    5  A    between atoms: C_12  and  C_13 
REMARK    6  A    between atoms: C_13  and  C_15 
REMARK    7  A    between atoms: C_15  and  C_16 
ROOT
HETATM    1  C   UNK N   1      21.569  15.734   2.537  0.00  0.00     0.032 C 
ENDROOT
BRANCH   1   2
HETATM    2  C   UNK N   1      21.266  14.922   3.797  0.00  0.00     0.272 C 
BRANCH   2   3
HETATM    3  N   UNK N   1      22.451  14.656   4.613  0.00  0.00     0.091 N 
HETATM    4  C   UNK N   1      22.289  15.486   5.814  0.00  0.00     0.292 C 
HETATM    5  C   UNK N   1      23.418  15.238   6.815  0.00  0.00     0.153 C 
HETATM    6  N   UNK N   1      23.500  13.822   7.091  0.00  0.00    -0.376 N 
HETATM    7  C   UNK N   1      23.636  12.957   5.940  0.00  0.00     0.153 C 
HETATM    8  C   UNK N   1      22.461  13.238   5.005  0.00  0.00     0.292 C 
BRANCH   6   9
HETATM    9  C   UNK N   1      23.416  13.257   8.414  0.00  0.00     0.053 A 
HETATM   10  C   UNK N   1      22.193  13.110   9.147  0.00  0.00     0.082 A 
HETATM   11 Cl   UNK N   1      20.614  13.580   8.501  0.00  0.00    -0.080 Cl
HETATM   12  C   UNK N   1      22.223  12.540  10.439  0.00  0.00     0.058 A 
HETATM   13 Cl   UNK N   1      20.755  12.315  11.380  0.00  0.00    -0.082 Cl
HETATM   14  C   UNK N   1      23.430  12.126  11.003  0.00  0.00     0.026 A 
HETATM   15  C   UNK N   1      24.618  12.262  10.297  0.00  0.00     0.004 A 
HETATM   16  C   UNK N   1      24.608  12.814   9.019  0.00  0.00     0.031 A 
ENDBRANCH   6   9
ENDBRANCH   2   3
ENDBRANCH   1   2
BRANCH   1  17
HETATM   17  C   UNK N   1      20.679  16.961   2.393  0.00  0.00     0.028 C 
BRANCH  17  18
HETATM   18  C   UNK N   1      20.346  17.625   3.726  0.00  0.00     0.175 C 
BRANCH  18  19
HETATM   19  O   UNK N   1      20.841  18.911   3.779  0.00  0.00    -0.351 OA
BRANCH  19  20
HETATM   20  C   UNK N   1      22.157  19.226   3.713  0.00  0.00     0.070 A 
HETATM   21  C   UNK N   1      23.118  18.587   4.516  0.00  0.00     0.066 A 
HETATM   22  C   UNK N   1      24.469  18.952   4.432  0.00  0.00     0.043 A 
HETATM   23  N   UNK N   1      25.415  18.305   5.258  0.00  0.00    -0.327 N 
HETATM   24  C   UNK N   1      24.863  19.959   3.536  0.00  0.00    -0.031 A 
HETATM   25  C   UNK N   1      26.736  18.609   5.239  0.00  0.00     0.222 A 
HETATM   26  H   UNK N   1      25.103  17.603   5.874  0.00  0.00     0.169 HD
HETATM   27  O   UNK N   1      27.496  18.013   5.983  0.00  0.00    -0.273 OA
HETATM   28  C   UNK N   1      27.297  19.664   4.323  0.00  0.00     0.108 A 
HETATM   29  C   UNK N   1      26.295  20.382   3.412  0.00  0.00     0.050 A 
HETATM   30  C   UNK N   1      23.908  20.590   2.735  0.00  0.00     0.012 A 
HETATM   31  C   UNK N   1      22.563  20.227   2.826  0.00  0.00     0.037 A 
ENDBRANCH  19  20
ENDBRANCH  18  19
ENDBRANCH  17  18
ENDBRANCH   1  17
TORSDOF 7
ENDMDL
MODEL 2
REMARK VINA RESULT:      -7.3     10.420     14.847
REMARK  7 active torsions:
REMARK  status: ('A' for Active; 'I' for Inactive)
REMARK    1  A    between atoms: O_3  and  C_16 
REMARK    2  A    between atoms: O_3  and  C_22 
REMARK    3  A    between atoms: N_5  and  C_12 
REMARK    4  A    between atoms: N_6  and  C_14 
REMARK    5  A    between atoms: C_12  and  C_13 
REMARK    6  A    between atoms: C_13  and  C_15 
REMARK    7  A    between atoms: C_15  and  C_16 
ROOT
HETATM    1  C   UNK N   1      35.027  14.638  11.846  0.00  0.00     0.032 C 
ENDROOT
BRANCH   1   2
HETATM    2  C   UNK N   1      35.350  15.848  10.969  0.00  0.00     0.272 C 
BRANCH   2   3
HETATM    3  N   UNK N   1      34.638  15.843   9.691  0.00  0.00     0.091 N 
HETATM    4  C   UNK N   1      33.372  15.149   9.955  0.00  0.00     0.292 C 
HETATM    5  C   UNK N   1      32.470  15.151   8.720  0.00  0.00     0.153 C 
HETATM    6  N   UNK N   1      32.305  16.510   8.261  0.00  0.00    -0.376 N 
HETATM    7  C   UNK N   1      33.522  17.248   8.008  0.00  0.00     0.153 C 
HETATM    8  C   UNK N   1      34.353  17.229   9.290  0.00  0.00     0.292 C 
BRANCH   6   9
HETATM    9  C   UNK N   1      31.024  17.148   8.088  0.00  0.00     0.053 A 
HETATM   10  C   UNK N   1      30.332  17.231   6.835  0.00  0.00     0.082 A 
HETATM   11 Cl   UNK N   1      30.954  16.525   5.337  0.00  0.00    -0.080 Cl
HETATM   12  C   UNK N   1      29.078  17.880   6.777  0.00  0.00     0.058 A 
HETATM   13 Cl   UNK N   1      28.172  17.996   5.274  0.00  0.00    -0.082 Cl
HETATM   14  C   UNK N   1      28.517  18.440   7.924  0.00  0.00     0.026 A 
HETATM   15  C   UNK N   1      29.180  18.361   9.141  0.00  0.00     0.004 A 
HETATM   16  C   UNK N   1      30.412  17.718   9.221  0.00  0.00     0.031 A 
ENDBRANCH   6   9
ENDBRANCH   2   3
ENDBRANCH   1   2
BRANCH   1  17
HETATM   17  C   UNK N   1      36.170  13.633  11.917  0.00  0.00     0.028 C 
BRANCH  17  18
HETATM   18  C   UNK N   1      35.701  12.182  11.861  0.00  0.00     0.175 C 
BRANCH  18  19
HETATM   19  O   UNK N   1      34.638  11.970  12.715  0.00  0.00    -0.351 OA
BRANCH  19  20
HETATM   20  C   UNK N   1      34.763  11.605  14.014  0.00  0.00     0.070 A 
HETATM   21  C   UNK N   1      34.824  12.551  15.052  0.00  0.00     0.066 A 
HETATM   22  C   UNK N   1      34.972  12.137  16.382  0.00  0.00     0.043 A 
HETATM   23  N   UNK N   1      35.041  13.106  17.408  0.00  0.00    -0.327 N 
HETATM   24  C   UNK N   1      35.056  10.766  16.679  0.00  0.00    -0.031 A 
HETATM   25  C   UNK N   1      35.193  12.782  18.716  0.00  0.00     0.222 A 
HETATM   26  H   UNK N   1      34.978  14.057  17.163  0.00  0.00     0.169 HD
HETATM   27  O   UNK N   1      35.250  13.671  19.547  0.00  0.00    -0.273 OA
HETATM   28  C   UNK N   1      35.291  11.352  19.175  0.00  0.00     0.108 A 
HETATM   29  C   UNK N   1      35.215  10.276  18.086  0.00  0.00     0.050 A 
HETATM   30  C   UNK N   1      34.992   9.827  15.647  0.00  0.00     0.012 A 
HETATM   31  C   UNK N   1      34.850  10.244  14.322  0.00  0.00     0.037 A 
ENDBRANCH  19  20
ENDBRANCH  18  19
ENDBRANCH  17  18
ENDBRANCH   1  17
TORSDOF 7
ENDMDL
MODEL 3
REMARK VINA RESULT:      -7.1     13.797     15.844
REMARK  7 active torsions:
REMARK  status: ('A' for Active; 'I' for Inactive)
REMARK    1  A    between atoms: O_3  and  C_16 
REMARK    2  A    between atoms: O_3  and  C_22 
REMARK    3  A    between atoms: N_5  and  C_12 
REMARK    4  A    between atoms: N_6  and  C_14 
REMARK    5  A    between atoms: C_12  and  C_13 
REMARK    6  A    between atoms: C_13  and  C_15 
REMARK    7  A    between atoms: C_15  and  C_16 
ROOT
HETATM    1  C   UNK N   1      28.658  19.960  -7.908  0.00  0.00     0.032 C 
ENDROOT
BRANCH   1   2
HETATM    2  C   UNK N   1      28.276  20.667  -9.209  0.00  0.00     0.272 C 
BRANCH   2   3
HETATM    3  N   UNK N   1      27.559  21.923  -8.995  0.00  0.00     0.091 N 
HETATM    4  C   UNK N   1      26.535  21.620  -7.988  0.00  0.00     0.292 C 
HETATM    5  C   UNK N   1      25.761  22.877  -7.589  0.00  0.00     0.153 C 
HETATM    6  N   UNK N   1      26.698  23.896  -7.179  0.00  0.00    -0.376 N 
HETATM    7  C   UNK N   1      27.743  24.217  -8.125  0.00  0.00     0.153 C 
HETATM    8  C   UNK N   1      28.489  22.925  -8.450  0.00  0.00     0.292 C 
BRANCH   6   9
HETATM    9  C   UNK N   1      26.657  24.554  -5.897  0.00  0.00     0.053 A 
HETATM   10  C   UNK N   1      26.127  25.870  -5.687  0.00  0.00     0.082 A 
HETATM   11 Cl   UNK N   1      25.419  26.846  -6.981  0.00  0.00    -0.080 Cl
HETATM   12  C   UNK N   1      26.134  26.420  -4.386  0.00  0.00     0.058 A 
HETATM   13 Cl   UNK N   1      25.480  28.020  -4.061  0.00  0.00    -0.082 Cl
HETATM   14  C   UNK N   1      26.657  25.698  -3.313  0.00  0.00     0.026 A 
HETATM   15  C   UNK N   1      27.169  24.423  -3.509  0.00  0.00     0.004 A 
HETATM   16  C   UNK N   1      27.163  23.859  -4.781  0.00  0.00     0.031 A 
ENDBRANCH   6   9
ENDBRANCH   2   3
ENDBRANCH   1   2
BRANCH   1  17
HETATM   17  C   UNK N   1      29.598  18.781  -8.125  0.00  0.00     0.028 C 
BRANCH  17  18
HETATM   18  C   UNK N   1      31.025  19.203  -8.463  0.00  0.00     0.175 C 
BRANCH  18  19
HETATM   19  O   UNK N   1      31.736  19.510  -7.321  0.00  0.00    -0.351 OA
BRANCH  19  20
HETATM   20  C   UNK N   1      31.621  20.675  -6.640  0.00  0.00     0.070 A 
HETATM   21  C   UNK N   1      31.240  20.714  -5.287  0.00  0.00     0.066 A 
HETATM   22  C   UNK N   1      31.114  21.940  -4.620  0.00  0.00     0.043 A 
HETATM   23  N   UNK N   1      30.718  21.955  -3.263  0.00  0.00    -0.327 N 
HETATM   24  C   UNK N   1      31.373  23.137  -5.308  0.00  0.00    -0.031 A 
HETATM   25  C   UNK N   1      30.566  23.101  -2.555  0.00  0.00     0.222 A 
HETATM   26  H   UNK N   1      30.545  21.097  -2.813  0.00  0.00     0.169 HD
HETATM   27  O   UNK N   1      30.218  23.039  -1.389  0.00  0.00    -0.273 OA
HETATM   28  C   UNK N   1      30.817  24.453  -3.167  0.00  0.00     0.108 A 
HETATM   29  C   UNK N   1      31.251  24.470  -4.636  0.00  0.00     0.050 A 
HETATM   30  C   UNK N   1      31.755  23.096  -6.652  0.00  0.00     0.012 A 
HETATM   31  C   UNK N   1      31.875  21.873  -7.313  0.00  0.00     0.037 A 
ENDBRANCH  19  20
ENDBRANCH  18  19
ENDBRANCH  17  18
ENDBRANCH   1  17
TORSDOF 7
ENDMDL
MODEL 4
REMARK VINA RESULT:      -7.1     11.166     15.644
REMARK  7 active torsions:
REMARK  status: ('A' for Active; 'I' for Inactive)
REMARK    1  A    between atoms: O_3  and  C_16 
REMARK    2  A    between atoms: O_3  and  C_22 
REMARK    3  A    between atoms: N_5  and  C_12 
REMARK    4  A    between atoms: N_6  and  C_14 
REMARK    5  A    between atoms: C_12  and  C_13 
REMARK    6  A    between atoms: C_13  and  C_15 
REMARK    7  A    between atoms: C_15  and  C_16 
ROOT
HETATM    1  C   UNK N   1      35.939  14.978  10.453  0.00  0.00     0.032 C 
ENDROOT
BRANCH   1   2
HETATM    2  C   UNK N   1      35.526  16.449  10.507  0.00  0.00     0.272 C 
BRANCH   2   3
HETATM    3  N   UNK N   1      34.354  16.750   9.685  0.00  0.00     0.091 N 
HETATM    4  C   UNK N   1      34.812  17.739   8.702  0.00  0.00     0.292 C 
HETATM    5  C   UNK N   1      33.707  18.081   7.703  0.00  0.00     0.153 C 
HETATM    6  N   UNK N   1      33.211  16.859   7.113  0.00  0.00    -0.376 N 
HETATM    7  C   UNK N   1      32.768  15.841   8.039  0.00  0.00     0.153 C 
HETATM    8  C   UNK N   1      33.930  15.530   8.980  0.00  0.00     0.292 C 
BRANCH   6   9
HETATM    9  C   UNK N   1      33.177  16.609   5.694  0.00  0.00     0.053 A 
HETATM   10  C   UNK N   1      33.892  15.547   5.049  0.00  0.00     0.082 A 
HETATM   11 Cl   UNK N   1      34.889  14.379   5.928  0.00  0.00    -0.080 Cl
HETATM   12  C   UNK N   1      33.787  15.390   3.649  0.00  0.00     0.058 A 
HETATM   13 Cl   UNK N   1      34.623  14.095   2.803  0.00  0.00    -0.082 Cl
HETATM   14  C   UNK N   1      33.001  16.262   2.896  0.00  0.00     0.026 A 
HETATM   15  C   UNK N   1      32.303  17.290   3.514  0.00  0.00     0.004 A 
HETATM   16  C   UNK N   1      32.386  17.456   4.893  0.00  0.00     0.031 A 
ENDBRANCH   6   9
ENDBRANCH   2   3
ENDBRANCH   1   2
BRANCH   1  17
HETATM   17  C   UNK N   1      36.206  14.385  11.831  0.00  0.00     0.028 C 
BRANCH  17  18
HETATM   18  C   UNK N   1      35.492  13.056  12.064  0.00  0.00     0.175 C 
BRANCH  18  19
HETATM   19  O   UNK N   1      34.666  13.122  13.167  0.00  0.00    -0.351 OA
BRANCH  19  20
HETATM   20  C   UNK N   1      34.915  12.502  14.345  0.00  0.00     0.070 A 
HETATM   21  C   UNK N   1      34.825  13.175  15.576  0.00  0.00     0.066 A 
HETATM   22  C   UNK N   1      35.108  12.505  16.774  0.00  0.00     0.043 A 
HETATM   23  N   UNK N   1      35.022  13.205  17.998  0.00  0.00    -0.327 N 
HETATM   24  C   UNK N   1      35.479  11.150  16.742  0.00  0.00    -0.031 A 
HETATM   25  C   UNK N   1      35.289  12.627  19.195  0.00  0.00     0.222 A 
HETATM   26  H   UNK N   1      34.759  14.153  17.982  0.00  0.00     0.169 HD
HETATM   27  O   UNK N   1      35.199  13.293  20.212  0.00  0.00    -0.273 OA
HETATM   28  C   UNK N   1      35.692  11.181  19.308  0.00  0.00     0.108 A 
HETATM   29  C   UNK N   1      35.790  10.393  17.997  0.00  0.00     0.050 A 
HETATM   30  C   UNK N   1      35.564  10.482  15.519  0.00  0.00     0.012 A 
HETATM   31  C   UNK N   1      35.287  11.155  14.328  0.00  0.00     0.037 A 
ENDBRANCH  19  20
ENDBRANCH  18  19
ENDBRANCH  17  18
ENDBRANCH   1  17
TORSDOF 7
ENDMDL
MODEL 5
REMARK VINA RESULT:      -7.1     14.161     16.403
REMARK  7 active torsions:
REMARK  status: ('A' for Active; 'I' for Inactive)
REMARK    1  A    between atoms: O_3  and  C_16 
REMARK    2  A    between atoms: O_3  and  C_22 
REMARK    3  A    between atoms: N_5  and  C_12 
REMARK    4  A    between atoms: N_6  and  C_14 
REMARK    5  A    between atoms: C_12  and  C_13 
REMARK    6  A    between atoms: C_13  and  C_15 
REMARK    7  A    between atoms: C_15  and  C_16 
ROOT
HETATM    1  C   UNK N   1      28.483  29.881  -4.796  0.00  0.00     0.032 C 
ENDROOT
BRANCH   1   2
HETATM    2  C   UNK N   1      28.546  28.862  -5.935  0.00  0.00     0.272 C 
BRANCH   2   3
HETATM    3  N   UNK N   1      29.745  28.025  -5.897  0.00  0.00     0.091 N 
HETATM    4  C   UNK N   1      30.111  27.935  -4.477  0.00  0.00     0.292 C 
HETATM    5  C   UNK N   1      31.304  27.002  -4.271  0.00  0.00     0.153 C 
HETATM    6  N   UNK N   1      31.014  25.725  -4.879  0.00  0.00    -0.376 N 
HETATM    7  C   UNK N   1      30.625  25.759  -6.271  0.00  0.00     0.153 C 
HETATM    8  C   UNK N   1      29.413  26.681  -6.395  0.00  0.00     0.292 C 
BRANCH   6   9
HETATM    9  C   UNK N   1      31.058  24.470  -4.171  0.00  0.00     0.053 A 
HETATM   10  C   UNK N   1      32.136  23.530  -4.271  0.00  0.00     0.082 A 
HETATM   11 Cl   UNK N   1      33.576  23.811  -5.260  0.00  0.00    -0.080 Cl
HETATM   12  C   UNK N   1      32.078  22.328  -3.531  0.00  0.00     0.058 A 
HETATM   13 Cl   UNK N   1      33.378  21.145  -3.596  0.00  0.00    -0.082 Cl
HETATM   14  C   UNK N   1      30.982  22.052  -2.714  0.00  0.00     0.026 A 
HETATM   15  C   UNK N   1      29.937  22.959  -2.610  0.00  0.00     0.004 A 
HETATM   16  C   UNK N   1      29.979  24.153  -3.324  0.00  0.00     0.031 A 
ENDBRANCH   6   9
ENDBRANCH   2   3
ENDBRANCH   1   2
BRANCH   1  17
HETATM   17  C   UNK N   1      27.058  30.225  -4.385  0.00  0.00     0.028 C 
BRANCH  17  18
HETATM   18  C   UNK N   1      26.436  29.195  -3.445  0.00  0.00     0.175 C 
BRANCH  18  19
HETATM   19  O   UNK N   1      25.490  28.433  -4.099  0.00  0.00    -0.351 OA
BRANCH  19  20
HETATM   20  C   UNK N   1      25.719  27.194  -4.596  0.00  0.00     0.070 A 
HETATM   21  C   UNK N   1      25.397  26.850  -5.921  0.00  0.00     0.066 A 
HETATM   22  C   UNK N   1      25.632  25.552  -6.394  0.00  0.00     0.043 A 
HETATM   23  N   UNK N   1      25.290  25.226  -7.725  0.00  0.00    -0.327 N 
HETATM   24  C   UNK N   1      26.197  24.591  -5.538  0.00  0.00    -0.031 A 
HETATM   25  C   UNK N   1      25.480  23.991  -8.251  0.00  0.00     0.222 A 
HETATM   26  H   UNK N   1      24.897  25.924  -8.296  0.00  0.00     0.169 HD
HETATM   27  O   UNK N   1      25.157  23.778  -9.407  0.00  0.00    -0.273 OA
HETATM   28  C   UNK N   1      26.081  22.868  -7.448  0.00  0.00     0.108 A 
HETATM   29  C   UNK N   1      26.466  23.191  -6.001  0.00  0.00     0.050 A 
HETATM   30  C   UNK N   1      26.520  24.935  -4.224  0.00  0.00     0.012 A 
HETATM   31  C   UNK N   1      26.279  26.228  -3.755  0.00  0.00     0.037 A 
ENDBRANCH  19  20
ENDBRANCH  18  19
ENDBRANCH  17  18
ENDBRANCH   1  17
TORSDOF 7
ENDMDL
MODEL 6
REMARK VINA RESULT:      -7.0      9.708     12.096
REMARK  7 active torsions:
REMARK  status: ('A' for Active; 'I' for Inactive)
REMARK    1  A    between atoms: O_3  and  C_16 
REMARK    2  A    between atoms: O_3  and  C_22 
REMARK    3  A    between atoms: N_5  and  C_12 
REMARK    4  A    between atoms: N_6  and  C_14 
REMARK    5  A    between atoms: C_12  and  C_13 
REMARK    6  A    between atoms: C_13  and  C_15 
REMARK    7  A    between atoms: C_15  and  C_16 
ROOT
HETATM    1  C   UNK N   1      36.121  14.371   7.456  0.00  0.00     0.032 C 
ENDROOT
BRANCH   1   2
HETATM    2  C   UNK N   1      35.357  14.909   8.667  0.00  0.00     0.272 C 
BRANCH   2   3
HETATM    3  N   UNK N   1      36.045  14.672   9.935  0.00  0.00     0.091 N 
HETATM    4  C   UNK N   1      35.147  15.203  10.969  0.00  0.00     0.292 C 
HETATM    5  C   UNK N   1      35.696  14.936  12.371  0.00  0.00     0.153 C 
HETATM    6  N   UNK N   1      35.972  13.526  12.507  0.00  0.00    -0.376 N 
HETATM    7  C   UNK N   1      36.833  12.946  11.501  0.00  0.00     0.153 C 
HETATM    8  C   UNK N   1      36.206  13.224  10.135  0.00  0.00     0.292 C 
BRANCH   6   9
HETATM    9  C   UNK N   1      35.414  12.696  13.545  0.00  0.00     0.053 A 
HETATM   10  C   UNK N   1      35.665  12.883  14.944  0.00  0.00     0.082 A 
HETATM   11 Cl   UNK N   1      36.675  14.189  15.579  0.00  0.00    -0.080 Cl
HETATM   12  C   UNK N   1      35.065  12.011  15.879  0.00  0.00     0.058 A 
HETATM   13 Cl   UNK N   1      35.319  12.202  17.609  0.00  0.00    -0.082 Cl
HETATM   14  C   UNK N   1      34.239  10.972  15.451  0.00  0.00     0.026 A 
HETATM   15  C   UNK N   1      33.989  10.787  14.098  0.00  0.00     0.004 A 
HETATM   16  C   UNK N   1      34.564  11.641  13.161  0.00  0.00     0.031 A 
ENDBRANCH   6   9
ENDBRANCH   2   3
ENDBRANCH   1   2
BRANCH   1  17
HETATM   17  C   UNK N   1      35.384  14.595   6.141  0.00  0.00     0.028 C 
BRANCH  17  18
HETATM   18  C   UNK N   1      34.586  15.896   6.111  0.00  0.00     0.175 C 
BRANCH  18  19
HETATM   19  O   UNK N   1      33.362  15.714   5.501  0.00  0.00    -0.351 OA
BRANCH  19  20
HETATM   20  C   UNK N   1      32.180  16.118   6.026  0.00  0.00     0.070 A 
HETATM   21  C   UNK N   1      32.109  16.865   7.215  0.00  0.00     0.066 A 
HETATM   22  C   UNK N   1      30.866  17.250   7.737  0.00  0.00     0.043 A 
HETATM   23  N   UNK N   1      30.818  17.990   8.940  0.00  0.00    -0.327 N 
HETATM   24  C   UNK N   1      29.687  16.890   7.064  0.00  0.00    -0.031 A 
HETATM   25  C   UNK N   1      29.655  18.390   9.510  0.00  0.00     0.222 A 
HETATM   26  H   UNK N   1      31.665  18.224   9.384  0.00  0.00     0.169 HD
HETATM   27  O   UNK N   1      29.688  19.021  10.552  0.00  0.00    -0.273 OA
HETATM   28  C   UNK N   1      28.318  18.078   8.893  0.00  0.00     0.108 A 
HETATM   29  C   UNK N   1      28.337  17.279   7.585  0.00  0.00     0.050 A 
HETATM   30  C   UNK N   1      29.760  16.152   5.881  0.00  0.00     0.012 A 
HETATM   31  C   UNK N   1      30.999  15.766   5.367  0.00  0.00     0.037 A 
ENDBRANCH  19  20
ENDBRANCH  18  19
ENDBRANCH  17  18
ENDBRANCH   1  17
TORSDOF 7
ENDMDL
MODEL 7
REMARK VINA RESULT:      -7.0     10.941     15.567
REMARK  7 active torsions:
REMARK  status: ('A' for Active; 'I' for Inactive)
REMARK    1  A    between atoms: O_3  and  C_16 
REMARK    2  A    between atoms: O_3  and  C_22 
REMARK    3  A    between atoms: N_5  and  C_12 
REMARK    4  A    between atoms: N_6  and  C_14 
REMARK    5  A    between atoms: C_12  and  C_13 
REMARK    6  A    between atoms: C_13  and  C_15 
REMARK    7  A    between atoms: C_15  and  C_16 
ROOT
HETATM    1  C   UNK N   1      34.892  14.834  11.543  0.00  0.00     0.032 C 
ENDROOT
BRANCH   1   2
HETATM    2  C   UNK N   1      35.449  14.261  10.239  0.00  0.00     0.272 C 
BRANCH   2   3
HETATM    3  N   UNK N   1      35.500  15.240   9.153  0.00  0.00     0.091 N 
HETATM    4  C   UNK N   1      35.113  14.500   7.945  0.00  0.00     0.292 C 
HETATM    5  C   UNK N   1      35.027  15.427   6.732  0.00  0.00     0.153 C 
HETATM    6  N   UNK N   1      34.152  16.532   7.045  0.00  0.00    -0.376 N 
HETATM    7  C   UNK N   1      34.475  17.280   8.239  0.00  0.00     0.153 C 
HETATM    8  C   UNK N   1      34.511  16.298   9.409  0.00  0.00     0.292 C 
BRANCH   6   9
HETATM    9  C   UNK N   1      32.991  16.882   6.264  0.00  0.00     0.053 A 
HETATM   10  C   UNK N   1      31.644  16.794   6.747  0.00  0.00     0.082 A 
HETATM   11 Cl   UNK N   1      31.236  16.271   8.387  0.00  0.00    -0.080 Cl
HETATM   12  C   UNK N   1      30.578  17.165   5.897  0.00  0.00     0.058 A 
HETATM   13 Cl   UNK N   1      28.906  17.098   6.438  0.00  0.00    -0.082 Cl
HETATM   14  C   UNK N   1      30.828  17.608   4.599  0.00  0.00     0.026 A 
HETATM   15  C   UNK N   1      32.130  17.699   4.126  0.00  0.00     0.004 A 
HETATM   16  C   UNK N   1      33.195  17.347   4.950  0.00  0.00     0.031 A 
ENDBRANCH   6   9
ENDBRANCH   2   3
ENDBRANCH   1   2
BRANCH   1  17
HETATM   17  C   UNK N   1      35.977  15.147  12.565  0.00  0.00     0.028 C 
BRANCH  17  18
HETATM   18  C   UNK N   1      36.222  14.010  13.552  0.00  0.00     0.175 C 
BRANCH  18  19
HETATM   19  O   UNK N   1      35.053  13.641  14.187  0.00  0.00    -0.351 OA
BRANCH  19  20
HETATM   20  C   UNK N   1      34.944  12.590  15.035  0.00  0.00     0.070 A 
HETATM   21  C   UNK N   1      35.282  12.692  16.396  0.00  0.00     0.066 A 
HETATM   22  C   UNK N   1      35.173  11.578  17.239  0.00  0.00     0.043 A 
HETATM   23  N   UNK N   1      35.528  11.700  18.601  0.00  0.00    -0.327 N 
HETATM   24  C   UNK N   1      34.719  10.353  16.720  0.00  0.00    -0.031 A 
HETATM   25  C   UNK N   1      35.458  10.666  19.475  0.00  0.00     0.222 A 
HETATM   26  H   UNK N   1      35.841  12.573  18.930  0.00  0.00     0.169 HD
HETATM   27  O   UNK N   1      35.786  10.842  20.635  0.00  0.00    -0.273 OA
HETATM   28  C   UNK N   1      34.984   9.300  19.054  0.00  0.00     0.108 A 
HETATM   29  C   UNK N   1      34.587   9.136  17.583  0.00  0.00     0.050 A 
HETATM   30  C   UNK N   1      34.381  10.255  15.368  0.00  0.00     0.012 A 
HETATM   31  C   UNK N   1      34.496  11.366  14.530  0.00  0.00     0.037 A 
ENDBRANCH  19  20
ENDBRANCH  18  19
ENDBRANCH  17  18
ENDBRANCH   1  17
TORSDOF 7
ENDMDL
MODEL 8
REMARK VINA RESULT:      -7.0     14.228     15.730
REMARK  7 active torsions:
REMARK  status: ('A' for Active; 'I' for Inactive)
REMARK    1  A    between atoms: O_3  and  C_16 
REMARK    2  A    between atoms: O_3  and  C_22 
REMARK    3  A    between atoms: N_5  and  C_12 
REMARK    4  A    between atoms: N_6  and  C_14 
REMARK    5  A    between atoms: C_12  and  C_13 
REMARK    6  A    between atoms: C_13  and  C_15 
REMARK    7  A    between atoms: C_15  and  C_16 
ROOT
HETATM    1  C   UNK N   1      25.801  20.807  -8.349  0.00  0.00     0.032 C 
ENDROOT
BRANCH   1   2
HETATM    2  C   UNK N   1      26.837  21.373  -9.321  0.00  0.00     0.272 C 
BRANCH   2   3
HETATM    3  N   UNK N   1      28.215  21.067  -8.939  0.00  0.00     0.091 N 
HETATM    4  C   UNK N   1      28.782  22.341  -8.477  0.00  0.00     0.292 C 
HETATM    5  C   UNK N   1      30.205  22.155  -7.949  0.00  0.00     0.153 C 
HETATM    6  N   UNK N   1      30.202  21.119  -6.943  0.00  0.00    -0.376 N 
HETATM    7  C   UNK N   1      29.633  19.850  -7.338  0.00  0.00     0.153 C 
HETATM    8  C   UNK N   1      28.207  20.110  -7.822  0.00  0.00     0.292 C 
BRANCH   6   9
HETATM    9  C   UNK N   1      30.691  21.304  -5.599  0.00  0.00     0.053 A 
HETATM   10  C   UNK N   1      31.972  20.851  -5.142  0.00  0.00     0.082 A 
HETATM   11 Cl   UNK N   1      33.138  20.030  -6.188  0.00  0.00    -0.080 Cl
HETATM   12  C   UNK N   1      32.352  21.087  -3.802  0.00  0.00     0.058 A 
HETATM   13 Cl   UNK N   1      33.918  20.574  -3.187  0.00  0.00    -0.082 Cl
HETATM   14  C   UNK N   1      31.492  21.749  -2.927  0.00  0.00     0.026 A 
HETATM   15  C   UNK N   1      30.251  22.193  -3.364  0.00  0.00     0.004 A 
HETATM   16  C   UNK N   1      29.861  21.978  -4.682  0.00  0.00     0.031 A 
ENDBRANCH   6   9
ENDBRANCH   2   3
ENDBRANCH   1   2
BRANCH   1  17
HETATM   17  C   UNK N   1      24.987  21.889  -7.651  0.00  0.00     0.028 C 
BRANCH  17  18
HETATM   18  C   UNK N   1      25.467  23.303  -7.968  0.00  0.00     0.175 C 
BRANCH  18  19
HETATM   19  O   UNK N   1      25.174  24.171  -6.936  0.00  0.00    -0.351 OA
BRANCH  19  20
HETATM   20  C   UNK N   1      25.789  25.362  -6.743  0.00  0.00     0.070 A 
HETATM   21  C   UNK N   1      25.567  26.138  -5.592  0.00  0.00     0.066 A 
HETATM   22  C   UNK N   1      26.208  27.374  -5.435  0.00  0.00     0.043 A 
HETATM   23  N   UNK N   1      25.960  28.143  -4.275  0.00  0.00    -0.327 N 
HETATM   24  C   UNK N   1      27.083  27.837  -6.433  0.00  0.00    -0.031 A 
HETATM   25  C   UNK N   1      26.537  29.350  -4.058  0.00  0.00     0.222 A 
HETATM   26  H   UNK N   1      25.343  27.787  -3.597  0.00  0.00     0.169 HD
HETATM   27  O   UNK N   1      26.273  29.961  -3.037  0.00  0.00    -0.273 OA
HETATM   28  C   UNK N   1      27.498  29.963  -5.042  0.00  0.00     0.108 A 
HETATM   29  C   UNK N   1      27.790  29.151  -6.308  0.00  0.00     0.050 A 
HETATM   30  C   UNK N   1      27.305  27.062  -7.574  0.00  0.00     0.012 A 
HETATM   31  C   UNK N   1      26.660  25.834  -7.729  0.00  0.00     0.037 A 
ENDBRANCH  19  20
ENDBRANCH  18  19
ENDBRANCH  17  18
ENDBRANCH   1  17
TORSDOF 7
ENDMDL
MODEL 9
REMARK VINA RESULT:      -6.8     11.077     13.728
REMARK  7 active torsions:
REMARK  status: ('A' for Active; 'I' for Inactive)
REMARK    1  A    between atoms: O_3  and  C_16 
REMARK    2  A    between atoms: O_3  and  C_22 
REMARK    3  A    between atoms: N_5  and  C_12 
REMARK    4  A    between atoms: N_6  and  C_14 
REMARK    5  A    between atoms: C_12  and  C_13 
REMARK    6  A    between atoms: C_13  and  C_15 
REMARK    7  A    between atoms: C_15  and  C_16 
ROOT
HETATM    1  C   UNK N   1      36.956  13.744  10.949  0.00  0.00     0.032 C 
ENDROOT
BRANCH   1   2
HETATM    2  C   UNK N   1      36.409  12.415  10.426  0.00  0.00     0.272 C 
BRANCH   2   3
HETATM    3  N   UNK N   1      36.454  11.341  11.417  0.00  0.00     0.091 N 
HETATM    4  C   UNK N   1      37.436  11.777  12.418  0.00  0.00     0.292 C 
HETATM    5  C   UNK N   1      37.520  10.788  13.580  0.00  0.00     0.153 C 
HETATM    6  N   UNK N   1      36.196  10.577  14.116  0.00  0.00    -0.376 N 
HETATM    7  C   UNK N   1      35.184  10.169  13.168  0.00  0.00     0.153 C 
HETATM    8  C   UNK N   1      35.135  11.217  12.058  0.00  0.00     0.292 C 
BRANCH   6   9
HETATM    9  C   UNK N   1      35.847  10.787  15.499  0.00  0.00     0.053 A 
HETATM   10  C   UNK N   1      35.734  12.078  16.111  0.00  0.00     0.082 A 
HETATM   11 Cl   UNK N   1      35.979  13.592  15.228  0.00  0.00    -0.080 Cl
HETATM   12  C   UNK N   1      35.384  12.170  17.476  0.00  0.00     0.058 A 
HETATM   13 Cl   UNK N   1      35.210  13.726  18.278  0.00  0.00    -0.082 Cl
HETATM   14  C   UNK N   1      35.155  11.018  18.228  0.00  0.00     0.026 A 
HETATM   15  C   UNK N   1      35.259   9.765  17.641  0.00  0.00     0.004 A 
HETATM   16  C   UNK N   1      35.594   9.653  16.295  0.00  0.00     0.031 A 
ENDBRANCH   6   9
ENDBRANCH   2   3
ENDBRANCH   1   2
BRANCH   1  17
HETATM   17  C   UNK N   1      35.860  14.735  11.317  0.00  0.00     0.028 C 
BRANCH  17  18
HETATM   18  C   UNK N   1      36.130  16.149  10.810  0.00  0.00     0.175 C 
BRANCH  18  19
HETATM   19  O   UNK N   1      34.952  16.827  10.576  0.00  0.00    -0.351 OA
BRANCH  19  20
HETATM   20  C   UNK N   1      34.331  16.885   9.373  0.00  0.00     0.070 A 
HETATM   21  C   UNK N   1      33.423  15.897   8.954  0.00  0.00     0.066 A 
HETATM   22  C   UNK N   1      32.814  15.981   7.695  0.00  0.00     0.043 A 
HETATM   23  N   UNK N   1      31.914  14.970   7.290  0.00  0.00    -0.327 N 
HETATM   24  C   UNK N   1      33.110  17.063   6.849  0.00  0.00    -0.031 A 
HETATM   25  C   UNK N   1      31.293  14.979   6.085  0.00  0.00     0.222 A 
HETATM   26  H   UNK N   1      31.729  14.227   7.908  0.00  0.00     0.169 HD
HETATM   27  O   UNK N   1      30.532  14.071   5.799  0.00  0.00    -0.273 OA
HETATM   28  C   UNK N   1      31.515  16.081   5.083  0.00  0.00     0.108 A 
HETATM   29  C   UNK N   1      32.483  17.195   5.495  0.00  0.00     0.050 A 
HETATM   30  C   UNK N   1      34.010  18.046   7.269  0.00  0.00     0.012 A 
HETATM   31  C   UNK N   1      34.618  17.956   8.521  0.00  0.00     0.037 A 
ENDBRANCH  19  20
ENDBRANCH  18  19
ENDBRANCH  17  18
ENDBRANCH   1  17
TORSDOF 7
ENDMDL
