MODEL 1
REMARK VINA RESULT:      -6.1      0.000      0.000
REMARK  7 active torsions:
REMARK  status: ('A' for Active; 'I' for Inactive)
REMARK    1  A    between atoms: O_1  and  C_9 
REMARK    2  A    between atoms: O_1  and  C_11 
REMARK    3  A    between atoms: O_2  and  C_10 
REMARK    4  A    between atoms: C_4  and  C_5 
REMARK    5  A    between atoms: C_4  and  C_10 
REMARK    6  A    between atoms: C_5  and  C_6 
REMARK    7  A    between atoms: C_6  and  C_9 
ROOT
HETATM    1  C   UNK N   1      29.788  17.778   8.828  0.00  0.00     0.175 C 
ENDROOT
BRANCH   1   2
HETATM    2  O   UNK N   1      28.999  17.449   7.744  0.00  0.00    -0.351 OA
BRANCH   2   3
HETATM    3  C   UNK N   1      28.563  18.364   6.837  0.00  0.00     0.075 A 
HETATM    4  C   UNK N   1      28.847  18.184   5.471  0.00  0.00    -0.029 A 
HETATM    5  C   UNK N   1      28.373  19.106   4.532  0.00  0.00     0.010 A 
HETATM    6  C   UNK N   1      29.626  17.005   5.002  0.00  0.00     0.051 C 
HETATM    7  C   UNK N   1      27.624  20.212   4.945  0.00  0.00     0.007 A 
HETATM    8  C   UNK N   1      27.347  20.400   6.300  0.00  0.00    -0.059 A 
HETATM    9  C   UNK N   1      27.811  19.482   7.240  0.00  0.00     0.044 A 
HETATM   10  C   UNK N   1      26.554  21.577   6.743  0.00  0.00     0.048 C 
ENDBRANCH   2   3
ENDBRANCH   1   2
BRANCH   1  11
HETATM   11  C   UNK N   1      31.146  17.116   8.650  0.00  0.00     0.028 C 
BRANCH  11  12
HETATM   12  C   UNK N   1      32.242  18.089   8.233  0.00  0.00     0.022 C 
BRANCH  12  13
HETATM   13  C   UNK N   1      33.583  17.415   7.928  0.00  0.00     0.038 C 
HETATM   14  C   UNK N   1      33.497  15.976   8.399  0.00  0.00     0.026 C 
HETATM   15  C   UNK N   1      33.833  17.387   6.422  0.00  0.00     0.026 C 
BRANCH  13  16
HETATM   16  C   UNK N   1      34.702  18.101   8.678  0.00  0.00     0.147 C 
HETATM   17  O   UNK N   1      35.114  19.196   8.328  0.00  0.00    -0.649 OA
BRANCH  16  18
HETATM   18  O   UNK N   1      35.263  17.493   9.743  0.00  0.00    -0.776 OA
HETATM   19  H   UNK N   1      35.202  17.445  10.677  0.00  0.00     0.167 HD
ENDBRANCH  16  18
ENDBRANCH  13  16
ENDBRANCH  12  13
ENDBRANCH  11  12
ENDBRANCH   1  11
TORSDOF 7
ENDMDL
MODEL 2
REMARK VINA RESULT:      -6.0     11.136     13.190
REMARK  7 active torsions:
REMARK  status: ('A' for Active; 'I' for Inactive)
REMARK    1  A    between atoms: O_1  and  C_9 
REMARK    2  A    between atoms: O_1  and  C_11 
REMARK    3  A    between atoms: O_2  and  C_10 
REMARK    4  A    between atoms: C_4  and  C_5 
REMARK    5  A    between atoms: C_4  and  C_10 
REMARK    6  A    between atoms: C_5  and  C_6 
REMARK    7  A    between atoms: C_6  and  C_9 
ROOT
HETATM    1  C   UNK N   1      27.802  23.864  -2.680  0.00  0.00     0.175 C 
ENDROOT
BRANCH   1   2
HETATM    2  O   UNK N   1      26.559  24.039  -3.256  0.00  0.00    -0.351 OA
BRANCH   2   3
HETATM    3  C   UNK N   1      26.247  25.104  -4.042  0.00  0.00     0.075 A 
HETATM    4  C   UNK N   1      25.838  24.895  -5.371  0.00  0.00    -0.029 A 
HETATM    5  C   UNK N   1      25.485  25.986  -6.173  0.00  0.00     0.010 A 
HETATM    6  C   UNK N   1      25.746  23.519  -5.934  0.00  0.00     0.051 C 
HETATM    7  C   UNK N   1      25.546  27.286  -5.662  0.00  0.00     0.007 A 
HETATM    8  C   UNK N   1      25.961  27.500  -4.346  0.00  0.00    -0.059 A 
HETATM    9  C   UNK N   1      26.307  26.416  -3.540  0.00  0.00     0.044 A 
HETATM   10  C   UNK N   1      26.030  28.881  -3.801  0.00  0.00     0.048 C 
ENDBRANCH   2   3
ENDBRANCH   1   2
BRANCH   1  11
HETATM   11  C   UNK N   1      28.840  23.797  -3.790  0.00  0.00     0.028 C 
BRANCH  11  12
HETATM   12  C   UNK N   1      30.272  23.734  -3.275  0.00  0.00     0.022 C 
BRANCH  12  13
HETATM   13  C   UNK N   1      31.166  22.762  -4.051  0.00  0.00     0.038 C 
HETATM   14  C   UNK N   1      30.371  22.243  -5.233  0.00  0.00     0.026 C 
HETATM   15  C   UNK N   1      32.386  23.492  -4.609  0.00  0.00     0.026 C 
BRANCH  13  16
HETATM   16  C   UNK N   1      31.554  21.590  -3.180  0.00  0.00     0.147 C 
HETATM   17  O   UNK N   1      32.076  21.764  -2.089  0.00  0.00    -0.649 OA
BRANCH  16  18
HETATM   18  O   UNK N   1      31.331  20.333  -3.613  0.00  0.00    -0.776 OA
HETATM   19  H   UNK N   1      31.609  19.449  -3.475  0.00  0.00     0.167 HD
ENDBRANCH  16  18
ENDBRANCH  13  16
ENDBRANCH  12  13
ENDBRANCH  11  12
ENDBRANCH   1  11
TORSDOF 7
ENDMDL
MODEL 3
REMARK VINA RESULT:      -5.8      9.326     11.419
REMARK  7 active torsions:
REMARK  status: ('A' for Active; 'I' for Inactive)
REMARK    1  A    between atoms: O_1  and  C_9 
REMARK    2  A    between atoms: O_1  and  C_11 
REMARK    3  A    between atoms: O_2  and  C_10 
REMARK    4  A    between atoms: C_4  and  C_5 
REMARK    5  A    between atoms: C_4  and  C_10 
REMARK    6  A    between atoms: C_5  and  C_6 
REMARK    7  A    between atoms: C_6  and  C_9 
ROOT
HETATM    1  C   UNK N   1      20.301  13.905   9.277  0.00  0.00     0.175 C 
ENDROOT
BRANCH   1   2
HETATM    2  O   UNK N   1      20.957  12.693   9.183  0.00  0.00    -0.351 OA
BRANCH   2   3
HETATM    3  C   UNK N   1      22.103  12.414   9.858  0.00  0.00     0.075 A 
HETATM    4  C   UNK N   1      23.306  12.240   9.151  0.00  0.00    -0.029 A 
HETATM    5  C   UNK N   1      24.494  11.984   9.845  0.00  0.00     0.010 A 
HETATM    6  C   UNK N   1      23.342  12.353   7.666  0.00  0.00     0.051 C 
HETATM    7  C   UNK N   1      24.490  11.891  11.240  0.00  0.00     0.007 A 
HETATM    8  C   UNK N   1      23.297  12.054  11.947  0.00  0.00    -0.059 A 
HETATM    9  C   UNK N   1      22.111  12.315  11.262  0.00  0.00     0.044 A 
HETATM   10  C   UNK N   1      23.289  11.952  13.430  0.00  0.00     0.048 C 
ENDBRANCH   2   3
ENDBRANCH   1   2
BRANCH   1  11
HETATM   11  C   UNK N   1      21.249  14.999   8.811  0.00  0.00     0.028 C 
BRANCH  11  12
HETATM   12  C   UNK N   1      20.534  16.270   8.367  0.00  0.00     0.022 C 
BRANCH  12  13
HETATM   13  C   UNK N   1      20.862  16.695   6.933  0.00  0.00     0.038 C 
HETATM   14  C   UNK N   1      22.187  16.063   6.553  0.00  0.00     0.026 C 
HETATM   15  C   UNK N   1      19.808  16.159   5.966  0.00  0.00     0.026 C 
BRANCH  13  16
HETATM   16  C   UNK N   1      21.003  18.197   6.845  0.00  0.00     0.147 C 
HETATM   17  O   UNK N   1      21.516  18.724   5.870  0.00  0.00    -0.649 OA
BRANCH  16  18
HETATM   18  O   UNK N   1      20.565  18.969   7.860  0.00  0.00    -0.776 OA
HETATM   19  H   UNK N   1      20.256  18.915   8.743  0.00  0.00     0.167 HD
ENDBRANCH  16  18
ENDBRANCH  13  16
ENDBRANCH  12  13
ENDBRANCH  11  12
ENDBRANCH   1  11
TORSDOF 7
ENDMDL
MODEL 4
REMARK VINA RESULT:      -5.8     13.100     15.536
REMARK  7 active torsions:
REMARK  status: ('A' for Active; 'I' for Inactive)
REMARK    1  A    between atoms: O_1  and  C_9 
REMARK    2  A    between atoms: O_1  and  C_11 
REMARK    3  A    between atoms: O_2  and  C_10 
REMARK    4  A    between atoms: C_4  and  C_5 
REMARK    5  A    between atoms: C_4  and  C_10 
REMARK    6  A    between atoms: C_5  and  C_6 
REMARK    7  A    between atoms: C_6  and  C_9 
ROOT
HETATM    1  C   UNK N   1      26.470  23.863  -5.932  0.00  0.00     0.175 C 
ENDROOT
BRANCH   1   2
HETATM    2  O   UNK N   1      27.841  24.023  -5.885  0.00  0.00    -0.351 OA
BRANCH   2   3
HETATM    3  C   UNK N   1      28.708  22.982  -5.780  0.00  0.00     0.075 A 
HETATM    4  C   UNK N   1      29.550  22.882  -4.659  0.00  0.00    -0.029 A 
HETATM    5  C   UNK N   1      30.421  21.795  -4.532  0.00  0.00     0.010 A 
HETATM    6  C   UNK N   1      29.509  23.910  -3.581  0.00  0.00     0.051 C 
HETATM    7  C   UNK N   1      30.465  20.808  -5.521  0.00  0.00     0.007 A 
HETATM    8  C   UNK N   1      29.638  20.906  -6.642  0.00  0.00    -0.059 A 
HETATM    9  C   UNK N   1      28.764  21.984  -6.771  0.00  0.00     0.044 A 
HETATM   10  C   UNK N   1      29.686  19.860  -7.697  0.00  0.00     0.048 C 
ENDBRANCH   2   3
ENDBRANCH   1   2
BRANCH   1  11
HETATM   11  C   UNK N   1      25.840  24.828  -4.940  0.00  0.00     0.028 C 
BRANCH  11  12
HETATM   12  C   UNK N   1      26.704  26.050  -4.655  0.00  0.00     0.022 C 
BRANCH  12  13
HETATM   13  C   UNK N   1      26.020  27.381  -4.985  0.00  0.00     0.038 C 
HETATM   14  C   UNK N   1      26.911  28.132  -5.956  0.00  0.00     0.026 C 
HETATM   15  C   UNK N   1      24.687  27.133  -5.688  0.00  0.00     0.026 C 
BRANCH  13  16
HETATM   16  C   UNK N   1      25.858  28.217  -3.736  0.00  0.00     0.147 C 
HETATM   17  O   UNK N   1      25.720  27.690  -2.642  0.00  0.00    -0.649 OA
BRANCH  16  18
HETATM   18  O   UNK N   1      25.856  29.561  -3.828  0.00  0.00    -0.776 OA
HETATM   19  H   UNK N   1      25.797  30.333  -3.299  0.00  0.00     0.167 HD
ENDBRANCH  16  18
ENDBRANCH  13  16
ENDBRANCH  12  13
ENDBRANCH  11  12
ENDBRANCH   1  11
TORSDOF 7
ENDMDL
MODEL 5
REMARK VINA RESULT:      -5.8      1.500      2.597
REMARK  7 active torsions:
REMARK  status: ('A' for Active; 'I' for Inactive)
REMARK    1  A    between atoms: O_1  and  C_9 
REMARK    2  A    between atoms: O_1  and  C_11 
REMARK    3  A    between atoms: O_2  and  C_10 
REMARK    4  A    between atoms: C_4  and  C_5 
REMARK    5  A    between atoms: C_4  and  C_10 
REMARK    6  A    between atoms: C_5  and  C_6 
REMARK    7  A    between atoms: C_6  and  C_9 
ROOT
HETATM    1  C   UNK N   1      29.430  16.655   5.218  0.00  0.00     0.175 C 
ENDROOT
BRANCH   1   2
HETATM    2  O   UNK N   1      28.268  17.097   5.820  0.00  0.00    -0.351 OA
BRANCH   2   3
HETATM    3  C   UNK N   1      27.804  18.369   5.695  0.00  0.00     0.075 A 
HETATM    4  C   UNK N   1      27.866  19.247   6.791  0.00  0.00    -0.029 A 
HETATM    5  C   UNK N   1      27.419  20.566   6.656  0.00  0.00     0.010 A 
HETATM    6  C   UNK N   1      28.432  18.802   8.095  0.00  0.00     0.051 C 
HETATM    7  C   UNK N   1      26.901  21.014   5.437  0.00  0.00     0.007 A 
HETATM    8  C   UNK N   1      26.828  20.144   4.348  0.00  0.00    -0.059 A 
HETATM    9  C   UNK N   1      27.278  18.830   4.474  0.00  0.00     0.044 A 
HETATM   10  C   UNK N   1      26.274  20.616   3.052  0.00  0.00     0.048 C 
ENDBRANCH   2   3
ENDBRANCH   1   2
BRANCH   1  11
HETATM   11  C   UNK N   1      30.450  16.355   6.307  0.00  0.00     0.028 C 
BRANCH  11  12
HETATM   12  C   UNK N   1      31.766  17.101   6.124  0.00  0.00     0.022 C 
BRANCH  12  13
HETATM   13  C   UNK N   1      32.696  17.019   7.337  0.00  0.00     0.038 C 
HETATM   14  C   UNK N   1      32.207  18.020   8.366  0.00  0.00     0.026 C 
HETATM   15  C   UNK N   1      32.616  15.634   7.976  0.00  0.00     0.026 C 
BRANCH  13  16
HETATM   16  C   UNK N   1      34.110  17.383   6.945  0.00  0.00     0.147 C 
HETATM   17  O   UNK N   1      34.664  18.359   7.428  0.00  0.00    -0.649 OA
BRANCH  16  18
HETATM   18  O   UNK N   1      34.769  16.628   6.044  0.00  0.00    -0.776 OA
HETATM   19  H   UNK N   1      35.491  16.035   5.970  0.00  0.00     0.167 HD
ENDBRANCH  16  18
ENDBRANCH  13  16
ENDBRANCH  12  13
ENDBRANCH  11  12
ENDBRANCH   1  11
TORSDOF 7
ENDMDL
MODEL 6
REMARK VINA RESULT:      -5.6      2.181      6.177
REMARK  7 active torsions:
REMARK  status: ('A' for Active; 'I' for Inactive)
REMARK    1  A    between atoms: O_1  and  C_9 
REMARK    2  A    between atoms: O_1  and  C_11 
REMARK    3  A    between atoms: O_2  and  C_10 
REMARK    4  A    between atoms: C_4  and  C_5 
REMARK    5  A    between atoms: C_4  and  C_10 
REMARK    6  A    between atoms: C_5  and  C_6 
REMARK    7  A    between atoms: C_6  and  C_9 
ROOT
HETATM    1  C   UNK N   1      29.247  17.774   8.465  0.00  0.00     0.175 C 
ENDROOT
BRANCH   1   2
HETATM    2  O   UNK N   1      29.846  16.921   7.559  0.00  0.00    -0.351 OA
BRANCH   2   3
HETATM    3  C   UNK N   1      31.079  17.144   7.030  0.00  0.00     0.075 A 
HETATM    4  C   UNK N   1      31.284  16.997   5.647  0.00  0.00    -0.029 A 
HETATM    5  C   UNK N   1      32.543  17.257   5.096  0.00  0.00     0.010 A 
HETATM    6  C   UNK N   1      30.166  16.594   4.749  0.00  0.00     0.051 C 
HETATM    7  C   UNK N   1      33.604  17.654   5.915  0.00  0.00     0.007 A 
HETATM    8  C   UNK N   1      33.409  17.793   7.291  0.00  0.00    -0.059 A 
HETATM    9  C   UNK N   1      32.154  17.542   7.845  0.00  0.00     0.044 A 
HETATM   10  C   UNK N   1      34.535  18.212   8.165  0.00  0.00     0.048 C 
ENDBRANCH   2   3
ENDBRANCH   1   2
BRANCH   1  11
HETATM   11  C   UNK N   1      28.601  18.915   7.695  0.00  0.00     0.028 C 
BRANCH  11  12
HETATM   12  C   UNK N   1      27.582  18.446   6.663  0.00  0.00     0.022 C 
BRANCH  12  13
HETATM   13  C   UNK N   1      27.075  19.561   5.743  0.00  0.00     0.038 C 
HETATM   14  C   UNK N   1      28.163  19.856   4.729  0.00  0.00     0.026 C 
HETATM   15  C   UNK N   1      25.845  19.093   4.969  0.00  0.00     0.026 C 
BRANCH  13  16
HETATM   16  C   UNK N   1      26.803  20.819   6.537  0.00  0.00     0.147 C 
HETATM   17  O   UNK N   1      27.350  21.873   6.250  0.00  0.00    -0.649 OA
BRANCH  16  18
HETATM   18  O   UNK N   1      25.954  20.778   7.582  0.00  0.00    -0.776 OA
HETATM   19  H   UNK N   1      25.379  21.323   8.083  0.00  0.00     0.167 HD
ENDBRANCH  16  18
ENDBRANCH  13  16
ENDBRANCH  12  13
ENDBRANCH  11  12
ENDBRANCH   1  11
TORSDOF 7
ENDMDL
MODEL 7
REMARK VINA RESULT:      -5.6      1.808      2.098
REMARK  7 active torsions:
REMARK  status: ('A' for Active; 'I' for Inactive)
REMARK    1  A    between atoms: O_1  and  C_9 
REMARK    2  A    between atoms: O_1  and  C_11 
REMARK    3  A    between atoms: O_2  and  C_10 
REMARK    4  A    between atoms: C_4  and  C_5 
REMARK    5  A    between atoms: C_4  and  C_10 
REMARK    6  A    between atoms: C_5  and  C_6 
REMARK    7  A    between atoms: C_6  and  C_9 
ROOT
HETATM    1  C   UNK N   1      29.897  17.434   7.682  0.00  0.00     0.175 C 
ENDROOT
BRANCH   1   2
HETATM    2  O   UNK N   1      28.832  17.264   6.820  0.00  0.00    -0.351 OA
BRANCH   2   3
HETATM    3  C   UNK N   1      28.290  18.280   6.098  0.00  0.00     0.075 A 
HETATM    4  C   UNK N   1      28.243  18.195   4.695  0.00  0.00    -0.029 A 
HETATM    5  C   UNK N   1      27.657  19.224   3.952  0.00  0.00     0.010 A 
HETATM    6  C   UNK N   1      28.786  17.003   3.985  0.00  0.00     0.051 C 
HETATM    7  C   UNK N   1      27.124  20.345   4.596  0.00  0.00     0.007 A 
HETATM    8  C   UNK N   1      27.176  20.440   5.988  0.00  0.00    -0.059 A 
HETATM    9  C   UNK N   1      27.753  19.414   6.735  0.00  0.00     0.044 A 
HETATM   10  C   UNK N   1      26.614  21.631   6.676  0.00  0.00     0.048 C 
ENDBRANCH   2   3
ENDBRANCH   1   2
BRANCH   1  11
HETATM   11  C   UNK N   1      31.100  16.699   7.109  0.00  0.00     0.028 C 
BRANCH  11  12
HETATM   12  C   UNK N   1      31.829  17.485   6.027  0.00  0.00     0.022 C 
BRANCH  12  13
HETATM   13  C   UNK N   1      32.839  16.652   5.232  0.00  0.00     0.038 C 
HETATM   14  C   UNK N   1      32.381  15.207   5.270  0.00  0.00     0.026 C 
HETATM   15  C   UNK N   1      32.852  17.088   3.768  0.00  0.00     0.026 C 
BRANCH  13  16
HETATM   16  C   UNK N   1      34.210  16.739   5.863  0.00  0.00     0.147 C 
HETATM   17  O   UNK N   1      34.503  17.667   6.602  0.00  0.00    -0.649 OA
BRANCH  16  18
HETATM   18  O   UNK N   1      35.127  15.786   5.602  0.00  0.00    -0.776 OA
HETATM   19  H   UNK N   1      35.655  15.447   4.906  0.00  0.00     0.167 HD
ENDBRANCH  16  18
ENDBRANCH  13  16
ENDBRANCH  12  13
ENDBRANCH  11  12
ENDBRANCH   1  11
TORSDOF 7
ENDMDL
MODEL 8
REMARK VINA RESULT:      -5.6      5.418      9.700
REMARK  7 active torsions:
REMARK  status: ('A' for Active; 'I' for Inactive)
REMARK    1  A    between atoms: O_1  and  C_9 
REMARK    2  A    between atoms: O_1  and  C_11 
REMARK    3  A    between atoms: O_2  and  C_10 
REMARK    4  A    between atoms: C_4  and  C_5 
REMARK    5  A    between atoms: C_4  and  C_10 
REMARK    6  A    between atoms: C_5  and  C_6 
REMARK    7  A    between atoms: C_6  and  C_9 
ROOT
HETATM    1  C   UNK N   1      35.961  14.528  11.564  0.00  0.00     0.175 C 
ENDROOT
BRANCH   1   2
HETATM    2  O   UNK N   1      36.202  14.681  12.915  0.00  0.00    -0.351 OA
BRANCH   2   3
HETATM    3  C   UNK N   1      35.831  13.762  13.845  0.00  0.00     0.075 A 
HETATM    4  C   UNK N   1      36.293  13.880  15.168  0.00  0.00    -0.029 A 
HETATM    5  C   UNK N   1      35.887  12.955  16.135  0.00  0.00     0.010 A 
HETATM    6  C   UNK N   1      37.191  15.000  15.566  0.00  0.00     0.051 C 
HETATM    7  C   UNK N   1      35.031  11.905  15.792  0.00  0.00     0.007 A 
HETATM    8  C   UNK N   1      34.576  11.777  14.478  0.00  0.00    -0.059 A 
HETATM    9  C   UNK N   1      34.971  12.700  13.511  0.00  0.00     0.044 A 
HETATM   10  C   UNK N   1      33.668  10.660  14.108  0.00  0.00     0.048 C 
ENDBRANCH   2   3
ENDBRANCH   1   2
BRANCH   1  11
HETATM   11  C   UNK N   1      34.876  15.513  11.156  0.00  0.00     0.028 C 
BRANCH  11  12
HETATM   12  C   UNK N   1      35.319  16.483  10.067  0.00  0.00     0.022 C 
BRANCH  12  13
HETATM   13  C   UNK N   1      34.498  16.381   8.778  0.00  0.00     0.038 C 
HETATM   14  C   UNK N   1      35.076  15.251   7.948  0.00  0.00     0.026 C 
HETATM   15  C   UNK N   1      33.050  16.016   9.098  0.00  0.00     0.026 C 
BRANCH  13  16
HETATM   16  C   UNK N   1      34.599  17.663   7.984  0.00  0.00     0.147 C 
HETATM   17  O   UNK N   1      34.445  17.664   6.772  0.00  0.00    -0.649 OA
BRANCH  16  18
HETATM   18  O   UNK N   1      34.873  18.821   8.617  0.00  0.00    -0.776 OA
HETATM   19  H   UNK N   1      35.591  19.373   8.859  0.00  0.00     0.167 HD
ENDBRANCH  16  18
ENDBRANCH  13  16
ENDBRANCH  12  13
ENDBRANCH  11  12
ENDBRANCH   1  11
TORSDOF 7
ENDMDL
MODEL 9
REMARK VINA RESULT:      -5.5      9.708     12.462
REMARK  7 active torsions:
REMARK  status: ('A' for Active; 'I' for Inactive)
REMARK    1  A    between atoms: O_1  and  C_9 
REMARK    2  A    between atoms: O_1  and  C_11 
REMARK    3  A    between atoms: O_2  and  C_10 
REMARK    4  A    between atoms: C_4  and  C_5 
REMARK    5  A    between atoms: C_4  and  C_10 
REMARK    6  A    between atoms: C_5  and  C_6 
REMARK    7  A    between atoms: C_6  and  C_9 
ROOT
HETATM    1  C   UNK N   1      33.863  10.757  14.727  0.00  0.00     0.175 C 
ENDROOT
BRANCH   1   2
HETATM    2  O   UNK N   1      34.688  10.289  15.732  0.00  0.00    -0.351 OA
BRANCH   2   3
HETATM    3  C   UNK N   1      34.885  10.952  16.902  0.00  0.00     0.075 A 
HETATM    4  C   UNK N   1      34.973  10.234  18.107  0.00  0.00    -0.029 A 
HETATM    5  C   UNK N   1      35.208  10.911  19.308  0.00  0.00     0.010 A 
HETATM    6  C   UNK N   1      34.847   8.749  18.122  0.00  0.00     0.051 C 
HETATM    7  C   UNK N   1      35.347  12.301  19.319  0.00  0.00     0.007 A 
HETATM    8  C   UNK N   1      35.251  13.021  18.127  0.00  0.00    -0.059 A 
HETATM    9  C   UNK N   1      35.024  12.352  16.925  0.00  0.00     0.044 A 
HETATM   10  C   UNK N   1      35.395  14.501  18.135  0.00  0.00     0.048 C 
ENDBRANCH   2   3
ENDBRANCH   1   2
BRANCH   1  11
HETATM   11  C   UNK N   1      34.710  11.002  13.488  0.00  0.00     0.028 C 
BRANCH  11  12
HETATM   12  C   UNK N   1      34.928  12.480  13.188  0.00  0.00     0.022 C 
BRANCH  12  13
HETATM   13  C   UNK N   1      36.394  12.916  13.265  0.00  0.00     0.038 C 
HETATM   14  C   UNK N   1      36.461  14.173  14.110  0.00  0.00     0.026 C 
HETATM   15  C   UNK N   1      37.230  11.849  13.970  0.00  0.00     0.026 C 
BRANCH  13  16
HETATM   16  C   UNK N   1      36.925  13.234  11.886  0.00  0.00     0.147 C 
HETATM   17  O   UNK N   1      37.295  12.344  11.135  0.00  0.00    -0.649 OA
BRANCH  16  18
HETATM   18  O   UNK N   1      37.003  14.517  11.480  0.00  0.00    -0.776 OA
HETATM   19  H   UNK N   1      37.626  15.188  11.283  0.00  0.00     0.167 HD
ENDBRANCH  16  18
ENDBRANCH  13  16
ENDBRANCH  12  13
ENDBRANCH  11  12
ENDBRANCH   1  11
TORSDOF 7
ENDMDL
