REMARK  7 active torsions:
REMARK  status: ('A' for Active; 'I' for Inactive)
REMARK    1  A    between atoms: O_1  and  C_9 
REMARK    2  A    between atoms: O_1  and  C_11 
REMARK    3  A    between atoms: O_2  and  C_10 
REMARK    4  A    between atoms: C_4  and  C_5 
REMARK    5  A    between atoms: C_4  and  C_10 
REMARK    6  A    between atoms: C_5  and  C_6 
REMARK    7  A    between atoms: C_6  and  C_9 
ROOT
HETATM    1  C   UNK N   1       3.704   0.225   0.795  0.00  0.00     0.175 C 
ENDROOT
BRANCH   1   2
HETATM    2  O   UNK N   1       2.613  -0.610   0.936  0.00  0.00    -0.351 OA
BRANCH   2   3
HETATM    3  C   UNK N   1       2.675  -1.954   0.741  0.00  0.00     0.075 A 
HETATM    4  C   UNK N   1       1.489  -2.695   0.596  0.00  0.00    -0.029 A 
HETATM    5  C   UNK N   1       1.550  -4.073   0.363  0.00  0.00     0.010 A 
HETATM    6  C   UNK N   1       0.159  -2.027   0.659  0.00  0.00     0.051 C 
HETATM    7  C   UNK N   1       2.786  -4.721   0.282  0.00  0.00     0.007 A 
HETATM    8  C   UNK N   1       3.967  -3.992   0.434  0.00  0.00    -0.059 A 
HETATM    9  C   UNK N   1       3.913  -2.617   0.660  0.00  0.00     0.044 A 
HETATM   10  C   UNK N   1       5.283  -4.678   0.352  0.00  0.00     0.048 C 
ENDBRANCH   2   3
ENDBRANCH   1   2
BRANCH   1  11
HETATM   11  C   UNK N   1       4.089   0.266  -0.676  0.00  0.00     0.028 C 
BRANCH  11  12
HETATM   12  C   UNK N   1       5.354   1.071  -0.947  0.00  0.00     0.022 C 
BRANCH  12  13
HETATM   13  C   UNK N   1       5.092   2.548  -1.256  0.00  0.00     0.038 C 
HETATM   14  C   UNK N   1       6.361   3.131  -1.847  0.00  0.00     0.026 C 
HETATM   15  C   UNK N   1       3.995   2.684  -2.310  0.00  0.00     0.026 C 
BRANCH  13  16
HETATM   16  C   UNK N   1       4.760   3.303   0.011  0.00  0.00     0.147 C 
HETATM   17  O   UNK N   1       3.699   3.897   0.128  0.00  0.00    -0.649 OA
BRANCH  16  18
HETATM   18  O   UNK N   1       5.649   3.331   1.024  0.00  0.00    -0.776 OA
HETATM   19  H   UNK N   1       5.976   2.806   1.728  0.00  0.00     0.167 HD
ENDBRANCH  16  18
ENDBRANCH  13  16
ENDBRANCH  12  13
ENDBRANCH  11  12
ENDBRANCH   1  11
TORSDOF 7
