MODEL 1
REMARK VINA RESULT:      -6.5      0.000      0.000
REMARK  4 active torsions:
REMARK  status: ('A' for Active; 'I' for Inactive)
REMARK    1  A    between atoms: N_2  and  C_4 
REMARK    2  A    between atoms: N_3  and  C_12 
REMARK    3  A    between atoms: C_4  and  C_11 
REMARK    4  A    between atoms: C_11  and  C_12 
ROOT
HETATM    1 Cl   UNK N   1      36.107   8.418  11.811  0.00  0.00    -0.084 Cl
HETATM    2  N   UNK N   1      36.466  12.817  14.532  0.00  0.00    -0.346 N 
HETATM    3  C   UNK N   1      36.193  11.383  14.589  0.00  0.00     0.042 A 
HETATM    4  C   UNK N   1      36.454  13.750  15.653  0.00  0.00     0.041 A 
HETATM    5  C   UNK N   1      35.817  11.231  17.122  0.00  0.00     0.045 C 
HETATM    6  C   UNK N   1      34.869  12.376  17.079  0.00  0.00     0.045 C 
HETATM    7  C   UNK N   1      35.890  10.641  15.776  0.00  0.00    -0.031 A 
HETATM    8  C   UNK N   1      35.714  13.555  16.852  0.00  0.00    -0.031 A 
HETATM    9  C   UNK N   1      36.245  10.650  13.381  0.00  0.00     0.054 A 
HETATM   10  C   UNK N   1      37.194  14.946  15.553  0.00  0.00     0.030 A 
HETATM   11  C   UNK N   1      35.633   9.266  15.705  0.00  0.00     0.011 A 
HETATM   12  C   UNK N   1      35.758  14.506  17.879  0.00  0.00     0.009 A 
HETATM   13  C   UNK N   1      36.003   9.277  13.333  0.00  0.00     0.036 A 
HETATM   14  C   UNK N   1      37.245  15.881  16.584  0.00  0.00     0.002 A 
HETATM   15  C   UNK N   1      35.689   8.586  14.495  0.00  0.00     0.024 A 
HETATM   16  C   UNK N   1      36.528  15.658  17.753  0.00  0.00     0.001 A 
ENDROOT
BRANCH   2  17
HETATM   17  C   UNK N   1      36.662  13.368  13.182  0.00  0.00     0.131 C 
BRANCH  17  18
HETATM   18  C   UNK N   1      35.518  14.195  12.597  0.00  0.00     0.050 C 
BRANCH  18  19
HETATM   19  C   UNK N   1      35.232  13.919  11.122  0.00  0.00     0.273 C 
BRANCH  19  20
HETATM   20  N   UNK N   1      34.791  15.124  10.405  0.00  0.00     0.080 N 
HETATM   21  C   UNK N   1      35.392  16.314  10.992  0.00  0.00     0.309 C 
HETATM   22  C   UNK N   1      35.186  15.055   9.004  0.00  0.00     0.309 C 
ENDBRANCH  19  20
ENDBRANCH  18  19
ENDBRANCH  17  18
ENDBRANCH   2  17
TORSDOF 4
ENDMDL
MODEL 2
REMARK VINA RESULT:      -6.1     20.987     24.984
REMARK  4 active torsions:
REMARK  status: ('A' for Active; 'I' for Inactive)
REMARK    1  A    between atoms: N_2  and  C_4 
REMARK    2  A    between atoms: N_3  and  C_12 
REMARK    3  A    between atoms: C_4  and  C_11 
REMARK    4  A    between atoms: C_11  and  C_12 
ROOT
HETATM    1 Cl   UNK N   1      28.577  30.241  -2.756  0.00  0.00    -0.084 Cl
HETATM    2  N   UNK N   1      28.393  25.695  -5.244  0.00  0.00    -0.346 N 
HETATM    3  C   UNK N   1      27.615  26.820  -4.728  0.00  0.00     0.042 A 
HETATM    4  C   UNK N   1      27.872  24.526  -5.943  0.00  0.00     0.041 A 
HETATM    5  C   UNK N   1      25.316  26.009  -5.524  0.00  0.00     0.045 C 
HETATM    6  C   UNK N   1      25.551  24.666  -4.928  0.00  0.00     0.045 C 
HETATM    7  C   UNK N   1      26.197  26.974  -4.848  0.00  0.00    -0.031 A 
HETATM    8  C   UNK N   1      26.544  24.035  -5.807  0.00  0.00    -0.031 A 
HETATM    9  C   UNK N   1      28.311  27.858  -4.066  0.00  0.00     0.054 A 
HETATM   10  C   UNK N   1      28.732  23.800  -6.792  0.00  0.00     0.030 A 
HETATM   11  C   UNK N   1      25.558  28.094  -4.300  0.00  0.00     0.011 A 
HETATM   12  C   UNK N   1      26.127  22.901  -6.516  0.00  0.00     0.009 A 
HETATM   13  C   UNK N   1      27.660  28.975  -3.543  0.00  0.00     0.036 A 
HETATM   14  C   UNK N   1      28.307  22.681  -7.505  0.00  0.00     0.002 A 
HETATM   15  C   UNK N   1      26.281  29.089  -3.653  0.00  0.00     0.024 A 
HETATM   16  C   UNK N   1      26.999  22.233  -7.370  0.00  0.00     0.001 A 
ENDROOT
BRANCH   2  17
HETATM   17  C   UNK N   1      29.827  25.716  -4.916  0.00  0.00     0.131 C 
BRANCH  17  18
HETATM   18  C   UNK N   1      30.253  25.036  -3.617  0.00  0.00     0.050 C 
BRANCH  18  19
HETATM   19  C   UNK N   1      31.047  23.746  -3.811  0.00  0.00     0.273 C 
BRANCH  19  20
HETATM   20  N   UNK N   1      30.744  22.745  -2.779  0.00  0.00     0.080 N 
HETATM   21  C   UNK N   1      29.439  23.003  -2.186  0.00  0.00     0.309 C 
HETATM   22  C   UNK N   1      30.728  21.407  -3.357  0.00  0.00     0.309 C 
ENDBRANCH  19  20
ENDBRANCH  18  19
ENDBRANCH  17  18
ENDBRANCH   2  17
TORSDOF 4
ENDMDL
MODEL 3
REMARK VINA RESULT:      -6.0     22.650     25.491
REMARK  4 active torsions:
REMARK  status: ('A' for Active; 'I' for Inactive)
REMARK    1  A    between atoms: N_2  and  C_4 
REMARK    2  A    between atoms: N_3  and  C_12 
REMARK    3  A    between atoms: C_4  and  C_11 
REMARK    4  A    between atoms: C_11  and  C_12 
ROOT
HETATM    1 Cl   UNK N   1      29.838  19.891  -7.533  0.00  0.00    -0.084 Cl
HETATM    2  N   UNK N   1      26.957  24.035  -6.346  0.00  0.00    -0.346 N 
HETATM    3  C   UNK N   1      28.087  23.198  -5.948  0.00  0.00     0.042 A 
HETATM    4  C   UNK N   1      26.456  25.211  -5.644  0.00  0.00     0.041 A 
HETATM    5  C   UNK N   1      28.746  24.526  -3.856  0.00  0.00     0.045 C 
HETATM    6  C   UNK N   1      27.340  24.515  -3.370  0.00  0.00     0.045 C 
HETATM    7  C   UNK N   1      28.917  23.412  -4.801  0.00  0.00    -0.031 A 
HETATM    8  C   UNK N   1      26.631  25.450  -4.253  0.00  0.00    -0.031 A 
HETATM    9  C   UNK N   1      28.409  22.089  -6.764  0.00  0.00     0.054 A 
HETATM   10  C   UNK N   1      25.722  26.175  -6.365  0.00  0.00     0.030 A 
HETATM   11  C   UNK N   1      29.968  22.532  -4.514  0.00  0.00     0.011 A 
HETATM   12  C   UNK N   1      26.114  26.608  -3.658  0.00  0.00     0.009 A 
HETATM   13  C   UNK N   1      29.471  21.233  -6.471  0.00  0.00     0.036 A 
HETATM   14  C   UNK N   1      25.222  27.331  -5.770  0.00  0.00     0.002 A 
HETATM   15  C   UNK N   1      30.246  21.450  -5.341  0.00  0.00     0.024 A 
HETATM   16  C   UNK N   1      25.422  27.550  -4.413  0.00  0.00     0.001 A 
ENDROOT
BRANCH   2  17
HETATM   17  C   UNK N   1      26.199  23.559  -7.514  0.00  0.00     0.131 C 
BRANCH  17  18
HETATM   18  C   UNK N   1      26.579  24.142  -8.874  0.00  0.00     0.050 C 
BRANCH  18  19
HETATM   19  C   UNK N   1      25.390  24.594  -9.720  0.00  0.00     0.273 C 
BRANCH  19  20
HETATM   20  N   UNK N   1      25.446  26.028 -10.036  0.00  0.00     0.080 N 
HETATM   21  C   UNK N   1      26.740  26.374 -10.608  0.00  0.00     0.309 C 
HETATM   22  C   UNK N   1      24.410  26.376 -11.001  0.00  0.00     0.309 C 
ENDBRANCH  19  20
ENDBRANCH  18  19
ENDBRANCH  17  18
ENDBRANCH   2  17
TORSDOF 4
ENDMDL
MODEL 4
REMARK VINA RESULT:      -6.0      8.653     12.379
REMARK  4 active torsions:
REMARK  status: ('A' for Active; 'I' for Inactive)
REMARK    1  A    between atoms: N_2  and  C_4 
REMARK    2  A    between atoms: N_3  and  C_12 
REMARK    3  A    between atoms: C_4  and  C_11 
REMARK    4  A    between atoms: C_11  and  C_12 
ROOT
HETATM    1 Cl   UNK N   1      32.828  13.632   6.699  0.00  0.00    -0.084 Cl
HETATM    2  N   UNK N   1      29.390  17.366   5.641  0.00  0.00    -0.346 N 
HETATM    3  C   UNK N   1      30.285  16.802   6.648  0.00  0.00     0.042 A 
HETATM    4  C   UNK N   1      28.532  18.535   5.797  0.00  0.00     0.041 A 
HETATM    5  C   UNK N   1      29.824  18.528   8.488  0.00  0.00     0.045 C 
HETATM    6  C   UNK N   1      28.356  18.356   8.322  0.00  0.00     0.045 C 
HETATM    7  C   UNK N   1      30.492  17.327   7.965  0.00  0.00    -0.031 A 
HETATM    8  C   UNK N   1      28.043  19.012   7.045  0.00  0.00    -0.031 A 
HETATM    9  C   UNK N   1      31.030  15.651   6.302  0.00  0.00     0.054 A 
HETATM   10  C   UNK N   1      28.122  19.239   4.646  0.00  0.00     0.030 A 
HETATM   11  C   UNK N   1      31.371  16.691   8.850  0.00  0.00     0.011 A 
HETATM   12  C   UNK N   1      27.220  20.143   7.104  0.00  0.00     0.009 A 
HETATM   13  C   UNK N   1      31.915  15.041   7.192  0.00  0.00     0.036 A 
HETATM   14  C   UNK N   1      27.315  20.372   4.713  0.00  0.00     0.002 A 
HETATM   15  C   UNK N   1      32.080  15.557   8.470  0.00  0.00     0.024 A 
HETATM   16  C   UNK N   1      26.866  20.828   5.945  0.00  0.00     0.001 A 
ENDROOT
BRANCH   2  17
HETATM   17  C   UNK N   1      29.278  16.595   4.393  0.00  0.00     0.131 C 
BRANCH  17  18
HETATM   18  C   UNK N   1      28.059  15.687   4.244  0.00  0.00     0.050 C 
BRANCH  18  19
HETATM   19  C   UNK N   1      27.628  15.443   2.799  0.00  0.00     0.273 C 
BRANCH  19  20
HETATM   20  N   UNK N   1      26.349  16.091   2.482  0.00  0.00     0.080 N 
HETATM   21  C   UNK N   1      25.520  15.212   1.667  0.00  0.00     0.309 C 
HETATM   22  C   UNK N   1      25.620  16.403   3.705  0.00  0.00     0.309 C 
ENDBRANCH  19  20
ENDBRANCH  18  19
ENDBRANCH  17  18
ENDBRANCH   2  17
TORSDOF 4
ENDMDL
MODEL 5
REMARK VINA RESULT:      -6.0     21.053     24.344
REMARK  4 active torsions:
REMARK  status: ('A' for Active; 'I' for Inactive)
REMARK    1  A    between atoms: N_2  and  C_4 
REMARK    2  A    between atoms: N_3  and  C_12 
REMARK    3  A    between atoms: C_4  and  C_11 
REMARK    4  A    between atoms: C_11  and  C_12 
ROOT
HETATM    1 Cl   UNK N   1      31.650  20.146  -4.611  0.00  0.00    -0.084 Cl
HETATM    2  N   UNK N   1      28.117  23.560  -6.267  0.00  0.00    -0.346 N 
HETATM    3  C   UNK N   1      28.873  23.070  -5.117  0.00  0.00     0.042 A 
HETATM    4  C   UNK N   1      27.141  24.644  -6.267  0.00  0.00     0.041 A 
HETATM    5  C   UNK N   1      27.945  24.728  -3.394  0.00  0.00     0.045 C 
HETATM    6  C   UNK N   1      26.550  24.423  -3.810  0.00  0.00     0.045 C 
HETATM    7  C   UNK N   1      28.801  23.598  -3.787  0.00  0.00    -0.031 A 
HETATM    8  C   UNK N   1      26.403  25.061  -5.125  0.00  0.00    -0.031 A 
HETATM    9  C   UNK N   1      29.769  21.995  -5.323  0.00  0.00     0.054 A 
HETATM   10  C   UNK N   1      26.872  25.320  -7.475  0.00  0.00     0.030 A 
HETATM   11  C   UNK N   1      29.569  23.035  -2.760  0.00  0.00     0.011 A 
HETATM   12  C   UNK N   1      25.482  26.112  -5.215  0.00  0.00     0.009 A 
HETATM   13  C   UNK N   1      30.539  21.460  -4.290  0.00  0.00     0.036 A 
HETATM   14  C   UNK N   1      25.965  26.374  -7.555  0.00  0.00     0.002 A 
HETATM   15  C   UNK N   1      30.433  21.975  -3.006  0.00  0.00     0.024 A 
HETATM   16  C   UNK N   1      25.271  26.774  -6.421  0.00  0.00     0.001 A 
ENDROOT
BRANCH   2  17
HETATM   17  C   UNK N   1      28.293  22.796  -7.511  0.00  0.00     0.131 C 
BRANCH  17  18
HETATM   18  C   UNK N   1      27.159  21.856  -7.916  0.00  0.00     0.050 C 
BRANCH  18  19
HETATM   19  C   UNK N   1      27.620  20.572  -8.604  0.00  0.00     0.273 C 
BRANCH  19  20
HETATM   20  N   UNK N   1      29.068  20.360  -8.474  0.00  0.00     0.080 N 
HETATM   21  C   UNK N   1      29.340  19.170  -7.679  0.00  0.00     0.309 C 
HETATM   22  C   UNK N   1      29.675  20.181  -9.787  0.00  0.00     0.309 C 
ENDBRANCH  19  20
ENDBRANCH  18  19
ENDBRANCH  17  18
ENDBRANCH   2  17
TORSDOF 4
ENDMDL
MODEL 6
REMARK VINA RESULT:      -6.0     20.827     24.584
REMARK  4 active torsions:
REMARK  status: ('A' for Active; 'I' for Inactive)
REMARK    1  A    between atoms: N_2  and  C_4 
REMARK    2  A    between atoms: N_3  and  C_12 
REMARK    3  A    between atoms: C_4  and  C_11 
REMARK    4  A    between atoms: C_11  and  C_12 
ROOT
HETATM    1 Cl   UNK N   1      30.265  19.913  -7.290  0.00  0.00    -0.084 Cl
HETATM    2  N   UNK N   1      27.966  24.227  -5.562  0.00  0.00    -0.346 N 
HETATM    3  C   UNK N   1      27.876  23.102  -6.490  0.00  0.00     0.042 A 
HETATM    4  C   UNK N   1      26.995  25.303  -5.404  0.00  0.00     0.041 A 
HETATM    5  C   UNK N   1      25.597  23.703  -7.500  0.00  0.00     0.045 C 
HETATM    6  C   UNK N   1      26.043  25.101  -7.747  0.00  0.00     0.045 C 
HETATM    7  C   UNK N   1      26.791  22.851  -7.390  0.00  0.00    -0.031 A 
HETATM    8  C   UNK N   1      26.087  25.721  -6.416  0.00  0.00    -0.031 A 
HETATM    9  C   UNK N   1      28.934  22.164  -6.498  0.00  0.00     0.054 A 
HETATM   10  C   UNK N   1      26.954  26.012  -4.186  0.00  0.00     0.030 A 
HETATM   11  C   UNK N   1      26.822  21.740  -8.243  0.00  0.00     0.011 A 
HETATM   12  C   UNK N   1      25.187  26.767  -6.179  0.00  0.00     0.009 A 
HETATM   13  C   UNK N   1      28.939  21.054  -7.343  0.00  0.00     0.036 A 
HETATM   14  C   UNK N   1      26.047  27.043  -3.952  0.00  0.00     0.002 A 
HETATM   15  C   UNK N   1      27.885  20.846  -8.221  0.00  0.00     0.024 A 
HETATM   16  C   UNK N   1      25.158  27.419  -4.950  0.00  0.00     0.001 A 
ENDROOT
BRANCH   2  17
HETATM   17  C   UNK N   1      29.223  24.321  -4.804  0.00  0.00     0.131 C 
BRANCH  17  18
HETATM   18  C   UNK N   1      29.333  23.478  -3.535  0.00  0.00     0.050 C 
BRANCH  18  19
HETATM   19  C   UNK N   1      30.715  23.495  -2.884  0.00  0.00     0.273 C 
BRANCH  19  20
HETATM   20  N   UNK N   1      31.436  22.229  -3.072  0.00  0.00     0.080 N 
HETATM   21  C   UNK N   1      30.514  21.173  -3.468  0.00  0.00     0.309 C 
HETATM   22  C   UNK N   1      32.447  22.368  -4.112  0.00  0.00     0.309 C 
ENDBRANCH  19  20
ENDBRANCH  18  19
ENDBRANCH  17  18
ENDBRANCH   2  17
TORSDOF 4
ENDMDL
MODEL 7
REMARK VINA RESULT:      -5.9     20.907     25.195
REMARK  4 active torsions:
REMARK  status: ('A' for Active; 'I' for Inactive)
REMARK    1  A    between atoms: N_2  and  C_4 
REMARK    2  A    between atoms: N_3  and  C_12 
REMARK    3  A    between atoms: C_4  and  C_11 
REMARK    4  A    between atoms: C_11  and  C_12 
ROOT
HETATM    1 Cl   UNK N   1      32.017  29.349  -1.381  0.00  0.00    -0.084 Cl
HETATM    2  N   UNK N   1      28.560  27.375  -4.702  0.00  0.00    -0.346 N 
HETATM    3  C   UNK N   1      28.780  28.327  -3.616  0.00  0.00     0.042 A 
HETATM    4  C   UNK N   1      27.305  27.134  -5.406  0.00  0.00     0.041 A 
HETATM    5  C   UNK N   1      26.404  29.289  -3.548  0.00  0.00     0.045 C 
HETATM    6  C   UNK N   1      25.821  27.921  -3.506  0.00  0.00     0.045 C 
HETATM    7  C   UNK N   1      27.794  29.212  -3.073  0.00  0.00    -0.031 A 
HETATM    8  C   UNK N   1      26.016  27.388  -4.860  0.00  0.00    -0.031 A 
HETATM    9  C   UNK N   1      30.076  28.403  -3.055  0.00  0.00     0.054 A 
HETATM   10  C   UNK N   1      27.345  26.586  -6.704  0.00  0.00     0.030 A 
HETATM   11  C   UNK N   1      28.122  30.076  -2.020  0.00  0.00     0.011 A 
HETATM   12  C   UNK N   1      24.861  27.125  -5.607  0.00  0.00     0.009 A 
HETATM   13  C   UNK N   1      30.388  29.282  -2.018  0.00  0.00     0.036 A 
HETATM   14  C   UNK N   1      26.193  26.340  -7.447  0.00  0.00     0.002 A 
HETATM   15  C   UNK N   1      29.408  30.114  -1.495  0.00  0.00     0.024 A 
HETATM   16  C   UNK N   1      24.947  26.614  -6.898  0.00  0.00     0.001 A 
ENDROOT
BRANCH   2  17
HETATM   17  C   UNK N   1      29.704  26.508  -5.024  0.00  0.00     0.131 C 
BRANCH  17  18
HETATM   18  C   UNK N   1      29.696  25.099  -4.434  0.00  0.00     0.050 C 
BRANCH  18  19
HETATM   19  C   UNK N   1      30.870  24.799  -3.504  0.00  0.00     0.273 C 
BRANCH  19  20
HETATM   20  N   UNK N   1      31.003  23.363  -3.220  0.00  0.00     0.080 N 
HETATM   21  C   UNK N   1      30.000  22.940  -2.253  0.00  0.00     0.309 C 
HETATM   22  C   UNK N   1      30.820  22.585  -4.439  0.00  0.00     0.309 C 
ENDBRANCH  19  20
ENDBRANCH  18  19
ENDBRANCH  17  18
ENDBRANCH   2  17
TORSDOF 4
ENDMDL
MODEL 8
REMARK VINA RESULT:      -5.9      2.073      2.808
REMARK  4 active torsions:
REMARK  status: ('A' for Active; 'I' for Inactive)
REMARK    1  A    between atoms: N_2  and  C_4 
REMARK    2  A    between atoms: N_3  and  C_12 
REMARK    3  A    between atoms: C_4  and  C_11 
REMARK    4  A    between atoms: C_11  and  C_12 
ROOT
HETATM    1 Cl   UNK N   1      34.888  10.102   8.140  0.00  0.00    -0.084 Cl
HETATM    2  N   UNK N   1      35.526  12.590  12.644  0.00  0.00    -0.346 N 
HETATM    3  C   UNK N   1      35.115  11.342  12.003  0.00  0.00     0.042 A 
HETATM    4  C   UNK N   1      35.546  12.866  14.076  0.00  0.00     0.041 A 
HETATM    5  C   UNK N   1      34.600  10.036  14.149  0.00  0.00     0.045 C 
HETATM    6  C   UNK N   1      33.768  11.156  14.666  0.00  0.00     0.045 C 
HETATM    7  C   UNK N   1      34.684  10.160  12.686  0.00  0.00    -0.031 A 
HETATM    8  C   UNK N   1      34.732  12.201  15.034  0.00  0.00    -0.031 A 
HETATM    9  C   UNK N   1      35.157  11.278  10.591  0.00  0.00     0.054 A 
HETATM   10  C   UNK N   1      36.400  13.876  14.564  0.00  0.00     0.030 A 
HETATM   11  C   UNK N   1      34.301   9.024  11.961  0.00  0.00     0.011 A 
HETATM   12  C   UNK N   1      34.814  12.531  16.392  0.00  0.00     0.009 A 
HETATM   13  C   UNK N   1      34.790  10.131   9.887  0.00  0.00     0.036 A 
HETATM   14  C   UNK N   1      36.487  14.190  15.918  0.00  0.00     0.002 A 
HETATM   15  C   UNK N   1      34.354   9.006  10.573  0.00  0.00     0.024 A 
HETATM   16  C   UNK N   1      35.695  13.513  16.836  0.00  0.00     0.001 A 
ENDROOT
BRANCH   2  17
HETATM   17  C   UNK N   1      35.840  13.696  11.727  0.00  0.00     0.131 C 
BRANCH  17  18
HETATM   18  C   UNK N   1      34.728  14.706  11.449  0.00  0.00     0.050 C 
BRANCH  18  19
HETATM   19  C   UNK N   1      35.192  15.974  10.735  0.00  0.00     0.273 C 
BRANCH  19  20
HETATM   20  N   UNK N   1      34.761  16.012   9.331  0.00  0.00     0.080 N 
HETATM   21  C   UNK N   1      33.516  15.276   9.160  0.00  0.00     0.309 C 
HETATM   22  C   UNK N   1      34.542  17.388   8.903  0.00  0.00     0.309 C 
ENDBRANCH  19  20
ENDBRANCH  18  19
ENDBRANCH  17  18
ENDBRANCH   2  17
TORSDOF 4
ENDMDL
MODEL 9
REMARK VINA RESULT:      -5.7     21.871     24.782
REMARK  4 active torsions:
REMARK  status: ('A' for Active; 'I' for Inactive)
REMARK    1  A    between atoms: N_2  and  C_4 
REMARK    2  A    between atoms: N_3  and  C_12 
REMARK    3  A    between atoms: C_4  and  C_11 
REMARK    4  A    between atoms: C_11  and  C_12 
ROOT
HETATM    1 Cl   UNK N   1      30.610  19.866  -6.868  0.00  0.00    -0.084 Cl
HETATM    2  N   UNK N   1      27.662  24.065  -6.114  0.00  0.00    -0.346 N 
HETATM    3  C   UNK N   1      28.623  23.142  -5.513  0.00  0.00     0.042 A 
HETATM    4  C   UNK N   1      27.038  25.213  -5.467  0.00  0.00     0.041 A 
HETATM    5  C   UNK N   1      28.769  24.283  -3.221  0.00  0.00     0.045 C 
HETATM    6  C   UNK N   1      27.286  24.312  -3.109  0.00  0.00     0.045 C 
HETATM    7  C   UNK N   1      29.139  23.231  -4.180  0.00  0.00    -0.031 A 
HETATM    8  C   UNK N   1      26.858  25.344  -4.062  0.00  0.00    -0.031 A 
HETATM    9  C   UNK N   1      29.106  22.078  -6.309  0.00  0.00     0.054 A 
HETATM   10  C   UNK N   1      26.546  26.263  -6.269  0.00  0.00     0.030 A 
HETATM   11  C   UNK N   1      30.050  22.277  -3.709  0.00  0.00     0.011 A 
HETATM   12  C   UNK N   1      26.245  26.483  -3.525  0.00  0.00     0.009 A 
HETATM   13  C   UNK N   1      30.028  21.148  -5.828  0.00  0.00     0.036 A 
HETATM   14  C   UNK N   1      25.950  27.400  -5.727  0.00  0.00     0.002 A 
HETATM   15  C   UNK N   1      30.495  21.244  -4.524  0.00  0.00     0.024 A 
HETATM   16  C   UNK N   1      25.802  27.512  -4.351  0.00  0.00     0.001 A 
ENDROOT
BRANCH   2  17
HETATM   17  C   UNK N   1      27.213  23.713  -7.470  0.00  0.00     0.131 C 
BRANCH  17  18
HETATM   18  C   UNK N   1      25.835  23.068  -7.600  0.00  0.00     0.050 C 
BRANCH  18  19
HETATM   19  C   UNK N   1      25.322  22.960  -9.035  0.00  0.00     0.273 C 
BRANCH  19  20
HETATM   20  N   UNK N   1      26.403  22.690  -9.994  0.00  0.00     0.080 N 
HETATM   21  C   UNK N   1      26.392  21.289 -10.393  0.00  0.00     0.309 C 
HETATM   22  C   UNK N   1      26.238  23.507 -11.189  0.00  0.00     0.309 C 
ENDBRANCH  19  20
ENDBRANCH  18  19
ENDBRANCH  17  18
ENDBRANCH   2  17
TORSDOF 4
ENDMDL
