REMARK  4 active torsions:
REMARK  status: ('A' for Active; 'I' for Inactive)
REMARK    1  A    between atoms: N_2  and  C_4 
REMARK    2  A    between atoms: N_3  and  C_12 
REMARK    3  A    between atoms: C_4  and  C_11 
REMARK    4  A    between atoms: C_11  and  C_12 
ROOT
HETATM    1 Cl   UNK N   1      -0.727  -0.641  -0.826  0.00  0.00    -0.084 Cl
HETATM    2  N   UNK N   1       4.309   0.555  -0.522  0.00  0.00    -0.346 N 
HETATM    3  C   UNK N   1       2.948   0.975  -0.195  0.00  0.00     0.042 A 
HETATM    4  C   UNK N   1       5.539   1.274  -0.211  0.00  0.00     0.041 A 
HETATM    5  C   UNK N   1       3.569   3.139   1.033  0.00  0.00     0.045 C 
HETATM    6  C   UNK N   1       4.446   3.560  -0.092  0.00  0.00     0.045 C 
HETATM    7  C   UNK N   1       2.594   2.165   0.519  0.00  0.00    -0.031 A 
HETATM    8  C   UNK N   1       5.618   2.679  -0.004  0.00  0.00    -0.031 A 
HETATM    9  C   UNK N   1       1.882   0.137  -0.596  0.00  0.00     0.054 A 
HETATM   10  C   UNK N   1       6.749   0.554  -0.134  0.00  0.00     0.030 A 
HETATM   11  C   UNK N   1       1.249   2.469   0.764  0.00  0.00     0.011 A 
HETATM   12  C   UNK N   1       6.844   3.289   0.289  0.00  0.00     0.009 A 
HETATM   13  C   UNK N   1       0.549   0.448  -0.327  0.00  0.00     0.036 A 
HETATM   14  C   UNK N   1       7.963   1.165   0.172  0.00  0.00     0.002 A 
HETATM   15  C   UNK N   1       0.232   1.619   0.347  0.00  0.00     0.024 A 
HETATM   16  C   UNK N   1       8.010   2.536   0.388  0.00  0.00     0.001 A 
ENDROOT
BRANCH   2  17
HETATM   17  C   UNK N   1       4.414  -0.661  -1.343  0.00  0.00     0.131 C 
BRANCH  17  18
HETATM   18  C   UNK N   1       5.332  -1.769  -0.830  0.00  0.00     0.050 C 
BRANCH  18  19
HETATM   19  C   UNK N   1       4.998  -2.264   0.576  0.00  0.00     0.273 C 
BRANCH  19  20
HETATM   20  N   UNK N   1       5.997  -3.214   1.084  0.00  0.00     0.080 N 
HETATM   21  C   UNK N   1       6.081  -4.379   0.214  0.00  0.00     0.309 C 
HETATM   22  C   UNK N   1       7.312  -2.588   1.139  0.00  0.00     0.309 C 
ENDBRANCH  19  20
ENDBRANCH  18  19
ENDBRANCH  17  18
ENDBRANCH   2  17
TORSDOF 4
