MODEL 1
REMARK VINA RESULT:      -5.2      0.000      0.000
REMARK  1 active torsions:
REMARK  status: ('A' for Active; 'I' for Inactive)
REMARK    1  A    between atoms: O_3  and  C_8 
ROOT
HETATM    1 Cl   UNK N   1      33.460  10.563  14.045  0.00  0.00    -0.083 Cl
HETATM    2 Cl   UNK N   1      35.683  14.018  17.576  0.00  0.00    -0.081 Cl
HETATM    3  N   UNK N   1      37.045  14.007  12.610  0.00  0.00    -0.363 N 
ATOM      4  HN  UNK N   1      37.688  14.768  12.829  1.00  0.00     0.165 HD
HETATM    5  C   UNK N   1      35.381  12.421  13.316  0.00  0.00     0.015 A 
HETATM    6  C   UNK N   1      36.279  13.476  13.605  0.00  0.00     0.079 A 
HETATM    7  C   UNK N   1      36.377  13.973  14.913  0.00  0.00     0.115 A 
HETATM    8  C   UNK N   1      34.591  11.875  14.345  0.00  0.00     0.048 A 
HETATM    9  C   UNK N   1      35.301  11.943  12.004  0.00  0.00     0.017 A 
HETATM   10  C   UNK N   1      35.584  13.420  15.930  0.00  0.00     0.071 A 
HETATM   11  C   UNK N   1      34.700  12.379  15.641  0.00  0.00     0.051 A 
HETATM   12  C   UNK N   1      36.098  12.507  11.007  0.00  0.00     0.018 A 
HETATM   13  C   UNK N   1      36.972  13.547  11.332  0.00  0.00     0.088 A 
ENDROOT
BRANCH   7  14
HETATM   14  O   UNK N   1      37.229  14.977  15.193  0.00  0.00    -0.357 OA
HETATM   15  H   UNK N   1      38.154  14.838  15.130  0.00  0.00     0.218 HD
ENDBRANCH   7  14
TORSDOF 1
ENDMDL
MODEL 2
REMARK VINA RESULT:      -5.1      8.391      9.555
REMARK  1 active torsions:
REMARK  status: ('A' for Active; 'I' for Inactive)
REMARK    1  A    between atoms: O_3  and  C_8 
ROOT
HETATM    1 Cl   UNK N   1      31.567  17.287   4.013  0.00  0.00    -0.083 Cl
HETATM    2 Cl   UNK N   1      27.736  17.005   7.833  0.00  0.00    -0.081 Cl
HETATM    3  N   UNK N   1      32.728  17.330   9.056  0.00  0.00    -0.363 N 
ATOM      4  HN  UNK N   1      32.446  17.305  10.035  1.00  0.00     0.165 HD
HETATM    5  C   UNK N   1      32.147  17.307   6.722  0.00  0.00     0.015 A 
HETATM    6  C   UNK N   1      31.771  17.273   8.086  0.00  0.00     0.079 A 
HETATM    7  C   UNK N   1      30.416  17.180   8.436  0.00  0.00     0.115 A 
HETATM    8  C   UNK N   1      31.159  17.248   5.723  0.00  0.00     0.048 A 
HETATM    9  C   UNK N   1      33.506  17.400   6.399  0.00  0.00     0.017 A 
HETATM   10  C   UNK N   1      29.439  17.121   7.430  0.00  0.00     0.071 A 
HETATM   11  C   UNK N   1      29.814  17.155   6.086  0.00  0.00     0.051 A 
HETATM   12  C   UNK N   1      34.461  17.457   7.413  0.00  0.00     0.018 A 
HETATM   13  C   UNK N   1      34.050  17.421   8.748  0.00  0.00     0.088 A 
ENDROOT
BRANCH   7  14
HETATM   14  O   UNK N   1      30.053  17.147   9.731  0.00  0.00    -0.357 OA
HETATM   15  H   UNK N   1      30.643  17.454  10.391  0.00  0.00     0.218 HD
ENDBRANCH   7  14
TORSDOF 1
ENDMDL
MODEL 3
REMARK VINA RESULT:      -5.1      2.275      3.333
REMARK  1 active torsions:
REMARK  status: ('A' for Active; 'I' for Inactive)
REMARK    1  A    between atoms: O_3  and  C_8 
ROOT
HETATM    1 Cl   UNK N   1      37.254  14.877  15.698  0.00  0.00    -0.083 Cl
HETATM    2 Cl   UNK N   1      34.520  10.211  16.013  0.00  0.00    -0.081 Cl
HETATM    3  N   UNK N   1      34.525  13.035  11.707  0.00  0.00    -0.363 N 
ATOM      4  HN  UNK N   1      33.922  12.324  11.291  1.00  0.00     0.165 HD
HETATM    5  C   UNK N   1      35.781  13.857  13.585  0.00  0.00     0.015 A 
HETATM    6  C   UNK N   1      34.946  12.880  12.995  0.00  0.00     0.079 A 
HETATM    7  C   UNK N   1      34.553  11.755  13.735  0.00  0.00     0.115 A 
HETATM    8  C   UNK N   1      36.215  13.696  14.914  0.00  0.00     0.048 A 
HETATM    9  C   UNK N   1      36.159  14.971  12.825  0.00  0.00     0.017 A 
HETATM   10  C   UNK N   1      34.992  11.605  15.060  0.00  0.00     0.071 A 
HETATM   11  C   UNK N   1      35.817  12.572  15.638  0.00  0.00     0.051 A 
HETATM   12  C   UNK N   1      35.712  15.101  11.511  0.00  0.00     0.018 A 
HETATM   13  C   UNK N   1      34.888  14.114  10.964  0.00  0.00     0.088 A 
ENDROOT
BRANCH   7  14
HETATM   14  O   UNK N   1      33.758  10.823  13.178  0.00  0.00    -0.357 OA
HETATM   15  H   UNK N   1      33.543  10.874  12.268  0.00  0.00     0.218 HD
ENDBRANCH   7  14
TORSDOF 1
ENDMDL
MODEL 4
REMARK VINA RESULT:      -5.1      2.035      2.568
REMARK  1 active torsions:
REMARK  status: ('A' for Active; 'I' for Inactive)
REMARK    1  A    between atoms: O_3  and  C_8 
ROOT
HETATM    1 Cl   UNK N   1      34.933  11.184  17.633  0.00  0.00    -0.083 Cl
HETATM    2 Cl   UNK N   1      37.504  15.613  15.866  0.00  0.00    -0.081 Cl
HETATM    3  N   UNK N   1      35.226  12.347  12.600  0.00  0.00    -0.363 N 
ATOM      4  HN  UNK N   1      35.536  12.956  11.843  1.00  0.00     0.165 HD
HETATM    5  C   UNK N   1      35.112  11.841  14.948  0.00  0.00     0.015 A 
HETATM    6  C   UNK N   1      35.536  12.676  13.887  0.00  0.00     0.079 A 
HETATM    7  C   UNK N   1      36.272  13.838  14.161  0.00  0.00     0.115 A 
HETATM    8  C   UNK N   1      35.432  12.182  16.275  0.00  0.00     0.048 A 
HETATM    9  C   UNK N   1      34.379  10.688  14.649  0.00  0.00     0.017 A 
HETATM   10  C   UNK N   1      36.585  14.167  15.489  0.00  0.00     0.071 A 
HETATM   11  C   UNK N   1      36.165  13.341  16.533  0.00  0.00     0.051 A 
HETATM   12  C   UNK N   1      34.078  10.378  13.322  0.00  0.00     0.018 A 
HETATM   13  C   UNK N   1      34.514  11.227  12.302  0.00  0.00     0.088 A 
ENDROOT
BRANCH   7  14
HETATM   14  O   UNK N   1      36.677  14.635  13.155  0.00  0.00    -0.357 OA
HETATM   15  H   UNK N   1      37.495  15.087  13.216  0.00  0.00     0.218 HD
ENDBRANCH   7  14
TORSDOF 1
ENDMDL
MODEL 5
REMARK VINA RESULT:      -5.1     11.642     12.618
REMARK  1 active torsions:
REMARK  status: ('A' for Active; 'I' for Inactive)
REMARK    1  A    between atoms: O_3  and  C_8 
ROOT
HETATM    1 Cl   UNK N   1      30.256  16.852   4.513  0.00  0.00    -0.083 Cl
HETATM    2 Cl   UNK N   1      26.372  20.585   3.934  0.00  0.00    -0.081 Cl
HETATM    3  N   UNK N   1      27.862  18.958   8.588  0.00  0.00    -0.363 N 
ATOM      4  HN  UNK N   1      27.174  19.598   8.985  1.00  0.00     0.165 HD
HETATM    5  C   UNK N   1      28.951  18.003   6.668  0.00  0.00     0.015 A 
HETATM    6  C   UNK N   1      28.000  18.886   7.233  0.00  0.00     0.079 A 
HETATM    7  C   UNK N   1      27.203  19.683   6.399  0.00  0.00     0.115 A 
HETATM    8  C   UNK N   1      29.092  17.930   5.270  0.00  0.00     0.048 A 
HETATM    9  C   UNK N   1      29.734  17.218   7.522  0.00  0.00     0.017 A 
HETATM   10  C   UNK N   1      27.353  19.601   5.006  0.00  0.00     0.071 A 
HETATM   11  C   UNK N   1      28.292  18.729   4.453  0.00  0.00     0.051 A 
HETATM   12  C   UNK N   1      29.570  17.315   8.904  0.00  0.00     0.018 A 
HETATM   13  C   UNK N   1      28.620  18.198   9.423  0.00  0.00     0.088 A 
ENDROOT
BRANCH   7  14
HETATM   14  O   UNK N   1      26.298  20.525   6.931  0.00  0.00    -0.357 OA
HETATM   15  H   UNK N   1      25.474  20.196   7.234  0.00  0.00     0.218 HD
ENDBRANCH   7  14
TORSDOF 1
ENDMDL
MODEL 6
REMARK VINA RESULT:      -5.1     11.622     12.416
REMARK  1 active torsions:
REMARK  status: ('A' for Active; 'I' for Inactive)
REMARK    1  A    between atoms: O_3  and  C_8 
ROOT
HETATM    1 Cl   UNK N   1      30.091  17.116   3.890  0.00  0.00    -0.083 Cl
HETATM    2 Cl   UNK N   1      29.911  17.115   9.305  0.00  0.00    -0.081 Cl
HETATM    3  N   UNK N   1      26.650  19.957   6.511  0.00  0.00    -0.363 N 
ATOM      4  HN  UNK N   1      26.243  20.277   7.390  1.00  0.00     0.165 HD
HETATM    5  C   UNK N   1      28.265  18.623   5.330  0.00  0.00     0.015 A 
HETATM    6  C   UNK N   1      27.690  19.075   6.541  0.00  0.00     0.079 A 
HETATM    7  C   UNK N   1      28.191  18.616   7.768  0.00  0.00     0.115 A 
HETATM    8  C   UNK N   1      29.337  17.713   5.363  0.00  0.00     0.048 A 
HETATM    9  C   UNK N   1      27.747  19.095   4.118  0.00  0.00     0.017 A 
HETATM   10  C   UNK N   1      29.261  17.709   7.788  0.00  0.00     0.071 A 
HETATM   11  C   UNK N   1      29.825  17.265   6.591  0.00  0.00     0.051 A 
HETATM   12  C   UNK N   1      26.683  19.997   4.120  0.00  0.00     0.018 A 
HETATM   13  C   UNK N   1      26.143  20.420   5.337  0.00  0.00     0.088 A 
ENDROOT
BRANCH   7  14
HETATM   14  O   UNK N   1      27.648  19.044   8.922  0.00  0.00    -0.357 OA
HETATM   15  H   UNK N   1      27.458  19.954   9.043  0.00  0.00     0.218 HD
ENDBRANCH   7  14
TORSDOF 1
ENDMDL
MODEL 7
REMARK VINA RESULT:      -5.1      1.930      3.774
REMARK  1 active torsions:
REMARK  status: ('A' for Active; 'I' for Inactive)
REMARK    1  A    between atoms: O_3  and  C_8 
ROOT
HETATM    1 Cl   UNK N   1      33.438  10.812  14.688  0.00  0.00    -0.083 Cl
HETATM    2 Cl   UNK N   1      35.649  12.259   9.959  0.00  0.00    -0.081 Cl
HETATM    3  N   UNK N   1      37.004  14.547  14.369  0.00  0.00    -0.363 N 
ATOM      4  HN  UNK N   1      37.644  15.124  13.823  1.00  0.00     0.165 HD
HETATM    5  C   UNK N   1      35.349  12.806  14.475  0.00  0.00     0.015 A 
HETATM    6  C   UNK N   1      36.242  13.613  13.732  0.00  0.00     0.079 A 
HETATM    7  C   UNK N   1      36.340  13.451  12.341  0.00  0.00     0.115 A 
HETATM    8  C   UNK N   1      34.563  11.843  13.816  0.00  0.00     0.048 A 
HETATM    9  C   UNK N   1      35.270  12.987  15.860  0.00  0.00     0.017 A 
HETATM   10  C   UNK N   1      35.551  12.488  11.695  0.00  0.00     0.071 A 
HETATM   11  C   UNK N   1      34.672  11.693  12.432  0.00  0.00     0.051 A 
HETATM   12  C   UNK N   1      36.062  13.950  16.484  0.00  0.00     0.018 A 
HETATM   13  C   UNK N   1      36.931  14.728  15.715  0.00  0.00     0.088 A 
ENDROOT
BRANCH   7  14
HETATM   14  O   UNK N   1      37.187  14.217  11.630  0.00  0.00    -0.357 OA
HETATM   15  H   UNK N   1      37.447  15.057  11.955  0.00  0.00     0.218 HD
ENDBRANCH   7  14
TORSDOF 1
ENDMDL
MODEL 8
REMARK VINA RESULT:      -5.0      8.918      9.960
REMARK  1 active torsions:
REMARK  status: ('A' for Active; 'I' for Inactive)
REMARK    1  A    between atoms: O_3  and  C_8 
ROOT
HETATM    1 Cl   UNK N   1      29.347  17.123   4.517  0.00  0.00    -0.083 Cl
HETATM    2 Cl   UNK N   1      34.387  16.668   6.451  0.00  0.00    -0.081 Cl
HETATM    3  N   UNK N   1      30.435  17.894   9.517  0.00  0.00    -0.363 N 
ATOM      4  HN  UNK N   1      31.101  17.932  10.288  1.00  0.00     0.165 HD
HETATM    5  C   UNK N   1      29.970  17.528   7.186  0.00  0.00     0.015 A 
HETATM    6  C   UNK N   1      30.882  17.584   8.266  0.00  0.00     0.079 A 
HETATM    7  C   UNK N   1      32.243  17.321   8.048  0.00  0.00     0.115 A 
HETATM    8  C   UNK N   1      30.434  17.208   5.897  0.00  0.00     0.048 A 
HETATM    9  C   UNK N   1      28.618  17.794   7.429  0.00  0.00     0.017 A 
HETATM   10  C   UNK N   1      32.693  17.003   6.758  0.00  0.00     0.071 A 
HETATM   11  C   UNK N   1      31.790  16.948   5.695  0.00  0.00     0.051 A 
HETATM   12  C   UNK N   1      28.192  18.109   8.719  0.00  0.00     0.018 A 
HETATM   13  C   UNK N   1      29.122  18.154   9.760  0.00  0.00     0.088 A 
ENDROOT
BRANCH   7  14
HETATM   14  O   UNK N   1      33.114  17.374   9.073  0.00  0.00    -0.357 OA
HETATM   15  H   UNK N   1      32.840  17.127   9.934  0.00  0.00     0.218 HD
ENDBRANCH   7  14
TORSDOF 1
ENDMDL
MODEL 9
REMARK VINA RESULT:      -5.0     25.956     26.545
REMARK  1 active torsions:
REMARK  status: ('A' for Active; 'I' for Inactive)
REMARK    1  A    between atoms: O_3  and  C_8 
ROOT
HETATM    1 Cl   UNK N   1      29.035  29.526  -7.700  0.00  0.00    -0.083 Cl
HETATM    2 Cl   UNK N   1      26.853  30.943  -2.949  0.00  0.00    -0.081 Cl
HETATM    3  N   UNK N   1      25.491  26.589  -5.337  0.00  0.00    -0.363 N 
ATOM      4  HN  UNK N   1      24.856  26.411  -4.559  1.00  0.00     0.165 HD
HETATM    5  C   UNK N   1      27.136  27.981  -6.403  0.00  0.00     0.015 A 
HETATM    6  C   UNK N   1      26.251  27.721  -5.331  0.00  0.00     0.079 A 
HETATM    7  C   UNK N   1      26.158  28.627  -4.264  0.00  0.00     0.115 A 
HETATM    8  C   UNK N   1      27.919  29.150  -6.395  0.00  0.00     0.048 A 
HETATM    9  C   UNK N   1      27.210  27.062  -7.456  0.00  0.00     0.017 A 
HETATM   10  C   UNK N   1      26.945  29.789  -4.267  0.00  0.00     0.071 A 
HETATM   11  C   UNK N   1      27.816  30.043  -5.327  0.00  0.00     0.051 A 
HETATM   12  C   UNK N   1      26.420  25.913  -7.434  0.00  0.00     0.018 A 
HETATM   13  C   UNK N   1      25.558  25.691  -6.357  0.00  0.00     0.088 A 
ENDROOT
BRANCH   7  14
HETATM   14  O   UNK N   1      25.318  28.384  -3.241  0.00  0.00    -0.357 OA
HETATM   15  H   UNK N   1      24.574  27.828  -3.367  0.00  0.00     0.218 HD
ENDBRANCH   7  14
TORSDOF 1
ENDMDL
