REMARK  1 active torsions:
REMARK  status: ('A' for Active; 'I' for Inactive)
REMARK    1  A    between atoms: O_3  and  C_8 
ROOT
HETATM    1 Cl   UNK N   1       2.884   3.227   0.000  0.00  0.00    -0.083 Cl
HETATM    2 Cl   UNK N   1       0.050  -1.390  -0.000  0.00  0.00    -0.081 Cl
HETATM    3  N   UNK N   1       5.200  -1.400   0.000  0.00  0.00    -0.363 N 
ATOM      4  HN  UNK N   1       5.155  -2.419   0.000  1.00  0.00     0.165 HD
HETATM    5  C   UNK N   1       4.086   0.731  -0.000  0.00  0.00     0.015 A 
HETATM    6  C   UNK N   1       4.040  -0.683  -0.000  0.00  0.00     0.079 A 
HETATM    7  C   UNK N   1       2.802  -1.343  -0.000  0.00  0.00     0.115 A 
HETATM    8  C   UNK N   1       2.888   1.469   0.000  0.00  0.00     0.048 A 
HETATM    9  C   UNK N   1       5.333   1.366   0.000  0.00  0.00     0.017 A 
HETATM   10  C   UNK N   1       1.614  -0.596  -0.000  0.00  0.00     0.071 A 
HETATM   11  C   UNK N   1       1.664   0.799  -0.000  0.00  0.00     0.051 A 
HETATM   12  C   UNK N   1       6.502   0.605   0.000  0.00  0.00     0.018 A 
HETATM   13  C   UNK N   1       6.415  -0.789   0.000  0.00  0.00     0.088 A 
ENDROOT
BRANCH   7  14
HETATM   14  O   UNK N   1       2.753  -2.688   0.000  0.00  0.00    -0.357 OA
HETATM   15  H   UNK N   1       1.925  -3.127   0.000  0.00  0.00     0.218 HD
ENDBRANCH   7  14
TORSDOF 1
