MODEL 1
REMARK VINA RESULT:      -6.1      0.000      0.000
REMARK  10 active torsions:
REMARK  status: ('A' for Active; 'I' for Inactive)
REMARK    1  A    between atoms: O_1  and  C_10 
REMARK    2  A    between atoms: O_1  and  C_13 
REMARK    3  A    between atoms: N_2  and  C_4 
REMARK    4  A    between atoms: N_3  and  C_9 
REMARK    5  A    between atoms: N_3  and  C_11 
REMARK    6  A    between atoms: N_3  and  C_12 
REMARK    7  A    between atoms: C_4  and  C_9 
REMARK    8  A    between atoms: C_4  and  C_10 
REMARK    9  A    between atoms: C_11  and  C_15 
REMARK   10  A    between atoms: C_13  and  C_14 
ROOT
HETATM    1  N   UNK N   1      27.681  23.672  -6.112  0.00  0.00    -0.374 N 
ENDROOT
BRANCH   1   2
HETATM    2  C   UNK N   1      28.890  24.248  -6.680  0.00  0.00     0.161 C 
BRANCH   2   3
HETATM    3  C   UNK N   1      29.501  25.326  -5.778  0.00  0.00     0.264 C 
BRANCH   3   4
HETATM    4  N   UNK N   1      29.497  26.637  -6.452  0.00  0.00     0.096 N 
HETATM    5  C   UNK N   1      28.609  26.644  -7.601  0.00  0.00     0.273 C 
HETATM    6  C   UNK N   1      28.234  28.089  -7.834  0.00  0.00     0.032 C 
HETATM    7  C   UNK N   1      28.375  28.754  -6.482  0.00  0.00     0.032 C 
HETATM    8  C   UNK N   1      29.058  27.732  -5.593  0.00  0.00     0.273 C 
ENDBRANCH   3   4
BRANCH   3   9
HETATM    9  C   UNK N   1      30.846  24.913  -5.141  0.00  0.00     0.205 C 
BRANCH   9  10
HETATM   10  O   UNK N   1      30.727  24.631  -3.775  0.00  0.00    -0.389 OA
BRANCH  10  11
HETATM   11  C   UNK N   1      31.504  23.492  -3.560  0.00  0.00     0.171 C 
BRANCH  11  12
HETATM   12  C   UNK N   1      30.672  22.383  -2.942  0.00  0.00     0.001 C 
HETATM   13  C   UNK N   1      29.511  23.003  -2.193  0.00  0.00     0.011 C 
HETATM   14  C   UNK N   1      30.129  21.465  -4.020  0.00  0.00     0.011 C 
ENDBRANCH  11  12
ENDBRANCH  10  11
ENDBRANCH   9  10
ENDBRANCH   3   9
ENDBRANCH   2   3
ENDBRANCH   1   2
BRANCH   1  15
HETATM   15  C   UNK N   1      27.109  24.118  -4.838  0.00  0.00     0.161 C 
BRANCH  15  16
HETATM   16  C   UNK N   1      26.424  25.461  -4.709  0.00  0.00    -0.040 A 
HETATM   17  C   UNK N   1      26.623  26.164  -3.514  0.00  0.00     0.009 A 
HETATM   18  C   UNK N   1      26.027  27.411  -3.311  0.00  0.00     0.001 A 
HETATM   19  C   UNK N   1      25.228  27.973  -4.309  0.00  0.00     0.000 A 
HETATM   20  C   UNK N   1      25.016  27.280  -5.503  0.00  0.00     0.001 A 
HETATM   21  C   UNK N   1      25.606  26.027  -5.698  0.00  0.00     0.009 A 
ENDBRANCH  15  16
ENDBRANCH   1  15
BRANCH   1  22
HETATM   22  C   UNK N   1      26.979  22.658  -6.844  0.00  0.00     0.030 A 
HETATM   23  C   UNK N   1      27.664  21.775  -7.694  0.00  0.00     0.029 A 
HETATM   24  C   UNK N   1      26.974  20.789  -8.406  0.00  0.00     0.002 A 
HETATM   25  C   UNK N   1      25.588  20.680  -8.285  0.00  0.00     0.000 A 
HETATM   26  C   UNK N   1      24.890  21.556  -7.451  0.00  0.00     0.002 A 
HETATM   27  C   UNK N   1      25.580  22.537  -6.734  0.00  0.00     0.029 A 
ENDBRANCH   1  22
TORSDOF 10
ENDMDL
MODEL 2
REMARK VINA RESULT:      -6.0      1.545      5.717
REMARK  10 active torsions:
REMARK  status: ('A' for Active; 'I' for Inactive)
REMARK    1  A    between atoms: O_1  and  C_10 
REMARK    2  A    between atoms: O_1  and  C_13 
REMARK    3  A    between atoms: N_2  and  C_4 
REMARK    4  A    between atoms: N_3  and  C_9 
REMARK    5  A    between atoms: N_3  and  C_11 
REMARK    6  A    between atoms: N_3  and  C_12 
REMARK    7  A    between atoms: C_4  and  C_9 
REMARK    8  A    between atoms: C_4  and  C_10 
REMARK    9  A    between atoms: C_11  and  C_15 
REMARK   10  A    between atoms: C_13  and  C_14 
ROOT
HETATM    1  N   UNK N   1      27.760  24.461  -5.239  0.00  0.00    -0.374 N 
ENDROOT
BRANCH   1   2
HETATM    2  C   UNK N   1      28.427  23.694  -4.197  0.00  0.00     0.161 C 
BRANCH   2   3
HETATM    3  C   UNK N   1      29.863  23.320  -4.579  0.00  0.00     0.264 C 
BRANCH   3   4
HETATM    4  N   UNK N   1      29.990  21.864  -4.777  0.00  0.00     0.096 N 
HETATM    5  C   UNK N   1      30.542  21.549  -6.083  0.00  0.00     0.273 C 
HETATM    6  C   UNK N   1      31.158  20.175  -5.959  0.00  0.00     0.032 C 
HETATM    7  C   UNK N   1      31.511  20.034  -4.493  0.00  0.00     0.032 C 
HETATM    8  C   UNK N   1      30.862  21.218  -3.801  0.00  0.00     0.273 C 
ENDBRANCH   3   4
BRANCH   3   9
HETATM    9  C   UNK N   1      30.935  23.961  -3.671  0.00  0.00     0.205 C 
BRANCH   9  10
HETATM   10  O   UNK N   1      30.470  25.112  -3.024  0.00  0.00    -0.389 OA
BRANCH  10  11
HETATM   11  C   UNK N   1      30.911  26.181  -3.805  0.00  0.00     0.171 C 
BRANCH  11  12
HETATM   12  C   UNK N   1      30.217  27.468  -3.397  0.00  0.00     0.001 C 
HETATM   13  C   UNK N   1      31.201  28.336  -2.642  0.00  0.00     0.011 C 
HETATM   14  C   UNK N   1      29.737  28.220  -4.623  0.00  0.00     0.011 C 
ENDBRANCH  11  12
ENDBRANCH  10  11
ENDBRANCH   9  10
ENDBRANCH   3   9
ENDBRANCH   2   3
ENDBRANCH   1   2
BRANCH   1  15
HETATM   15  C   UNK N   1      27.748  24.049  -6.645  0.00  0.00     0.161 C 
BRANCH  15  16
HETATM   16  C   UNK N   1      26.903  22.887  -7.120  0.00  0.00    -0.040 A 
HETATM   17  C   UNK N   1      27.506  21.983  -8.004  0.00  0.00     0.009 A 
HETATM   18  C   UNK N   1      26.797  20.882  -8.492  0.00  0.00     0.001 A 
HETATM   19  C   UNK N   1      25.475  20.671  -8.095  0.00  0.00     0.000 A 
HETATM   20  C   UNK N   1      24.861  21.569  -7.218  0.00  0.00     0.001 A 
HETATM   21  C   UNK N   1      25.570  22.675  -6.741  0.00  0.00     0.009 A 
ENDBRANCH  15  16
ENDBRANCH   1  15
BRANCH   1  22
HETATM   22  C   UNK N   1      27.034  25.644  -4.880  0.00  0.00     0.030 A 
HETATM   23  C   UNK N   1      26.521  26.504  -5.864  0.00  0.00     0.029 A 
HETATM   24  C   UNK N   1      25.815  27.657  -5.508  0.00  0.00     0.002 A 
HETATM   25  C   UNK N   1      25.620  27.970  -4.161  0.00  0.00     0.000 A 
HETATM   26  C   UNK N   1      26.131  27.130  -3.170  0.00  0.00     0.002 A 
HETATM   27  C   UNK N   1      26.831  25.974  -3.526  0.00  0.00     0.029 A 
ENDBRANCH   1  22
TORSDOF 10
ENDMDL
MODEL 3
REMARK VINA RESULT:      -6.0     20.457     24.654
REMARK  10 active torsions:
REMARK  status: ('A' for Active; 'I' for Inactive)
REMARK    1  A    between atoms: O_1  and  C_10 
REMARK    2  A    between atoms: O_1  and  C_13 
REMARK    3  A    between atoms: N_2  and  C_4 
REMARK    4  A    between atoms: N_3  and  C_9 
REMARK    5  A    between atoms: N_3  and  C_11 
REMARK    6  A    between atoms: N_3  and  C_12 
REMARK    7  A    between atoms: C_4  and  C_9 
REMARK    8  A    between atoms: C_4  and  C_10 
REMARK    9  A    between atoms: C_11  and  C_15 
REMARK   10  A    between atoms: C_13  and  C_14 
ROOT
HETATM    1  N   UNK N   1      35.373  12.209  14.946  0.00  0.00    -0.374 N 
ENDROOT
BRANCH   1   2
HETATM    2  C   UNK N   1      36.511  12.768  14.232  0.00  0.00     0.161 C 
BRANCH   2   3
HETATM    3  C   UNK N   1      36.118  13.339  12.865  0.00  0.00     0.264 C 
BRANCH   3   4
HETATM    4  N   UNK N   1      36.903  12.707  11.789  0.00  0.00     0.096 N 
HETATM    5  C   UNK N   1      37.614  11.533  12.265  0.00  0.00     0.273 C 
HETATM    6  C   UNK N   1      37.871  10.675  11.048  0.00  0.00     0.032 C 
HETATM    7  C   UNK N   1      36.775  11.042  10.071  0.00  0.00     0.032 C 
HETATM    8  C   UNK N   1      36.091  12.261  10.661  0.00  0.00     0.273 C 
ENDBRANCH   3   4
BRANCH   3   9
HETATM    9  C   UNK N   1      36.065  14.881  12.828  0.00  0.00     0.205 C 
BRANCH   9  10
HETATM   10  O   UNK N   1      35.048  15.362  11.996  0.00  0.00    -0.389 OA
BRANCH  10  11
HETATM   11  C   UNK N   1      35.697  16.089  10.997  0.00  0.00     0.171 C 
BRANCH  11  12
HETATM   12  C   UNK N   1      35.002  15.905   9.660  0.00  0.00     0.001 C 
HETATM   13  C   UNK N   1      33.760  15.064   9.868  0.00  0.00     0.011 C 
HETATM   14  C   UNK N   1      34.596  17.248   9.086  0.00  0.00     0.011 C 
ENDBRANCH  11  12
ENDBRANCH  10  11
ENDBRANCH   9  10
ENDBRANCH   3   9
ENDBRANCH   2   3
ENDBRANCH   1   2
BRANCH   1  15
HETATM   15  C   UNK N   1      34.263  11.533  14.269  0.00  0.00     0.161 C 
BRANCH  15  16
HETATM   16  C   UNK N   1      34.481  10.265  13.472  0.00  0.00    -0.040 A 
HETATM   17  C   UNK N   1      33.786  10.148  12.261  0.00  0.00     0.009 A 
HETATM   18  C   UNK N   1      33.928   9.010  11.463  0.00  0.00     0.001 A 
HETATM   19  C   UNK N   1      34.776   7.976  11.867  0.00  0.00     0.000 A 
HETATM   20  C   UNK N   1      35.471   8.078  13.075  0.00  0.00     0.001 A 
HETATM   21  C   UNK N   1      35.317   9.213  13.875  0.00  0.00     0.009 A 
ENDBRANCH  15  16
ENDBRANCH   1  15
BRANCH   1  22
HETATM   22  C   UNK N   1      35.348  12.269  16.379  0.00  0.00     0.030 A 
HETATM   23  C   UNK N   1      35.193  13.494  17.047  0.00  0.00     0.029 A 
HETATM   24  C   UNK N   1      35.170  13.547  18.445  0.00  0.00     0.002 A 
HETATM   25  C   UNK N   1      35.312  12.376  19.191  0.00  0.00     0.000 A 
HETATM   26  C   UNK N   1      35.476  11.151  18.541  0.00  0.00     0.002 A 
HETATM   27  C   UNK N   1      35.492  11.097  17.145  0.00  0.00     0.029 A 
ENDBRANCH   1  22
TORSDOF 10
ENDMDL
MODEL 4
REMARK VINA RESULT:      -6.0      1.853      4.050
REMARK  10 active torsions:
REMARK  status: ('A' for Active; 'I' for Inactive)
REMARK    1  A    between atoms: O_1  and  C_10 
REMARK    2  A    between atoms: O_1  and  C_13 
REMARK    3  A    between atoms: N_2  and  C_4 
REMARK    4  A    between atoms: N_3  and  C_9 
REMARK    5  A    between atoms: N_3  and  C_11 
REMARK    6  A    between atoms: N_3  and  C_12 
REMARK    7  A    between atoms: C_4  and  C_9 
REMARK    8  A    between atoms: C_4  and  C_10 
REMARK    9  A    between atoms: C_11  and  C_15 
REMARK   10  A    between atoms: C_13  and  C_14 
ROOT
HETATM    1  N   UNK N   1      27.899  23.513  -5.342  0.00  0.00    -0.374 N 
ENDROOT
BRANCH   1   2
HETATM    2  C   UNK N   1      28.157  23.441  -6.772  0.00  0.00     0.161 C 
BRANCH   2   3
HETATM    3  C   UNK N   1      28.376  24.823  -7.395  0.00  0.00     0.264 C 
BRANCH   3   4
HETATM    4  N   UNK N   1      27.553  24.988  -8.608  0.00  0.00     0.096 N 
HETATM    5  C   UNK N   1      26.437  24.059  -8.626  0.00  0.00     0.273 C 
HETATM    6  C   UNK N   1      25.392  24.675  -9.527  0.00  0.00     0.032 C 
HETATM    7  C   UNK N   1      25.651  26.165  -9.467  0.00  0.00     0.032 C 
HETATM    8  C   UNK N   1      26.974  26.321  -8.742  0.00  0.00     0.273 C 
ENDBRANCH   3   4
BRANCH   3   9
HETATM    9  C   UNK N   1      29.863  25.207  -7.547  0.00  0.00     0.205 C 
BRANCH   9  10
HETATM   10  O   UNK N   1      30.420  25.677  -6.352  0.00  0.00    -0.389 OA
BRANCH  10  11
HETATM   11  C   UNK N   1      29.542  26.659  -5.892  0.00  0.00     0.171 C 
BRANCH  11  12
HETATM   12  C   UNK N   1      29.696  26.860  -4.395  0.00  0.00     0.001 C 
HETATM   13  C   UNK N   1      31.041  26.314  -3.965  0.00  0.00     0.011 C 
HETATM   14  C   UNK N   1      29.630  28.335  -4.051  0.00  0.00     0.011 C 
ENDBRANCH  11  12
ENDBRANCH  10  11
ENDBRANCH   9  10
ENDBRANCH   3   9
ENDBRANCH   2   3
ENDBRANCH   1   2
BRANCH   1  15
HETATM   15  C   UNK N   1      26.587  23.855  -4.787  0.00  0.00     0.161 C 
BRANCH  15  16
HETATM   16  C   UNK N   1      26.121  25.292  -4.692  0.00  0.00    -0.040 A 
HETATM   17  C   UNK N   1      26.482  26.002  -3.540  0.00  0.00     0.009 A 
HETATM   18  C   UNK N   1      26.092  27.334  -3.371  0.00  0.00     0.001 A 
HETATM   19  C   UNK N   1      25.341  27.972  -4.359  0.00  0.00     0.000 A 
HETATM   20  C   UNK N   1      24.969  27.272  -5.511  0.00  0.00     0.001 A 
HETATM   21  C   UNK N   1      25.351  25.938  -5.671  0.00  0.00     0.009 A 
ENDBRANCH  15  16
ENDBRANCH   1  15
BRANCH   1  22
HETATM   22  C   UNK N   1      28.952  23.187  -4.425  0.00  0.00     0.030 A 
HETATM   23  C   UNK N   1      28.818  23.443  -3.051  0.00  0.00     0.029 A 
HETATM   24  C   UNK N   1      29.848  23.123  -2.161  0.00  0.00     0.002 A 
HETATM   25  C   UNK N   1      31.030  22.552  -2.636  0.00  0.00     0.000 A 
HETATM   26  C   UNK N   1      31.183  22.300  -4.000  0.00  0.00     0.002 A 
HETATM   27  C   UNK N   1      30.151  22.612  -4.888  0.00  0.00     0.029 A 
ENDBRANCH   1  22
TORSDOF 10
ENDMDL
MODEL 5
REMARK VINA RESULT:      -5.9     11.455     14.137
REMARK  10 active torsions:
REMARK  status: ('A' for Active; 'I' for Inactive)
REMARK    1  A    between atoms: O_1  and  C_10 
REMARK    2  A    between atoms: O_1  and  C_13 
REMARK    3  A    between atoms: N_2  and  C_4 
REMARK    4  A    between atoms: N_3  and  C_9 
REMARK    5  A    between atoms: N_3  and  C_11 
REMARK    6  A    between atoms: N_3  and  C_12 
REMARK    7  A    between atoms: C_4  and  C_9 
REMARK    8  A    between atoms: C_4  and  C_10 
REMARK    9  A    between atoms: C_11  and  C_15 
REMARK   10  A    between atoms: C_13  and  C_14 
ROOT
HETATM    1  N   UNK N   1      29.017  16.825   5.790  0.00  0.00    -0.374 N 
ENDROOT
BRANCH   1   2
HETATM    2  C   UNK N   1      28.828  15.390   5.637  0.00  0.00     0.161 C 
BRANCH   2   3
HETATM    3  C   UNK N   1      29.433  14.859   4.334  0.00  0.00     0.264 C 
BRANCH   3   4
HETATM    4  N   UNK N   1      28.392  14.260   3.478  0.00  0.00     0.096 N 
HETATM    5  C   UNK N   1      27.104  14.228   4.149  0.00  0.00     0.273 C 
HETATM    6  C   UNK N   1      26.063  14.170   3.055  0.00  0.00     0.032 C 
HETATM    7  C   UNK N   1      26.721  14.810   1.852  0.00  0.00     0.032 C 
HETATM    8  C   UNK N   1      28.181  14.980   2.227  0.00  0.00     0.273 C 
ENDBRANCH   3   4
BRANCH   3   9
HETATM    9  C   UNK N   1      30.697  13.996   4.542  0.00  0.00     0.205 C 
BRANCH   9  10
HETATM   10  O   UNK N   1      31.843  14.584   3.995  0.00  0.00    -0.389 OA
BRANCH  10  11
HETATM   11  C   UNK N   1      32.440  15.284   5.044  0.00  0.00     0.171 C 
BRANCH  11  12
HETATM   12  C   UNK N   1      32.513  16.767   4.728  0.00  0.00     0.001 C 
HETATM   13  C   UNK N   1      33.626  17.386   5.548  0.00  0.00     0.011 C 
HETATM   14  C   UNK N   1      32.808  16.980   3.256  0.00  0.00     0.011 C 
ENDBRANCH  11  12
ENDBRANCH  10  11
ENDBRANCH   9  10
ENDBRANCH   3   9
ENDBRANCH   2   3
ENDBRANCH   1   2
BRANCH   1  15
HETATM   15  C   UNK N   1      28.973  17.758   4.661  0.00  0.00     0.161 C 
BRANCH  15  16
HETATM   16  C   UNK N   1      27.710  18.514   4.311  0.00  0.00    -0.040 A 
HETATM   17  C   UNK N   1      27.727  19.902   4.498  0.00  0.00     0.009 A 
HETATM   18  C   UNK N   1      26.602  20.676   4.201  0.00  0.00     0.001 A 
HETATM   19  C   UNK N   1      25.447  20.068   3.706  0.00  0.00     0.000 A 
HETATM   20  C   UNK N   1      25.415  18.683   3.521  0.00  0.00     0.001 A 
HETATM   21  C   UNK N   1      26.538  17.911   3.830  0.00  0.00     0.009 A 
ENDBRANCH  15  16
ENDBRANCH   1  15
BRANCH   1  22
HETATM   22  C   UNK N   1      29.204  17.369   7.104  0.00  0.00     0.030 A 
HETATM   23  C   UNK N   1      30.491  17.611   7.609  0.00  0.00     0.029 A 
HETATM   24  C   UNK N   1      30.667  18.142   8.891  0.00  0.00     0.002 A 
HETATM   25  C   UNK N   1      29.557  18.427   9.688  0.00  0.00     0.000 A 
HETATM   26  C   UNK N   1      28.271  18.183   9.204  0.00  0.00     0.002 A 
HETATM   27  C   UNK N   1      28.095  17.660   7.921  0.00  0.00     0.029 A 
ENDBRANCH   1  22
TORSDOF 10
ENDMDL
MODEL 6
REMARK VINA RESULT:      -5.9      2.375      4.657
REMARK  10 active torsions:
REMARK  status: ('A' for Active; 'I' for Inactive)
REMARK    1  A    between atoms: O_1  and  C_10 
REMARK    2  A    between atoms: O_1  and  C_13 
REMARK    3  A    between atoms: N_2  and  C_4 
REMARK    4  A    between atoms: N_3  and  C_9 
REMARK    5  A    between atoms: N_3  and  C_11 
REMARK    6  A    between atoms: N_3  and  C_12 
REMARK    7  A    between atoms: C_4  and  C_9 
REMARK    8  A    between atoms: C_4  and  C_10 
REMARK    9  A    between atoms: C_11  and  C_15 
REMARK   10  A    between atoms: C_13  and  C_14 
ROOT
HETATM    1  N   UNK N   1      26.434  26.080  -4.919  0.00  0.00    -0.374 N 
ENDROOT
BRANCH   1   2
HETATM    2  C   UNK N   1      27.398  25.750  -3.880  0.00  0.00     0.161 C 
BRANCH   2   3
HETATM    3  C   UNK N   1      28.786  25.443  -4.450  0.00  0.00     0.264 C 
BRANCH   3   4
HETATM    4  N   UNK N   1      29.264  24.127  -3.985  0.00  0.00     0.096 N 
HETATM    5  C   UNK N   1      30.666  24.173  -3.605  0.00  0.00     0.273 C 
HETATM    6  C   UNK N   1      30.877  23.028  -2.641  0.00  0.00     0.032 C 
HETATM    7  C   UNK N   1      29.520  22.786  -2.016  0.00  0.00     0.032 C 
HETATM    8  C   UNK N   1      28.544  23.624  -2.821  0.00  0.00     0.273 C 
ENDBRANCH   3   4
BRANCH   3   9
HETATM    9  C   UNK N   1      29.792  26.604  -4.296  0.00  0.00     0.205 C 
BRANCH   9  10
HETATM   10  O   UNK N   1      29.344  27.586  -3.404  0.00  0.00    -0.389 OA
BRANCH  10  11
HETATM   11  C   UNK N   1      30.328  28.575  -3.414  0.00  0.00     0.171 C 
BRANCH  11  12
HETATM   12  C   UNK N   1      30.667  29.010  -1.999  0.00  0.00     0.001 C 
HETATM   13  C   UNK N   1      32.125  29.417  -1.950  0.00  0.00     0.011 C 
HETATM   14  C   UNK N   1      29.812  30.194  -1.592  0.00  0.00     0.011 C 
ENDBRANCH  11  12
ENDBRANCH  10  11
ENDBRANCH   9  10
ENDBRANCH   3   9
ENDBRANCH   2   3
ENDBRANCH   1   2
BRANCH   1  15
HETATM   15  C   UNK N   1      25.783  27.390  -5.013  0.00  0.00     0.161 C 
BRANCH  15  16
HETATM   16  C   UNK N   1      26.588  28.671  -5.029  0.00  0.00    -0.040 A 
HETATM   17  C   UNK N   1      27.505  28.832  -6.075  0.00  0.00     0.009 A 
HETATM   18  C   UNK N   1      28.290  29.985  -6.165  0.00  0.00     0.001 A 
HETATM   19  C   UNK N   1      28.160  30.995  -5.210  0.00  0.00     0.000 A 
HETATM   20  C   UNK N   1      27.252  30.843  -4.158  0.00  0.00     0.001 A 
HETATM   21  C   UNK N   1      26.477  29.684  -4.065  0.00  0.00     0.009 A 
ENDBRANCH  15  16
ENDBRANCH   1  15
BRANCH   1  22
HETATM   22  C   UNK N   1      26.138  25.109  -5.932  0.00  0.00     0.030 A 
HETATM   23  C   UNK N   1      25.997  25.488  -7.277  0.00  0.00     0.029 A 
HETATM   24  C   UNK N   1      25.708  24.537  -8.260  0.00  0.00     0.002 A 
HETATM   25  C   UNK N   1      25.546  23.196  -7.910  0.00  0.00     0.000 A 
HETATM   26  C   UNK N   1      25.674  22.804  -6.576  0.00  0.00     0.002 A 
HETATM   27  C   UNK N   1      25.970  23.753  -5.594  0.00  0.00     0.029 A 
ENDBRANCH   1  22
TORSDOF 10
ENDMDL
MODEL 7
REMARK VINA RESULT:      -5.8      2.073      6.127
REMARK  10 active torsions:
REMARK  status: ('A' for Active; 'I' for Inactive)
REMARK    1  A    between atoms: O_1  and  C_10 
REMARK    2  A    between atoms: O_1  and  C_13 
REMARK    3  A    between atoms: N_2  and  C_4 
REMARK    4  A    between atoms: N_3  and  C_9 
REMARK    5  A    between atoms: N_3  and  C_11 
REMARK    6  A    between atoms: N_3  and  C_12 
REMARK    7  A    between atoms: C_4  and  C_9 
REMARK    8  A    between atoms: C_4  and  C_10 
REMARK    9  A    between atoms: C_11  and  C_15 
REMARK   10  A    between atoms: C_13  and  C_14 
ROOT
HETATM    1  N   UNK N   1      29.635  23.849  -3.669  0.00  0.00    -0.374 N 
ENDROOT
BRANCH   1   2
HETATM    2  C   UNK N   1      30.488  25.026  -3.749  0.00  0.00     0.161 C 
BRANCH   2   3
HETATM    3  C   UNK N   1      30.606  25.564  -5.179  0.00  0.00     0.264 C 
BRANCH   3   4
HETATM    4  N   UNK N   1      31.879  25.143  -5.793  0.00  0.00     0.096 N 
HETATM    5  C   UNK N   1      32.922  24.973  -4.797  0.00  0.00     0.273 C 
HETATM    6  C   UNK N   1      33.930  24.023  -5.402  0.00  0.00     0.032 C 
HETATM    7  C   UNK N   1      33.144  23.202  -6.401  0.00  0.00     0.032 C 
HETATM    8  C   UNK N   1      31.789  23.874  -6.508  0.00  0.00     0.273 C 
ENDBRANCH   3   4
BRANCH   3   9
HETATM    9  C   UNK N   1      30.274  27.066  -5.307  0.00  0.00     0.205 C 
BRANCH   9  10
HETATM   10  O   UNK N   1      29.014  27.290  -5.874  0.00  0.00    -0.389 OA
BRANCH  10  11
HETATM   11  C   UNK N   1      28.261  27.910  -4.876  0.00  0.00     0.171 C 
BRANCH  11  12
HETATM   12  C   UNK N   1      26.890  28.299  -5.400  0.00  0.00     0.001 C 
HETATM   13  C   UNK N   1      26.530  27.383  -6.551  0.00  0.00     0.011 C 
HETATM   14  C   UNK N   1      25.847  28.152  -4.309  0.00  0.00     0.011 C 
ENDBRANCH  11  12
ENDBRANCH  10  11
ENDBRANCH   9  10
ENDBRANCH   3   9
ENDBRANCH   2   3
ENDBRANCH   1   2
BRANCH   1  15
HETATM   15  C   UNK N   1      30.006  22.649  -2.915  0.00  0.00     0.161 C 
BRANCH  15  16
HETATM   16  C   UNK N   1      31.120  21.737  -3.381  0.00  0.00    -0.040 A 
HETATM   17  C   UNK N   1      30.831  20.873  -4.444  0.00  0.00     0.009 A 
HETATM   18  C   UNK N   1      31.802  19.997  -4.937  0.00  0.00     0.001 A 
HETATM   19  C   UNK N   1      33.079  19.982  -4.372  0.00  0.00     0.000 A 
HETATM   20  C   UNK N   1      33.379  20.836  -3.307  0.00  0.00     0.001 A 
HETATM   21  C   UNK N   1      32.401  21.702  -2.810  0.00  0.00     0.009 A 
ENDBRANCH  15  16
ENDBRANCH   1  15
BRANCH   1  22
HETATM   22  C   UNK N   1      28.352  23.872  -4.308  0.00  0.00     0.030 A 
HETATM   23  C   UNK N   1      27.235  24.431  -3.666  0.00  0.00     0.029 A 
HETATM   24  C   UNK N   1      25.986  24.449  -4.294  0.00  0.00     0.002 A 
HETATM   25  C   UNK N   1      25.835  23.899  -5.568  0.00  0.00     0.000 A 
HETATM   26  C   UNK N   1      26.934  23.331  -6.216  0.00  0.00     0.002 A 
HETATM   27  C   UNK N   1      28.183  23.319  -5.592  0.00  0.00     0.029 A 
ENDBRANCH   1  22
TORSDOF 10
ENDMDL
MODEL 8
REMARK VINA RESULT:      -5.8      1.989      5.744
REMARK  10 active torsions:
REMARK  status: ('A' for Active; 'I' for Inactive)
REMARK    1  A    between atoms: O_1  and  C_10 
REMARK    2  A    between atoms: O_1  and  C_13 
REMARK    3  A    between atoms: N_2  and  C_4 
REMARK    4  A    between atoms: N_3  and  C_9 
REMARK    5  A    between atoms: N_3  and  C_11 
REMARK    6  A    between atoms: N_3  and  C_12 
REMARK    7  A    between atoms: C_4  and  C_9 
REMARK    8  A    between atoms: C_4  and  C_10 
REMARK    9  A    between atoms: C_11  and  C_15 
REMARK   10  A    between atoms: C_13  and  C_14 
ROOT
HETATM    1  N   UNK N   1      27.903  23.783  -4.862  0.00  0.00    -0.374 N 
ENDROOT
BRANCH   1   2
HETATM    2  C   UNK N   1      26.884  24.501  -4.112  0.00  0.00     0.161 C 
BRANCH   2   3
HETATM    3  C   UNK N   1      26.578  25.876  -4.714  0.00  0.00     0.264 C 
BRANCH   3   4
HETATM    4  N   UNK N   1      26.902  26.951  -3.758  0.00  0.00     0.096 N 
HETATM    5  C   UNK N   1      28.145  27.618  -4.105  0.00  0.00     0.273 C 
HETATM    6  C   UNK N   1      28.076  28.990  -3.477  0.00  0.00     0.032 C 
HETATM    7  C   UNK N   1      26.598  29.295  -3.361  0.00  0.00     0.032 C 
HETATM    8  C   UNK N   1      25.886  27.997  -3.692  0.00  0.00     0.273 C 
ENDBRANCH   3   4
BRANCH   3   9
HETATM    9  C   UNK N   1      25.183  25.971  -5.370  0.00  0.00     0.205 C 
BRANCH   9  10
HETATM   10  O   UNK N   1      25.220  25.717  -6.746  0.00  0.00    -0.389 OA
BRANCH  10  11
HETATM   11  C   UNK N   1      26.162  26.606  -7.264  0.00  0.00     0.171 C 
BRANCH  11  12
HETATM   12  C   UNK N   1      26.362  26.372  -8.751  0.00  0.00     0.001 C 
HETATM   13  C   UNK N   1      27.832  26.117  -9.011  0.00  0.00     0.011 C 
HETATM   14  C   UNK N   1      25.565  25.165  -9.207  0.00  0.00     0.011 C 
ENDBRANCH  11  12
ENDBRANCH  10  11
ENDBRANCH   9  10
ENDBRANCH   3   9
ENDBRANCH   2   3
ENDBRANCH   1   2
BRANCH   1  15
HETATM   15  C   UNK N   1      27.877  23.658  -6.321  0.00  0.00     0.161 C 
BRANCH  15  16
HETATM   16  C   UNK N   1      26.997  22.637  -7.010  0.00  0.00    -0.040 A 
HETATM   17  C   UNK N   1      27.599  21.836  -7.988  0.00  0.00     0.009 A 
HETATM   18  C   UNK N   1      26.859  20.868  -8.673  0.00  0.00     0.001 A 
HETATM   19  C   UNK N   1      25.506  20.688  -8.381  0.00  0.00     0.000 A 
HETATM   20  C   UNK N   1      24.892  21.485  -7.411  0.00  0.00     0.001 A 
HETATM   21  C   UNK N   1      25.633  22.459  -6.736  0.00  0.00     0.009 A 
ENDBRANCH  15  16
ENDBRANCH   1  15
BRANCH   1  22
HETATM   22  C   UNK N   1      29.015  23.212  -4.159  0.00  0.00     0.030 A 
HETATM   23  C   UNK N   1      29.257  23.525  -2.812  0.00  0.00     0.029 A 
HETATM   24  C   UNK N   1      30.343  22.965  -2.132  0.00  0.00     0.002 A 
HETATM   25  C   UNK N   1      31.208  22.092  -2.794  0.00  0.00     0.000 A 
HETATM   26  C   UNK N   1      30.987  21.778  -4.136  0.00  0.00     0.002 A 
HETATM   27  C   UNK N   1      29.898  22.332  -4.814  0.00  0.00     0.029 A 
ENDBRANCH   1  22
TORSDOF 10
ENDMDL
MODEL 9
REMARK VINA RESULT:      -5.8      1.612      5.245
REMARK  10 active torsions:
REMARK  status: ('A' for Active; 'I' for Inactive)
REMARK    1  A    between atoms: O_1  and  C_10 
REMARK    2  A    between atoms: O_1  and  C_13 
REMARK    3  A    between atoms: N_2  and  C_4 
REMARK    4  A    between atoms: N_3  and  C_9 
REMARK    5  A    between atoms: N_3  and  C_11 
REMARK    6  A    between atoms: N_3  and  C_12 
REMARK    7  A    between atoms: C_4  and  C_9 
REMARK    8  A    between atoms: C_4  and  C_10 
REMARK    9  A    between atoms: C_11  and  C_15 
REMARK   10  A    between atoms: C_13  and  C_14 
ROOT
HETATM    1  N   UNK N   1      27.576  23.894  -5.249  0.00  0.00    -0.374 N 
ENDROOT
BRANCH   1   2
HETATM    2  C   UNK N   1      27.661  23.605  -6.672  0.00  0.00     0.161 C 
BRANCH   2   3
HETATM    3  C   UNK N   1      26.461  24.152  -7.451  0.00  0.00     0.264 C 
BRANCH   3   4
HETATM    4  N   UNK N   1      25.746  23.064  -8.144  0.00  0.00     0.096 N 
HETATM    5  C   UNK N   1      26.530  22.525  -9.242  0.00  0.00     0.273 C 
HETATM    6  C   UNK N   1      26.016  21.124  -9.476  0.00  0.00     0.032 C 
HETATM    7  C   UNK N   1      25.444  20.687  -8.145  0.00  0.00     0.032 C 
HETATM    8  C   UNK N   1      25.427  21.933  -7.279  0.00  0.00     0.273 C 
ENDBRANCH   3   4
BRANCH   3   9
HETATM    9  C   UNK N   1      26.793  25.385  -8.319  0.00  0.00     0.205 C 
BRANCH   9  10
HETATM   10  O   UNK N   1      28.084  25.872  -8.086  0.00  0.00    -0.389 OA
BRANCH  10  11
HETATM   11  C   UNK N   1      27.967  27.262  -8.107  0.00  0.00     0.171 C 
BRANCH  11  12
HETATM   12  C   UNK N   1      28.225  27.845  -6.729  0.00  0.00     0.001 C 
HETATM   13  C   UNK N   1      29.471  27.204  -6.154  0.00  0.00     0.011 C 
HETATM   14  C   UNK N   1      28.439  29.343  -6.820  0.00  0.00     0.011 C 
ENDBRANCH  11  12
ENDBRANCH  10  11
ENDBRANCH   9  10
ENDBRANCH   3   9
ENDBRANCH   2   3
ENDBRANCH   1   2
BRANCH   1  15
HETATM   15  C   UNK N   1      26.369  24.434  -4.618  0.00  0.00     0.161 C 
BRANCH  15  16
HETATM   16  C   UNK N   1      26.213  25.916  -4.352  0.00  0.00    -0.040 A 
HETATM   17  C   UNK N   1      25.269  26.604  -5.125  0.00  0.00     0.009 A 
HETATM   18  C   UNK N   1      25.062  27.974  -4.946  0.00  0.00     0.001 A 
HETATM   19  C   UNK N   1      25.795  28.671  -3.983  0.00  0.00     0.000 A 
HETATM   20  C   UNK N   1      26.744  27.997  -3.210  0.00  0.00     0.001 A 
HETATM   21  C   UNK N   1      26.956  26.629  -3.400  0.00  0.00     0.009 A 
ENDBRANCH  15  16
ENDBRANCH   1  15
BRANCH   1  22
HETATM   22  C   UNK N   1      28.697  23.594  -4.406  0.00  0.00     0.030 A 
HETATM   23  C   UNK N   1      30.000  23.543  -4.927  0.00  0.00     0.029 A 
HETATM   24  C   UNK N   1      31.089  23.249  -4.101  0.00  0.00     0.002 A 
HETATM   25  C   UNK N   1      30.887  22.993  -2.743  0.00  0.00     0.000 A 
HETATM   26  C   UNK N   1      29.597  23.030  -2.211  0.00  0.00     0.002 A 
HETATM   27  C   UNK N   1      28.510  23.331  -3.035  0.00  0.00     0.029 A 
ENDBRANCH   1  22
TORSDOF 10
ENDMDL
