REMARK  11 active torsions:
REMARK  status: ('A' for Active; 'I' for Inactive)
REMARK    1  A    between atoms: N_1  and  C_3 
REMARK    2  A    between atoms: N_2  and  C_4 
REMARK    3  A    between atoms: C_3  and  C_5 
REMARK    4  A    between atoms: C_4  and  C_6 
REMARK    5  A    between atoms: C_5  and  C_7 
REMARK    6  A    between atoms: C_6  and  C_8 
REMARK    7  A    between atoms: C_7  and  C_9 
REMARK    8  A    between atoms: C_8  and  C_10 
REMARK    9  A    between atoms: C_9  and  C_11 
REMARK   10  A    between atoms: C_10  and  C_12 
REMARK   11  A    between atoms: C_11  and  C_12 
ROOT
HETATM    1  C   UNK N   1       5.868   0.637  -0.285  0.00  0.00     0.000 C 
ENDROOT
BRANCH   1   2
HETATM    2  C   UNK N   1       4.412   0.247  -0.159  0.00  0.00     0.000 C 
BRANCH   2   3
HETATM    3  C   UNK N   1       3.613   1.432   0.344  0.00  0.00     0.002 C 
BRANCH   3   4
HETATM    4  C   UNK N   1       2.325   0.943   0.975  0.00  0.00     0.028 C 
BRANCH   4   5
HETATM    5  C   UNK N   1       1.188   0.925  -0.048  0.00  0.00     0.236 C 
BRANCH   5   6
HETATM    6  N   UNK N   1       0.564  -0.391  -0.203  0.00  0.00    -0.079 N 
HETATM    7  C   UNK N   1       1.477  -1.321  -0.850  0.00  0.00     0.271 C 
HETATM    8  C   UNK N   1      -0.605  -0.242  -1.048  0.00  0.00     0.271 C 
HETATM    9  C   UNK N   1       0.131  -0.942   1.075  0.00  0.00     0.271 C 
ENDBRANCH   5   6
ENDBRANCH   4   5
ENDBRANCH   3   4
ENDBRANCH   2   3
ENDBRANCH   1   2
BRANCH   1  10
HETATM   10  C   UNK N   1       6.718  -0.616  -0.296  0.00  0.00     0.000 C 
BRANCH  10  11
HETATM   11  C   UNK N   1       8.171  -0.229  -0.130  0.00  0.00     0.000 C 
BRANCH  11  12
HETATM   12  C   UNK N   1       8.965  -1.431   0.339  0.00  0.00     0.002 C 
BRANCH  12  13
HETATM   13  C   UNK N   1      10.260  -0.965   0.973  0.00  0.00     0.028 C 
BRANCH  13  14
HETATM   14  C   UNK N   1      11.390  -0.928  -0.057  0.00  0.00     0.236 C 
BRANCH  14  15
HETATM   15  N   UNK N   1      12.026   0.390  -0.173  0.00  0.00    -0.079 N 
HETATM   16  C   UNK N   1      11.123   1.343  -0.797  0.00  0.00     0.271 C 
HETATM   17  C   UNK N   1      13.196   0.251  -1.022  0.00  0.00     0.271 C 
HETATM   18  C   UNK N   1      12.463   0.900   1.117  0.00  0.00     0.271 C 
ENDBRANCH  14  15
ENDBRANCH  13  14
ENDBRANCH  12  13
ENDBRANCH  11  12
ENDBRANCH  10  11
ENDBRANCH   1  10
TORSDOF 11
