MODEL 1
REMARK VINA RESULT:      -4.2      0.000      0.000
REMARK  11 active torsions:
REMARK  status: ('A' for Active; 'I' for Inactive)
REMARK    1  A    between atoms: N_1  and  C_3 
REMARK    2  A    between atoms: N_2  and  C_4 
REMARK    3  A    between atoms: C_3  and  C_5 
REMARK    4  A    between atoms: C_4  and  C_6 
REMARK    5  A    between atoms: C_5  and  C_7 
REMARK    6  A    between atoms: C_6  and  C_8 
REMARK    7  A    between atoms: C_7  and  C_9 
REMARK    8  A    between atoms: C_8  and  C_10 
REMARK    9  A    between atoms: C_9  and  C_11 
REMARK   10  A    between atoms: C_10  and  C_12 
REMARK   11  A    between atoms: C_11  and  C_12 
ROOT
HETATM    1  C   UNK N   1      26.196  24.140  -4.533  0.00  0.00     0.000 C 
ENDROOT
BRANCH   1   2
HETATM    2  C   UNK N   1      26.806  24.846  -5.723  0.00  0.00     0.000 C 
BRANCH   2   3
HETATM    3  C   UNK N   1      25.714  25.540  -6.513  0.00  0.00     0.002 C 
BRANCH   3   4
HETATM    4  C   UNK N   1      25.318  26.823  -5.809  0.00  0.00     0.028 C 
BRANCH   4   5
HETATM    5  C   UNK N   1      26.474  27.825  -5.807  0.00  0.00     0.236 C 
BRANCH   5   6
HETATM    6  N   UNK N   1      26.805  28.330  -4.473  0.00  0.00    -0.079 N 
HETATM    7  C   UNK N   1      25.776  27.962  -3.512  0.00  0.00     0.271 C 
HETATM    8  C   UNK N   1      26.866  29.778  -4.539  0.00  0.00     0.271 C 
HETATM    9  C   UNK N   1      28.099  27.844  -4.013  0.00  0.00     0.271 C 
ENDBRANCH   5   6
ENDBRANCH   4   5
ENDBRANCH   3   4
ENDBRANCH   2   3
ENDBRANCH   1   2
BRANCH   1  10
HETATM   10  C   UNK N   1      27.092  24.336  -3.328  0.00  0.00     0.000 C 
BRANCH  10  11
HETATM   11  C   UNK N   1      28.473  23.807  -3.648  0.00  0.00     0.000 C 
BRANCH  11  12
HETATM   12  C   UNK N   1      29.059  23.145  -2.418  0.00  0.00     0.002 C 
BRANCH  12  13
HETATM   13  C   UNK N   1      30.435  22.600  -2.745  0.00  0.00     0.028 C 
BRANCH  13  14
HETATM   14  C   UNK N   1      30.331  21.258  -3.472  0.00  0.00     0.236 C 
BRANCH  14  15
HETATM   15  N   UNK N   1      31.127  21.204  -4.704  0.00  0.00    -0.079 N 
HETATM   16  C   UNK N   1      31.910  22.418  -4.864  0.00  0.00     0.271 C 
HETATM   17  C   UNK N   1      30.211  21.104  -5.827  0.00  0.00     0.271 C 
HETATM   18  C   UNK N   1      32.006  20.045  -4.735  0.00  0.00     0.271 C 
ENDBRANCH  14  15
ENDBRANCH  13  14
ENDBRANCH  12  13
ENDBRANCH  11  12
ENDBRANCH  10  11
ENDBRANCH   1  10
TORSDOF 11
ENDMDL
MODEL 2
REMARK VINA RESULT:      -4.2      1.265      6.752
REMARK  11 active torsions:
REMARK  status: ('A' for Active; 'I' for Inactive)
REMARK    1  A    between atoms: N_1  and  C_3 
REMARK    2  A    between atoms: N_2  and  C_4 
REMARK    3  A    between atoms: C_3  and  C_5 
REMARK    4  A    between atoms: C_4  and  C_6 
REMARK    5  A    between atoms: C_5  and  C_7 
REMARK    6  A    between atoms: C_6  and  C_8 
REMARK    7  A    between atoms: C_7  and  C_9 
REMARK    8  A    between atoms: C_8  and  C_10 
REMARK    9  A    between atoms: C_9  and  C_11 
REMARK   10  A    between atoms: C_10  and  C_12 
REMARK   11  A    between atoms: C_11  and  C_12 
ROOT
HETATM    1  C   UNK N   1      27.198  24.736  -5.619  0.00  0.00     0.000 C 
ENDROOT
BRANCH   1   2
HETATM    2  C   UNK N   1      26.332  24.205  -4.499  0.00  0.00     0.000 C 
BRANCH   2   3
HETATM    3  C   UNK N   1      27.147  24.123  -3.224  0.00  0.00     0.002 C 
BRANCH   3   4
HETATM    4  C   UNK N   1      28.616  24.298  -3.551  0.00  0.00     0.028 C 
BRANCH   4   5
HETATM    5  C   UNK N   1      29.460  23.224  -2.864  0.00  0.00     0.236 C 
BRANCH   5   6
HETATM    6  N   UNK N   1      30.594  22.768  -3.672  0.00  0.00    -0.079 N 
HETATM    7  C   UNK N   1      31.296  23.899  -4.260  0.00  0.00     0.271 C 
HETATM    8  C   UNK N   1      30.080  21.944  -4.749  0.00  0.00     0.271 C 
HETATM    9  C   UNK N   1      31.528  21.964  -2.894  0.00  0.00     0.271 C 
ENDBRANCH   5   6
ENDBRANCH   4   5
ENDBRANCH   3   4
ENDBRANCH   2   3
ENDBRANCH   1   2
BRANCH   1  10
HETATM   10  C   UNK N   1      26.536  25.958  -6.221  0.00  0.00     0.000 C 
BRANCH  10  11
HETATM   11  C   UNK N   1      25.161  26.125  -5.613  0.00  0.00     0.000 C 
BRANCH  11  12
HETATM   12  C   UNK N   1      24.977  27.560  -5.164  0.00  0.00     0.002 C 
BRANCH  12  13
HETATM   13  C   UNK N   1      25.727  27.784  -3.867  0.00  0.00     0.028 C 
BRANCH  13  14
HETATM   14  C   UNK N   1      26.282  29.207  -3.796  0.00  0.00     0.236 C 
BRANCH  14  15
HETATM   15  N   UNK N   1      27.707  29.256  -3.445  0.00  0.00    -0.079 N 
HETATM   16  C   UNK N   1      27.878  29.570  -2.036  0.00  0.00     0.271 C 
HETATM   17  C   UNK N   1      28.325  30.315  -4.224  0.00  0.00     0.271 C 
HETATM   18  C   UNK N   1      28.389  28.010  -3.757  0.00  0.00     0.271 C 
ENDBRANCH  14  15
ENDBRANCH  13  14
ENDBRANCH  12  13
ENDBRANCH  11  12
ENDBRANCH  10  11
ENDBRANCH   1  10
TORSDOF 11
ENDMDL
MODEL 3
REMARK VINA RESULT:      -4.0      3.402      4.506
REMARK  11 active torsions:
REMARK  status: ('A' for Active; 'I' for Inactive)
REMARK    1  A    between atoms: N_1  and  C_3 
REMARK    2  A    between atoms: N_2  and  C_4 
REMARK    3  A    between atoms: C_3  and  C_5 
REMARK    4  A    between atoms: C_4  and  C_6 
REMARK    5  A    between atoms: C_5  and  C_7 
REMARK    6  A    between atoms: C_6  and  C_8 
REMARK    7  A    between atoms: C_7  and  C_9 
REMARK    8  A    between atoms: C_8  and  C_10 
REMARK    9  A    between atoms: C_9  and  C_11 
REMARK   10  A    between atoms: C_10  and  C_12 
REMARK   11  A    between atoms: C_11  and  C_12 
ROOT
HETATM    1  C   UNK N   1      25.634  27.343  -5.974  0.00  0.00     0.000 C 
ENDROOT
BRANCH   1   2
HETATM    2  C   UNK N   1      26.787  27.142  -6.932  0.00  0.00     0.000 C 
BRANCH   2   3
HETATM    3  C   UNK N   1      27.708  28.344  -6.873  0.00  0.00     0.002 C 
BRANCH   3   4
HETATM    4  C   UNK N   1      27.431  29.133  -5.609  0.00  0.00     0.028 C 
BRANCH   4   5
HETATM    5  C   UNK N   1      28.732  29.468  -4.878  0.00  0.00     0.236 C 
BRANCH   5   6
HETATM    6  N   UNK N   1      28.866  28.793  -3.585  0.00  0.00    -0.079 N 
HETATM    7  C   UNK N   1      29.371  27.440  -3.761  0.00  0.00     0.271 C 
HETATM    8  C   UNK N   1      27.551  28.710  -2.979  0.00  0.00     0.271 C 
HETATM    9  C   UNK N   1      29.738  29.525  -2.676  0.00  0.00     0.271 C 
ENDBRANCH   5   6
ENDBRANCH   4   5
ENDBRANCH   3   4
ENDBRANCH   2   3
ENDBRANCH   1   2
BRANCH   1  10
HETATM   10  C   UNK N   1      25.206  25.998  -5.425  0.00  0.00     0.000 C 
BRANCH  10  11
HETATM   11  C   UNK N   1      26.184  25.568  -4.353  0.00  0.00     0.000 C 
BRANCH  11  12
HETATM   12  C   UNK N   1      26.688  24.172  -4.659  0.00  0.00     0.002 C 
BRANCH  12  13
HETATM   13  C   UNK N   1      25.827  23.549  -5.739  0.00  0.00     0.028 C 
BRANCH  13  14
HETATM   14  C   UNK N   1      26.691  22.973  -6.862  0.00  0.00     0.236 C 
BRANCH  14  15
HETATM   15  N   UNK N   1      25.926  22.642  -8.070  0.00  0.00    -0.079 N 
HETATM   16  C   UNK N   1      24.884  21.674  -7.770  0.00  0.00     0.271 C 
HETATM   17  C   UNK N   1      26.838  22.044  -9.030  0.00  0.00     0.271 C 
HETATM   18  C   UNK N   1      25.337  23.822  -8.683  0.00  0.00     0.271 C 
ENDBRANCH  14  15
ENDBRANCH  13  14
ENDBRANCH  12  13
ENDBRANCH  11  12
ENDBRANCH  10  11
ENDBRANCH   1  10
TORSDOF 11
ENDMDL
MODEL 4
REMARK VINA RESULT:      -4.0      2.414      5.479
REMARK  11 active torsions:
REMARK  status: ('A' for Active; 'I' for Inactive)
REMARK    1  A    between atoms: N_1  and  C_3 
REMARK    2  A    between atoms: N_2  and  C_4 
REMARK    3  A    between atoms: C_3  and  C_5 
REMARK    4  A    between atoms: C_4  and  C_6 
REMARK    5  A    between atoms: C_5  and  C_7 
REMARK    6  A    between atoms: C_6  and  C_8 
REMARK    7  A    between atoms: C_7  and  C_9 
REMARK    8  A    between atoms: C_8  and  C_10 
REMARK    9  A    between atoms: C_9  and  C_11 
REMARK   10  A    between atoms: C_10  and  C_12 
REMARK   11  A    between atoms: C_11  and  C_12 
ROOT
HETATM    1  C   UNK N   1      26.775  27.450  -3.631  0.00  0.00     0.000 C 
ENDROOT
BRANCH   1   2
HETATM    2  C   UNK N   1      27.965  28.101  -4.302  0.00  0.00     0.000 C 
BRANCH   2   3
HETATM    3  C   UNK N   1      29.227  27.345  -3.937  0.00  0.00     0.002 C 
BRANCH   3   4
HETATM    4  C   UNK N   1      29.142  25.930  -4.470  0.00  0.00     0.028 C 
BRANCH   4   5
HETATM    5  C   UNK N   1      30.002  24.979  -3.635  0.00  0.00     0.236 C 
BRANCH   5   6
HETATM    6  N   UNK N   1      29.384  23.669  -3.422  0.00  0.00    -0.079 N 
HETATM    7  C   UNK N   1      29.510  22.840  -4.611  0.00  0.00     0.271 C 
HETATM    8  C   UNK N   1      27.972  23.870  -3.159  0.00  0.00     0.271 C 
HETATM    9  C   UNK N   1      29.962  22.973  -2.279  0.00  0.00     0.271 C 
ENDBRANCH   5   6
ENDBRANCH   4   5
ENDBRANCH   3   4
ENDBRANCH   2   3
ENDBRANCH   1   2
BRANCH   1  10
HETATM   10  C   UNK N   1      25.503  27.965  -4.270  0.00  0.00     0.000 C 
BRANCH  10  11
HETATM   11  C   UNK N   1      25.315  27.291  -5.611  0.00  0.00     0.000 C 
BRANCH  11  12
HETATM   12  C   UNK N   1      25.238  25.790  -5.417  0.00  0.00     0.002 C 
BRANCH  12  13
HETATM   13  C   UNK N   1      25.857  25.094  -6.612  0.00  0.00     0.028 C 
BRANCH  13  14
HETATM   14  C   UNK N   1      26.021  23.597  -6.347  0.00  0.00     0.236 C 
BRANCH  14  15
HETATM   15  N   UNK N   1      25.932  22.779  -7.563  0.00  0.00    -0.079 N 
HETATM   16  C   UNK N   1      25.461  23.576  -8.684  0.00  0.00     0.271 C 
HETATM   17  C   UNK N   1      24.969  21.720  -7.323  0.00  0.00     0.271 C 
HETATM   18  C   UNK N   1      27.206  22.163  -7.900  0.00  0.00     0.271 C 
ENDBRANCH  14  15
ENDBRANCH  13  14
ENDBRANCH  12  13
ENDBRANCH  11  12
ENDBRANCH  10  11
ENDBRANCH   1  10
TORSDOF 11
ENDMDL
MODEL 5
REMARK VINA RESULT:      -4.0     12.837     15.776
REMARK  11 active torsions:
REMARK  status: ('A' for Active; 'I' for Inactive)
REMARK    1  A    between atoms: N_1  and  C_3 
REMARK    2  A    between atoms: N_2  and  C_4 
REMARK    3  A    between atoms: C_3  and  C_5 
REMARK    4  A    between atoms: C_4  and  C_6 
REMARK    5  A    between atoms: C_5  and  C_7 
REMARK    6  A    between atoms: C_6  and  C_8 
REMARK    7  A    between atoms: C_7  and  C_9 
REMARK    8  A    between atoms: C_8  and  C_10 
REMARK    9  A    between atoms: C_9  and  C_11 
REMARK   10  A    between atoms: C_10  and  C_12 
REMARK   11  A    between atoms: C_11  and  C_12 
ROOT
HETATM    1  C   UNK N   1      31.200  16.457   6.132  0.00  0.00     0.000 C 
ENDROOT
BRANCH   1   2
HETATM    2  C   UNK N   1      31.108  17.237   4.839  0.00  0.00     0.000 C 
BRANCH   2   3
HETATM    3  C   UNK N   1      32.501  17.619   4.379  0.00  0.00     0.002 C 
BRANCH   3   4
HETATM    4  C   UNK N   1      33.413  16.413   4.470  0.00  0.00     0.028 C 
BRANCH   4   5
HETATM    5  C   UNK N   1      33.382  15.605   3.172  0.00  0.00     0.236 C 
BRANCH   5   6
HETATM    6  N   UNK N   1      33.619  14.173   3.370  0.00  0.00    -0.079 N 
HETATM    7  C   UNK N   1      33.646  13.474   2.094  0.00  0.00     0.271 C 
HETATM    8  C   UNK N   1      32.525  13.637   4.157  0.00  0.00     0.271 C 
HETATM    9  C   UNK N   1      34.861  13.922   4.090  0.00  0.00     0.271 C 
ENDBRANCH   5   6
ENDBRANCH   4   5
ENDBRANCH   3   4
ENDBRANCH   2   3
ENDBRANCH   1   2
BRANCH   1  10
HETATM   10  C   UNK N   1      30.660  17.307   7.263  0.00  0.00     0.000 C 
BRANCH  10  11
HETATM   11  C   UNK N   1      31.647  17.289   8.409  0.00  0.00     0.000 C 
BRANCH  11  12
HETATM   12  C   UNK N   1      32.840  18.156   8.064  0.00  0.00     0.002 C 
BRANCH  12  13
HETATM   13  C   UNK N   1      34.106  17.499   8.573  0.00  0.00     0.028 C 
BRANCH  13  14
HETATM   14  C   UNK N   1      33.817  16.094   9.105  0.00  0.00     0.236 C 
BRANCH  14  15
HETATM   15  N   UNK N   1      34.853  15.595  10.018  0.00  0.00    -0.079 N 
HETATM   16  C   UNK N   1      35.842  14.813   9.294  0.00  0.00     0.271 C 
HETATM   17  C   UNK N   1      34.213  14.728  10.992  0.00  0.00     0.271 C 
HETATM   18  C   UNK N   1      35.511  16.674  10.738  0.00  0.00     0.271 C 
ENDBRANCH  14  15
ENDBRANCH  13  14
ENDBRANCH  12  13
ENDBRANCH  11  12
ENDBRANCH  10  11
ENDBRANCH   1  10
TORSDOF 11
ENDMDL
MODEL 6
REMARK VINA RESULT:      -4.0      1.542      2.893
REMARK  11 active torsions:
REMARK  status: ('A' for Active; 'I' for Inactive)
REMARK    1  A    between atoms: N_1  and  C_3 
REMARK    2  A    between atoms: N_2  and  C_4 
REMARK    3  A    between atoms: C_3  and  C_5 
REMARK    4  A    between atoms: C_4  and  C_6 
REMARK    5  A    between atoms: C_5  and  C_7 
REMARK    6  A    between atoms: C_6  and  C_8 
REMARK    7  A    between atoms: C_7  and  C_9 
REMARK    8  A    between atoms: C_8  and  C_10 
REMARK    9  A    between atoms: C_9  and  C_11 
REMARK   10  A    between atoms: C_10  and  C_12 
REMARK   11  A    between atoms: C_11  and  C_12 
ROOT
HETATM    1  C   UNK N   1      26.625  25.840  -6.957  0.00  0.00     0.000 C 
ENDROOT
BRANCH   1   2
HETATM    2  C   UNK N   1      25.666  27.008  -6.906  0.00  0.00     0.000 C 
BRANCH   2   3
HETATM    3  C   UNK N   1      24.867  26.950  -5.620  0.00  0.00     0.002 C 
BRANCH   3   4
HETATM    4  C   UNK N   1      25.814  26.930  -4.436  0.00  0.00     0.028 C 
BRANCH   4   5
HETATM    5  C   UNK N   1      25.889  28.307  -3.774  0.00  0.00     0.236 C 
BRANCH   5   6
HETATM    6  N   UNK N   1      27.236  28.882  -3.776  0.00  0.00    -0.079 N 
HETATM    7  C   UNK N   1      27.390  29.827  -4.872  0.00  0.00     0.271 C 
HETATM    8  C   UNK N   1      28.188  27.806  -3.968  0.00  0.00     0.271 C 
HETATM    9  C   UNK N   1      27.548  29.543  -2.515  0.00  0.00     0.271 C 
ENDBRANCH   5   6
ENDBRANCH   4   5
ENDBRANCH   3   4
ENDBRANCH   2   3
ENDBRANCH   1   2
BRANCH   1  10
HETATM   10  C   UNK N   1      25.842  24.565  -7.187  0.00  0.00     0.000 C 
BRANCH  10  11
HETATM   11  C   UNK N   1      26.276  23.529  -6.174  0.00  0.00     0.000 C 
BRANCH  11  12
HETATM   12  C   UNK N   1      27.788  23.436  -6.161  0.00  0.00     0.002 C 
BRANCH  12  13
HETATM   13  C   UNK N   1      28.289  23.545  -4.735  0.00  0.00     0.028 C 
BRANCH  13  14
HETATM   14  C   UNK N   1      29.640  22.846  -4.575  0.00  0.00     0.236 C 
BRANCH  14  15
HETATM   15  N   UNK N   1      30.303  23.149  -3.301  0.00  0.00    -0.079 N 
HETATM   16  C   UNK N   1      29.354  23.088  -2.201  0.00  0.00     0.271 C 
HETATM   17  C   UNK N   1      30.823  24.503  -3.376  0.00  0.00     0.271 C 
HETATM   18  C   UNK N   1      31.417  22.252  -3.039  0.00  0.00     0.271 C 
ENDBRANCH  14  15
ENDBRANCH  13  14
ENDBRANCH  12  13
ENDBRANCH  11  12
ENDBRANCH  10  11
ENDBRANCH   1  10
TORSDOF 11
ENDMDL
MODEL 7
REMARK VINA RESULT:      -4.0     12.166     14.532
REMARK  11 active torsions:
REMARK  status: ('A' for Active; 'I' for Inactive)
REMARK    1  A    between atoms: N_1  and  C_3 
REMARK    2  A    between atoms: N_2  and  C_4 
REMARK    3  A    between atoms: C_3  and  C_5 
REMARK    4  A    between atoms: C_4  and  C_6 
REMARK    5  A    between atoms: C_5  and  C_7 
REMARK    6  A    between atoms: C_6  and  C_8 
REMARK    7  A    between atoms: C_7  and  C_9 
REMARK    8  A    between atoms: C_8  and  C_10 
REMARK    9  A    between atoms: C_9  and  C_11 
REMARK   10  A    between atoms: C_10  and  C_12 
REMARK   11  A    between atoms: C_11  and  C_12 
ROOT
HETATM    1  C   UNK N   1      30.372  17.250   9.080  0.00  0.00     0.000 C 
ENDROOT
BRANCH   1   2
HETATM    2  C   UNK N   1      29.502  18.431   9.450  0.00  0.00     0.000 C 
BRANCH   2   3
HETATM    3  C   UNK N   1      28.165  18.313   8.747  0.00  0.00     0.002 C 
BRANCH   3   4
HETATM    4  C   UNK N   1      28.046  19.402   7.700  0.00  0.00     0.028 C 
BRANCH   4   5
HETATM    5  C   UNK N   1      27.678  18.811   6.337  0.00  0.00     0.236 C 
BRANCH   5   6
HETATM    6  N   UNK N   1      27.107  19.793   5.412  0.00  0.00    -0.079 N 
HETATM    7  C   UNK N   1      27.793  19.751   4.129  0.00  0.00     0.271 C 
HETATM    8  C   UNK N   1      27.291  21.114   5.981  0.00  0.00     0.271 C 
HETATM    9  C   UNK N   1      25.679  19.583   5.209  0.00  0.00     0.271 C 
ENDBRANCH   5   6
ENDBRANCH   4   5
ENDBRANCH   3   4
ENDBRANCH   2   3
ENDBRANCH   1   2
BRANCH   1  10
HETATM   10  C   UNK N   1      31.595  17.747   8.339  0.00  0.00     0.000 C 
BRANCH  10  11
HETATM   11  C   UNK N   1      31.519  17.290   6.899  0.00  0.00     0.000 C 
BRANCH  11  12
HETATM   12  C   UNK N   1      32.898  16.876   6.426  0.00  0.00     0.002 C 
BRANCH  12  13
HETATM   13  C   UNK N   1      33.313  15.602   7.134  0.00  0.00     0.028 C 
BRANCH  13  14
HETATM   14  C   UNK N   1      34.742  15.715   7.668  0.00  0.00     0.236 C 
BRANCH  14  15
HETATM   15  N   UNK N   1      34.831  15.551   9.124  0.00  0.00    -0.079 N 
HETATM   16  C   UNK N   1      35.977  14.730   9.480  0.00  0.00     0.271 C 
HETATM   17  C   UNK N   1      33.630  14.870   9.574  0.00  0.00     0.271 C 
HETATM   18  C   UNK N   1      34.910  16.829   9.813  0.00  0.00     0.271 C 
ENDBRANCH  14  15
ENDBRANCH  13  14
ENDBRANCH  12  13
ENDBRANCH  11  12
ENDBRANCH  10  11
ENDBRANCH   1  10
TORSDOF 11
ENDMDL
MODEL 8
REMARK VINA RESULT:      -4.0     10.502     13.892
REMARK  11 active torsions:
REMARK  status: ('A' for Active; 'I' for Inactive)
REMARK    1  A    between atoms: N_1  and  C_3 
REMARK    2  A    between atoms: N_2  and  C_4 
REMARK    3  A    between atoms: C_3  and  C_5 
REMARK    4  A    between atoms: C_4  and  C_6 
REMARK    5  A    between atoms: C_5  and  C_7 
REMARK    6  A    between atoms: C_6  and  C_8 
REMARK    7  A    between atoms: C_7  and  C_9 
REMARK    8  A    between atoms: C_8  and  C_10 
REMARK    9  A    between atoms: C_9  and  C_11 
REMARK   10  A    between atoms: C_10  and  C_12 
REMARK   11  A    between atoms: C_11  and  C_12 
ROOT
HETATM    1  C   UNK N   1      27.501  20.064   6.057  0.00  0.00     0.000 C 
ENDROOT
BRANCH   1   2
HETATM    2  C   UNK N   1      28.030  18.696   6.425  0.00  0.00     0.000 C 
BRANCH   2   3
HETATM    3  C   UNK N   1      28.301  18.643   7.915  0.00  0.00     0.002 C 
BRANCH   3   4
HETATM    4  C   UNK N   1      29.621  17.941   8.164  0.00  0.00     0.028 C 
BRANCH   4   5
HETATM    5  C   UNK N   1      30.152  17.303   6.879  0.00  0.00     0.236 C 
BRANCH   5   6
HETATM    6  N   UNK N   1      31.388  16.542   7.074  0.00  0.00    -0.079 N 
HETATM    7  C   UNK N   1      32.510  17.208   6.430  0.00  0.00     0.271 C 
HETATM    8  C   UNK N   1      31.220  15.239   6.458  0.00  0.00     0.271 C 
HETATM    9  C   UNK N   1      31.686  16.339   8.486  0.00  0.00     0.271 C 
ENDBRANCH   5   6
ENDBRANCH   4   5
ENDBRANCH   3   4
ENDBRANCH   2   3
ENDBRANCH   1   2
BRANCH   1  10
HETATM   10  C   UNK N   1      27.651  20.269   4.564  0.00  0.00     0.000 C 
BRANCH  10  11
HETATM   11  C   UNK N   1      26.634  19.411   3.843  0.00  0.00     0.000 C 
BRANCH  11  12
HETATM   12  C   UNK N   1      25.731  20.292   3.005  0.00  0.00     0.002 C 
BRANCH  12  13
HETATM   13  C   UNK N   1      24.287  20.058   3.401  0.00  0.00     0.028 C 
BRANCH  13  14
HETATM   14  C   UNK N   1      24.166  18.851   4.333  0.00  0.00     0.236 C 
BRANCH  14  15
HETATM   15  N   UNK N   1      22.820  18.265   4.350  0.00  0.00    -0.079 N 
HETATM   16  C   UNK N   1      22.345  18.108   5.715  0.00  0.00     0.271 C 
HETATM   17  C   UNK N   1      22.897  16.948   3.743  0.00  0.00     0.271 C 
HETATM   18  C   UNK N   1      21.870  19.059   3.587  0.00  0.00     0.271 C 
ENDBRANCH  14  15
ENDBRANCH  13  14
ENDBRANCH  12  13
ENDBRANCH  11  12
ENDBRANCH  10  11
ENDBRANCH   1  10
TORSDOF 11
ENDMDL
MODEL 9
REMARK VINA RESULT:      -4.0      1.648      6.618
REMARK  11 active torsions:
REMARK  status: ('A' for Active; 'I' for Inactive)
REMARK    1  A    between atoms: N_1  and  C_3 
REMARK    2  A    between atoms: N_2  and  C_4 
REMARK    3  A    between atoms: C_3  and  C_5 
REMARK    4  A    between atoms: C_4  and  C_6 
REMARK    5  A    between atoms: C_5  and  C_7 
REMARK    6  A    between atoms: C_6  and  C_8 
REMARK    7  A    between atoms: C_7  and  C_9 
REMARK    8  A    between atoms: C_8  and  C_10 
REMARK    9  A    between atoms: C_9  and  C_11 
REMARK   10  A    between atoms: C_10  and  C_12 
REMARK   11  A    between atoms: C_11  and  C_12 
ROOT
HETATM    1  C   UNK N   1      26.686  25.679  -6.710  0.00  0.00     0.000 C 
ENDROOT
BRANCH   1   2
HETATM    2  C   UNK N   1      25.775  24.757  -5.932  0.00  0.00     0.000 C 
BRANCH   2   3
HETATM    3  C   UNK N   1      26.611  23.769  -5.143  0.00  0.00     0.002 C 
BRANCH   3   4
HETATM    4  C   UNK N   1      27.869  24.452  -4.647  0.00  0.00     0.028 C 
BRANCH   4   5
HETATM    5  C   UNK N   1      29.079  23.525  -4.769  0.00  0.00     0.236 C 
BRANCH   5   6
HETATM    6  N   UNK N   1      29.994  23.607  -3.628  0.00  0.00    -0.079 N 
HETATM    7  C   UNK N   1      30.484  24.967  -3.459  0.00  0.00     0.271 C 
HETATM    8  C   UNK N   1      31.130  22.746  -3.895  0.00  0.00     0.271 C 
HETATM    9  C   UNK N   1      29.366  23.158  -2.392  0.00  0.00     0.271 C 
ENDBRANCH   5   6
ENDBRANCH   4   5
ENDBRANCH   3   4
ENDBRANCH   2   3
ENDBRANCH   1   2
BRANCH   1  10
HETATM   10  C   UNK N   1      26.194  27.104  -6.563  0.00  0.00     0.000 C 
BRANCH  10  11
HETATM   11  C   UNK N   1      24.959  27.111  -5.689  0.00  0.00     0.000 C 
BRANCH  11  12
HETATM   12  C   UNK N   1      25.218  27.947  -4.453  0.00  0.00     0.002 C 
BRANCH  12  13
HETATM   13  C   UNK N   1      26.472  28.772  -4.654  0.00  0.00     0.028 C 
BRANCH  13  14
HETATM   14  C   UNK N   1      26.720  29.691  -3.457  0.00  0.00     0.236 C 
BRANCH  14  15
HETATM   15  N   UNK N   1      28.117  29.690  -3.005  0.00  0.00    -0.079 N 
HETATM   16  C   UNK N   1      28.852  30.790  -3.606  0.00  0.00     0.271 C 
HETATM   17  C   UNK N   1      28.729  28.446  -3.437  0.00  0.00     0.271 C 
HETATM   18  C   UNK N   1      28.221  29.764  -1.556  0.00  0.00     0.271 C 
ENDBRANCH  14  15
ENDBRANCH  13  14
ENDBRANCH  12  13
ENDBRANCH  11  12
ENDBRANCH  10  11
ENDBRANCH   1  10
TORSDOF 11
ENDMDL
