REMARK  4 active torsions:
REMARK  status: ('A' for Active; 'I' for Inactive)
REMARK    1  A    between atoms: N_2  and  C_5 
REMARK    2  A    between atoms: N_3  and  C_6 
REMARK    3  A    between atoms: C_4  and  C_5 
REMARK    4  A    between atoms: C_4  and  C_6 
ROOT
HETATM    1  S   UNK N   1       2.758  -4.086  -0.123  0.00  0.00    -0.086 SA
HETATM    2  N   UNK N   1       3.447  -0.932  -0.011  0.00  0.00    -0.344 N 
HETATM    3  C   UNK N   1       4.539  -1.882   0.083  0.00  0.00     0.052 A 
HETATM    4  C   UNK N   1       2.065  -1.348  -0.014  0.00  0.00     0.052 A 
HETATM    5  C   UNK N   1       4.337  -3.289   0.051  0.00  0.00     0.032 A 
HETATM    6  C   UNK N   1       1.653  -2.700  -0.036  0.00  0.00     0.032 A 
HETATM    7  C   UNK N   1       5.865  -1.431   0.230  0.00  0.00     0.031 A 
HETATM    8  C   UNK N   1       1.056  -0.357   0.013  0.00  0.00     0.031 A 
HETATM    9  C   UNK N   1       5.432  -4.159   0.139  0.00  0.00     0.021 A 
HETATM   10  C   UNK N   1       0.287  -3.015  -0.024  0.00  0.00     0.021 A 
HETATM   11  C   UNK N   1       6.946  -2.306   0.314  0.00  0.00     0.002 A 
HETATM   12  C   UNK N   1      -0.298  -0.684   0.024  0.00  0.00     0.002 A 
HETATM   13  C   UNK N   1       6.729  -3.676   0.265  0.00  0.00     0.002 A 
HETATM   14  C   UNK N   1      -0.683  -2.018   0.010  0.00  0.00     0.002 A 
ENDROOT
BRANCH   2  15
HETATM   15  C   UNK N   1       3.643   0.534  -0.051  0.00  0.00     0.135 C 
BRANCH  15  16
HETATM   16  C   UNK N   1       5.016   1.196  -0.158  0.00  0.00     0.028 C 
HETATM   17  C   UNK N   1       5.631   0.907  -1.518  0.00  0.00     0.013 C 
BRANCH  16  18
HETATM   18  C   UNK N   1       4.765   2.703  -0.084  0.00  0.00     0.277 C 
BRANCH  18  19
HETATM   19  N   UNK N   1       5.842   3.443   0.568  0.00  0.00     0.080 N 
HETATM   20  C   UNK N   1       5.438   4.838   0.551  0.00  0.00     0.309 C 
HETATM   21  C   UNK N   1       7.055   3.363  -0.229  0.00  0.00     0.309 C 
ENDBRANCH  18  19
ENDBRANCH  16  18
ENDBRANCH  15  16
ENDBRANCH   2  15
TORSDOF 4
