MODEL 1
REMARK VINA RESULT:      -6.2      0.000      0.000
REMARK  4 active torsions:
REMARK  status: ('A' for Active; 'I' for Inactive)
REMARK    1  A    between atoms: N_2  and  C_5 
REMARK    2  A    between atoms: N_3  and  C_6 
REMARK    3  A    between atoms: C_4  and  C_5 
REMARK    4  A    between atoms: C_4  and  C_6 
ROOT
HETATM    1  S   UNK N   1      32.285  17.474   7.277  0.00  0.00    -0.086 SA
HETATM    2  N   UNK N   1      29.476  17.000   5.754  0.00  0.00    -0.344 N 
HETATM    3  C   UNK N   1      30.700  16.944   4.979  0.00  0.00     0.052 A 
HETATM    4  C   UNK N   1      29.463  17.394   7.142  0.00  0.00     0.052 A 
HETATM    5  C   UNK N   1      31.984  17.146   5.556  0.00  0.00     0.032 A 
HETATM    6  C   UNK N   1      30.631  17.651   7.895  0.00  0.00     0.032 A 
HETATM    7  C   UNK N   1      30.656  16.698   3.593  0.00  0.00     0.031 A 
HETATM    8  C   UNK N   1      28.217  17.540   7.796  0.00  0.00     0.031 A 
HETATM    9  C   UNK N   1      33.134  17.073   4.758  0.00  0.00     0.021 A 
HETATM   10  C   UNK N   1      30.525  18.041   9.238  0.00  0.00     0.021 A 
HETATM   11  C   UNK N   1      31.807  16.625   2.810  0.00  0.00     0.002 A 
HETATM   12  C   UNK N   1      28.127  17.928   9.131  0.00  0.00     0.002 A 
HETATM   13  C   UNK N   1      33.051  16.810   3.396  0.00  0.00     0.002 A 
HETATM   14  C   UNK N   1      29.285  18.184   9.852  0.00  0.00     0.002 A 
ENDROOT
BRANCH   2  15
HETATM   15  C   UNK N   1      28.138  16.722   5.185  0.00  0.00     0.135 C 
BRANCH  15  16
HETATM   16  C   UNK N   1      27.529  17.526   4.038  0.00  0.00     0.028 C 
HETATM   17  C   UNK N   1      26.485  16.692   3.312  0.00  0.00     0.013 C 
BRANCH  16  18
HETATM   18  C   UNK N   1      26.798  18.703   4.687  0.00  0.00     0.277 C 
BRANCH  18  19
HETATM   19  N   UNK N   1      27.239  20.006   4.197  0.00  0.00     0.080 N 
HETATM   20  C   UNK N   1      27.157  20.909   5.331  0.00  0.00     0.309 C 
HETATM   21  C   UNK N   1      26.301  20.510   3.208  0.00  0.00     0.309 C 
ENDBRANCH  18  19
ENDBRANCH  16  18
ENDBRANCH  15  16
ENDBRANCH   2  15
TORSDOF 4
ENDMDL
MODEL 2
REMARK VINA RESULT:      -6.2      3.098      6.008
REMARK  4 active torsions:
REMARK  status: ('A' for Active; 'I' for Inactive)
REMARK    1  A    between atoms: N_2  and  C_5 
REMARK    2  A    between atoms: N_3  and  C_6 
REMARK    3  A    between atoms: C_4  and  C_5 
REMARK    4  A    between atoms: C_4  and  C_6 
ROOT
HETATM    1  S   UNK N   1      29.563  17.783   5.156  0.00  0.00    -0.086 SA
HETATM    2  N   UNK N   1      31.845  16.698   7.169  0.00  0.00    -0.344 N 
HETATM    3  C   UNK N   1      32.072  16.584   5.741  0.00  0.00     0.052 A 
HETATM    4  C   UNK N   1      30.587  17.149   7.713  0.00  0.00     0.052 A 
HETATM    5  C   UNK N   1      31.125  17.025   4.776  0.00  0.00     0.032 A 
HETATM    6  C   UNK N   1      29.514  17.618   6.923  0.00  0.00     0.032 A 
HETATM    7  C   UNK N   1      33.258  16.003   5.251  0.00  0.00     0.031 A 
HETATM    8  C   UNK N   1      30.403  17.119   9.115  0.00  0.00     0.031 A 
HETATM    9  C   UNK N   1      31.402  16.896   3.408  0.00  0.00     0.021 A 
HETATM   10  C   UNK N   1      28.320  18.026   7.535  0.00  0.00     0.021 A 
HETATM   11  C   UNK N   1      33.523  15.882   3.889  0.00  0.00     0.002 A 
HETATM   12  C   UNK N   1      29.212  17.527   9.711  0.00  0.00     0.002 A 
HETATM   13  C   UNK N   1      32.593  16.333   2.963  0.00  0.00     0.002 A 
HETATM   14  C   UNK N   1      28.166  17.978   8.917  0.00  0.00     0.002 A 
ENDROOT
BRANCH   2  15
HETATM   15  C   UNK N   1      32.847  16.310   8.186  0.00  0.00     0.135 C 
BRANCH  15  16
HETATM   16  C   UNK N   1      34.245  16.922   8.265  0.00  0.00     0.028 C 
HETATM   17  C   UNK N   1      34.163  18.434   8.131  0.00  0.00     0.013 C 
BRANCH  16  18
HETATM   18  C   UNK N   1      34.760  16.618   9.673  0.00  0.00     0.277 C 
BRANCH  18  19
HETATM   19  N   UNK N   1      34.987  15.196   9.918  0.00  0.00     0.080 N 
HETATM   20  C   UNK N   1      34.510  14.939  11.265  0.00  0.00     0.309 C 
HETATM   21  C   UNK N   1      36.413  14.915   9.933  0.00  0.00     0.309 C 
ENDBRANCH  18  19
ENDBRANCH  16  18
ENDBRANCH  15  16
ENDBRANCH   2  15
TORSDOF 4
ENDMDL
MODEL 3
REMARK VINA RESULT:      -6.1      3.095      7.223
REMARK  4 active torsions:
REMARK  status: ('A' for Active; 'I' for Inactive)
REMARK    1  A    between atoms: N_2  and  C_5 
REMARK    2  A    between atoms: N_3  and  C_6 
REMARK    3  A    between atoms: C_4  and  C_5 
REMARK    4  A    between atoms: C_4  and  C_6 
ROOT
HETATM    1  S   UNK N   1      29.179  17.151   5.352  0.00  0.00    -0.086 SA
HETATM    2  N   UNK N   1      31.858  17.229   7.156  0.00  0.00    -0.344 N 
HETATM    3  C   UNK N   1      30.603  17.630   7.763  0.00  0.00     0.052 A 
HETATM    4  C   UNK N   1      31.969  16.932   5.748  0.00  0.00     0.052 A 
HETATM    5  C   UNK N   1      29.373  17.637   7.050  0.00  0.00     0.032 A 
HETATM    6  C   UNK N   1      30.867  16.897   4.864  0.00  0.00     0.032 A 
HETATM    7  C   UNK N   1      30.565  18.052   9.106  0.00  0.00     0.031 A 
HETATM    8  C   UNK N   1      33.249  16.665   5.208  0.00  0.00     0.031 A 
HETATM    9  C   UNK N   1      28.190  18.028   7.692  0.00  0.00     0.021 A 
HETATM   10  C   UNK N   1      31.068  16.612   3.506  0.00  0.00     0.021 A 
HETATM   11  C   UNK N   1      29.382  18.436   9.734  0.00  0.00     0.002 A 
HETATM   12  C   UNK N   1      33.435  16.383   3.856  0.00  0.00     0.002 A 
HETATM   13  C   UNK N   1      28.189  18.421   9.025  0.00  0.00     0.002 A 
HETATM   14  C   UNK N   1      32.340  16.361   3.002  0.00  0.00     0.002 A 
ENDROOT
BRANCH   2  15
HETATM   15  C   UNK N   1      33.134  17.147   7.899  0.00  0.00     0.135 C 
BRANCH  15  16
HETATM   16  C   UNK N   1      33.460  16.030   8.890  0.00  0.00     0.028 C 
HETATM   17  C   UNK N   1      32.544  14.840   8.655  0.00  0.00     0.013 C 
BRANCH  16  18
HETATM   18  C   UNK N   1      34.885  15.579   8.563  0.00  0.00     0.277 C 
BRANCH  18  19
HETATM   19  N   UNK N   1      35.782  15.600   9.715  0.00  0.00     0.080 N 
HETATM   20  C   UNK N   1      35.796  14.245  10.238  0.00  0.00     0.309 C 
HETATM   21  C   UNK N   1      35.224  16.434  10.766  0.00  0.00     0.309 C 
ENDBRANCH  18  19
ENDBRANCH  16  18
ENDBRANCH  15  16
ENDBRANCH   2  15
TORSDOF 4
ENDMDL
MODEL 4
REMARK VINA RESULT:      -5.8     10.891     13.848
REMARK  4 active torsions:
REMARK  status: ('A' for Active; 'I' for Inactive)
REMARK    1  A    between atoms: N_2  and  C_5 
REMARK    2  A    between atoms: N_3  and  C_6 
REMARK    3  A    between atoms: C_4  and  C_5 
REMARK    4  A    between atoms: C_4  and  C_6 
ROOT
HETATM    1  S   UNK N   1      25.952  25.018  -7.713  0.00  0.00    -0.086 SA
HETATM    2  N   UNK N   1      27.806  24.338  -5.157  0.00  0.00    -0.344 N 
HETATM    3  C   UNK N   1      27.833  23.434  -6.291  0.00  0.00     0.052 A 
HETATM    4  C   UNK N   1      26.884  25.445  -5.079  0.00  0.00     0.052 A 
HETATM    5  C   UNK N   1      27.048  23.643  -7.458  0.00  0.00     0.032 A 
HETATM    6  C   UNK N   1      26.011  25.814  -6.127  0.00  0.00     0.032 A 
HETATM    7  C   UNK N   1      28.644  22.283  -6.265  0.00  0.00     0.031 A 
HETATM    8  C   UNK N   1      26.836  26.209  -3.889  0.00  0.00     0.031 A 
HETATM    9  C   UNK N   1      27.121  22.738  -8.525  0.00  0.00     0.021 A 
HETATM   10  C   UNK N   1      25.136  26.897  -5.961  0.00  0.00     0.021 A 
HETATM   11  C   UNK N   1      28.710  21.392  -7.334  0.00  0.00     0.002 A 
HETATM   12  C   UNK N   1      25.963  27.283  -3.738  0.00  0.00     0.002 A 
HETATM   13  C   UNK N   1      27.947  21.622  -8.471  0.00  0.00     0.002 A 
HETATM   14  C   UNK N   1      25.107  27.625  -4.776  0.00  0.00     0.002 A 
ENDROOT
BRANCH   2  15
HETATM   15  C   UNK N   1      28.667  24.176  -3.964  0.00  0.00     0.135 C 
BRANCH  15  16
HETATM   16  C   UNK N   1      30.180  24.394  -3.984  0.00  0.00     0.028 C 
HETATM   17  C   UNK N   1      30.503  25.840  -3.646  0.00  0.00     0.013 C 
BRANCH  16  18
HETATM   18  C   UNK N   1      30.746  23.527  -2.858  0.00  0.00     0.277 C 
BRANCH  18  19
HETATM   19  N   UNK N   1      31.626  22.461  -3.328  0.00  0.00     0.080 N 
HETATM   20  C   UNK N   1      32.088  22.873  -4.643  0.00  0.00     0.309 C 
HETATM   21  C   UNK N   1      30.866  21.239  -3.530  0.00  0.00     0.309 C 
ENDBRANCH  18  19
ENDBRANCH  16  18
ENDBRANCH  15  16
ENDBRANCH   2  15
TORSDOF 4
ENDMDL
MODEL 5
REMARK VINA RESULT:      -5.7      0.565      4.146
REMARK  4 active torsions:
REMARK  status: ('A' for Active; 'I' for Inactive)
REMARK    1  A    between atoms: N_2  and  C_5 
REMARK    2  A    between atoms: N_3  and  C_6 
REMARK    3  A    between atoms: C_4  and  C_5 
REMARK    4  A    between atoms: C_4  and  C_6 
ROOT
HETATM    1  S   UNK N   1      32.402  17.653   7.283  0.00  0.00    -0.086 SA
HETATM    2  N   UNK N   1      29.693  16.720   5.791  0.00  0.00    -0.344 N 
HETATM    3  C   UNK N   1      29.594  17.243   7.141  0.00  0.00     0.052 A 
HETATM    4  C   UNK N   1      30.964  16.478   5.153  0.00  0.00     0.052 A 
HETATM    5  C   UNK N   1      30.729  17.671   7.883  0.00  0.00     0.032 A 
HETATM    6  C   UNK N   1      32.209  16.822   5.727  0.00  0.00     0.032 A 
HETATM    7  C   UNK N   1      28.343  17.328   7.782  0.00  0.00     0.031 A 
HETATM    8  C   UNK N   1      30.980  15.855   3.882  0.00  0.00     0.031 A 
HETATM    9  C   UNK N   1      30.571  18.174   9.181  0.00  0.00     0.021 A 
HETATM   10  C   UNK N   1      33.398  16.538   5.041  0.00  0.00     0.021 A 
HETATM   11  C   UNK N   1      28.199  17.832   9.073  0.00  0.00     0.002 A 
HETATM   12  C   UNK N   1      32.169  15.579   3.212  0.00  0.00     0.002 A 
HETATM   13  C   UNK N   1      29.318  18.260   9.774  0.00  0.00     0.002 A 
HETATM   14  C   UNK N   1      33.382  15.918   3.796  0.00  0.00     0.002 A 
ENDROOT
BRANCH   2  15
HETATM   15  C   UNK N   1      28.518  16.336   4.978  0.00  0.00     0.135 C 
BRANCH  15  16
HETATM   16  C   UNK N   1      27.928  17.222   3.882  0.00  0.00     0.028 C 
HETATM   17  C   UNK N   1      26.932  16.431   3.050  0.00  0.00     0.013 C 
BRANCH  16  18
HETATM   18  C   UNK N   1      27.145  18.320   4.604  0.00  0.00     0.277 C 
BRANCH  18  19
HETATM   19  N   UNK N   1      27.573  19.671   4.251  0.00  0.00     0.080 N 
HETATM   20  C   UNK N   1      27.610  20.418   5.496  0.00  0.00     0.309 C 
HETATM   21  C   UNK N   1      26.566  20.313   3.423  0.00  0.00     0.309 C 
ENDBRANCH  18  19
ENDBRANCH  16  18
ENDBRANCH  15  16
ENDBRANCH   2  15
TORSDOF 4
ENDMDL
MODEL 6
REMARK VINA RESULT:      -5.6      2.236      5.235
REMARK  4 active torsions:
REMARK  status: ('A' for Active; 'I' for Inactive)
REMARK    1  A    between atoms: N_2  and  C_5 
REMARK    2  A    between atoms: N_3  and  C_6 
REMARK    3  A    between atoms: C_4  and  C_5 
REMARK    4  A    between atoms: C_4  and  C_6 
ROOT
HETATM    1  S   UNK N   1      27.436  17.975   5.945  0.00  0.00    -0.086 SA
HETATM    2  N   UNK N   1      30.256  16.434   5.617  0.00  0.00    -0.344 N 
HETATM    3  C   UNK N   1      29.227  16.212   4.620  0.00  0.00     0.052 A 
HETATM    4  C   UNK N   1      30.014  17.207   6.812  0.00  0.00     0.052 A 
HETATM    5  C   UNK N   1      27.951  16.837   4.681  0.00  0.00     0.032 A 
HETATM    6  C   UNK N   1      28.808  17.898   7.068  0.00  0.00     0.032 A 
HETATM    7  C   UNK N   1      29.456  15.334   3.542  0.00  0.00     0.031 A 
HETATM    8  C   UNK N   1      31.030  17.278   7.793  0.00  0.00     0.031 A 
HETATM    9  C   UNK N   1      26.998  16.589   3.684  0.00  0.00     0.021 A 
HETATM   10  C   UNK N   1      28.653  18.614   8.263  0.00  0.00     0.021 A 
HETATM   11  C   UNK N   1      28.501  15.098   2.556  0.00  0.00     0.002 A 
HETATM   12  C   UNK N   1      30.863  17.994   8.976  0.00  0.00     0.002 A 
HETATM   13  C   UNK N   1      27.268  15.730   2.625  0.00  0.00     0.002 A 
HETATM   14  C   UNK N   1      29.668  18.661   9.213  0.00  0.00     0.002 A 
ENDROOT
BRANCH   2  15
HETATM   15  C   UNK N   1      31.613  15.849   5.533  0.00  0.00     0.135 C 
BRANCH  15  16
HETATM   16  C   UNK N   1      32.720  16.418   4.647  0.00  0.00     0.028 C 
HETATM   17  C   UNK N   1      32.280  17.743   4.045  0.00  0.00     0.013 C 
BRANCH  16  18
HETATM   18  C   UNK N   1      33.897  16.712   5.579  0.00  0.00     0.277 C 
BRANCH  18  19
HETATM   19  N   UNK N   1      34.278  15.576   6.415  0.00  0.00     0.080 N 
HETATM   20  C   UNK N   1      34.614  16.129   7.715  0.00  0.00     0.309 C 
HETATM   21  C   UNK N   1      35.496  14.969   5.905  0.00  0.00     0.309 C 
ENDBRANCH  18  19
ENDBRANCH  16  18
ENDBRANCH  15  16
ENDBRANCH   2  15
TORSDOF 4
ENDMDL
MODEL 7
REMARK VINA RESULT:      -5.6     10.787     14.161
REMARK  4 active torsions:
REMARK  status: ('A' for Active; 'I' for Inactive)
REMARK    1  A    between atoms: N_2  and  C_5 
REMARK    2  A    between atoms: N_3  and  C_6 
REMARK    3  A    between atoms: C_4  and  C_5 
REMARK    4  A    between atoms: C_4  and  C_6 
ROOT
HETATM    1  S   UNK N   1      25.866  24.458  -7.634  0.00  0.00    -0.086 SA
HETATM    2  N   UNK N   1      27.808  24.102  -5.077  0.00  0.00    -0.344 N 
HETATM    3  C   UNK N   1      26.902  25.234  -5.104  0.00  0.00     0.052 A 
HETATM    4  C   UNK N   1      27.966  23.217  -6.206  0.00  0.00     0.052 A 
HETATM    5  C   UNK N   1      26.014  25.480  -6.188  0.00  0.00     0.032 A 
HETATM    6  C   UNK N   1      27.188  23.301  -7.383  0.00  0.00     0.032 A 
HETATM    7  C   UNK N   1      26.883  26.157  -4.041  0.00  0.00     0.031 A 
HETATM    8  C   UNK N   1      28.956  22.208  -6.147  0.00  0.00     0.031 A 
HETATM    9  C   UNK N   1      25.156  26.587  -6.156  0.00  0.00     0.021 A 
HETATM   10  C   UNK N   1      27.418  22.407  -8.438  0.00  0.00     0.021 A 
HETATM   11  C   UNK N   1      26.022  27.253  -4.020  0.00  0.00     0.002 A 
HETATM   12  C   UNK N   1      29.174  21.326  -7.203  0.00  0.00     0.002 A 
HETATM   13  C   UNK N   1      25.152  27.467  -5.080  0.00  0.00     0.002 A 
HETATM   14  C   UNK N   1      28.405  21.429  -8.354  0.00  0.00     0.002 A 
ENDROOT
BRANCH   2  15
HETATM   15  C   UNK N   1      28.687  23.789  -3.929  0.00  0.00     0.135 C 
BRANCH  15  16
HETATM   16  C   UNK N   1      30.181  24.112  -3.901  0.00  0.00     0.028 C 
HETATM   17  C   UNK N   1      30.391  25.585  -3.588  0.00  0.00     0.013 C 
BRANCH  16  18
HETATM   18  C   UNK N   1      30.763  23.312  -2.734  0.00  0.00     0.277 C 
BRANCH  18  19
HETATM   19  N   UNK N   1      31.738  22.306  -3.146  0.00  0.00     0.080 N 
HETATM   20  C   UNK N   1      32.340  22.807  -4.369  0.00  0.00     0.309 C 
HETATM   21  C   UNK N   1      31.058  21.072  -3.505  0.00  0.00     0.309 C 
ENDBRANCH  18  19
ENDBRANCH  16  18
ENDBRANCH  15  16
ENDBRANCH   2  15
TORSDOF 4
ENDMDL
MODEL 8
REMARK VINA RESULT:      -5.6     11.687     13.658
REMARK  4 active torsions:
REMARK  status: ('A' for Active; 'I' for Inactive)
REMARK    1  A    between atoms: N_2  and  C_5 
REMARK    2  A    between atoms: N_3  and  C_6 
REMARK    3  A    between atoms: C_4  and  C_5 
REMARK    4  A    between atoms: C_4  and  C_6 
ROOT
HETATM    1  S   UNK N   1      29.500  21.678  -6.863  0.00  0.00    -0.086 SA
HETATM    2  N   UNK N   1      27.387  23.693  -5.480  0.00  0.00    -0.344 N 
HETATM    3  C   UNK N   1      28.716  23.584  -4.908  0.00  0.00     0.052 A 
HETATM    4  C   UNK N   1      26.941  22.837  -6.553  0.00  0.00     0.052 A 
HETATM    5  C   UNK N   1      29.712  22.720  -5.439  0.00  0.00     0.032 A 
HETATM    6  C   UNK N   1      27.774  21.902  -7.209  0.00  0.00     0.032 A 
HETATM    7  C   UNK N   1      29.064  24.335  -3.769  0.00  0.00     0.031 A 
HETATM    8  C   UNK N   1      25.594  22.922  -6.976  0.00  0.00     0.031 A 
HETATM    9  C   UNK N   1      30.981  22.662  -4.847  0.00  0.00     0.021 A 
HETATM   10  C   UNK N   1      27.253  21.100  -8.234  0.00  0.00     0.021 A 
HETATM   11  C   UNK N   1      30.330  24.270  -3.190  0.00  0.00     0.002 A 
HETATM   12  C   UNK N   1      25.089  22.120  -7.997  0.00  0.00     0.002 A 
HETATM   13  C   UNK N   1      31.294  23.433  -3.734  0.00  0.00     0.002 A 
HETATM   14  C   UNK N   1      25.922  21.202  -8.624  0.00  0.00     0.002 A 
ENDROOT
BRANCH   2  15
HETATM   15  C   UNK N   1      26.361  24.637  -4.986  0.00  0.00     0.135 C 
BRANCH  15  16
HETATM   16  C   UNK N   1      26.404  26.141  -5.252  0.00  0.00     0.028 C 
HETATM   17  C   UNK N   1      25.260  26.542  -6.169  0.00  0.00     0.013 C 
BRANCH  16  18
HETATM   18  C   UNK N   1      26.162  26.816  -3.901  0.00  0.00     0.277 C 
BRANCH  18  19
HETATM   19  N   UNK N   1      27.243  27.708  -3.491  0.00  0.00     0.080 N 
HETATM   20  C   UNK N   1      26.639  29.017  -3.316  0.00  0.00     0.309 C 
HETATM   21  C   UNK N   1      28.208  27.848  -4.569  0.00  0.00     0.309 C 
ENDBRANCH  18  19
ENDBRANCH  16  18
ENDBRANCH  15  16
ENDBRANCH   2  15
TORSDOF 4
ENDMDL
MODEL 9
REMARK VINA RESULT:      -5.6     10.648     13.356
REMARK  4 active torsions:
REMARK  status: ('A' for Active; 'I' for Inactive)
REMARK    1  A    between atoms: N_2  and  C_5 
REMARK    2  A    between atoms: N_3  and  C_6 
REMARK    3  A    between atoms: C_4  and  C_5 
REMARK    4  A    between atoms: C_4  and  C_6 
ROOT
HETATM    1  S   UNK N   1      36.037   9.193  17.223  0.00  0.00    -0.086 SA
HETATM    2  N   UNK N   1      35.190  11.312  14.936  0.00  0.00    -0.344 N 
HETATM    3  C   UNK N   1      35.231  11.762  16.314  0.00  0.00     0.052 A 
HETATM    4  C   UNK N   1      35.379   9.927  14.574  0.00  0.00     0.052 A 
HETATM    5  C   UNK N   1      35.584  10.903  17.391  0.00  0.00     0.032 A 
HETATM    6  C   UNK N   1      35.725   8.915  15.498  0.00  0.00     0.032 A 
HETATM    7  C   UNK N   1      34.898  13.091  16.640  0.00  0.00     0.031 A 
HETATM    8  C   UNK N   1      35.205   9.548  13.222  0.00  0.00     0.031 A 
HETATM    9  C   UNK N   1      35.614  11.396  18.703  0.00  0.00     0.021 A 
HETATM   10  C   UNK N   1      35.876   7.592  15.061  0.00  0.00     0.021 A 
HETATM   11  C   UNK N   1      34.934  13.570  17.948  0.00  0.00     0.002 A 
HETATM   12  C   UNK N   1      35.359   8.229  12.802  0.00  0.00     0.002 A 
HETATM   13  C   UNK N   1      35.296  12.720  18.983  0.00  0.00     0.002 A 
HETATM   14  C   UNK N   1      35.691   7.247  13.726  0.00  0.00     0.002 A 
ENDROOT
BRANCH   2  15
HETATM   15  C   UNK N   1      34.894  12.206  13.795  0.00  0.00     0.135 C 
BRANCH  15  16
HETATM   16  C   UNK N   1      35.904  13.198  13.221  0.00  0.00     0.028 C 
HETATM   17  C   UNK N   1      37.138  12.461  12.725  0.00  0.00     0.013 C 
BRANCH  16  18
HETATM   18  C   UNK N   1      35.230  13.828  12.001  0.00  0.00     0.277 C 
BRANCH  18  19
HETATM   19  N   UNK N   1      36.105  14.724  11.249  0.00  0.00     0.080 N 
HETATM   20  C   UNK N   1      35.497  16.041  11.331  0.00  0.00     0.309 C 
HETATM   21  C   UNK N   1      36.097  14.362   9.841  0.00  0.00     0.309 C 
ENDBRANCH  18  19
ENDBRANCH  16  18
ENDBRANCH  15  16
ENDBRANCH   2  15
TORSDOF 4
ENDMDL
