REMARK  4 active torsions:
REMARK  status: ('A' for Active; 'I' for Inactive)
REMARK    1  A    between atoms: N_3  and  N_4 
REMARK    2  A    between atoms: N_3  and  C_7 
REMARK       I    between atoms: N_4  and  C_12 
REMARK    3  A    between atoms: C_7  and  C_8 
REMARK    4  A    between atoms: C_11  and  C_12 
ROOT
HETATM    1  O   UNK N   1       5.851   0.052  -0.107  0.00  0.00    -0.264 OA
HETATM    2  N   UNK N   1       3.677  -0.353  -0.213  0.00  0.00    -0.269 N 
HETATM    3  C   UNK N   1       4.717   0.506  -0.108  0.00  0.00     0.288 C 
HETATM    4  H   UNK N   1       3.872  -1.315  -0.290  0.00  0.00     0.190 HD
ENDROOT
BRANCH   2   5
HETATM    5  N   UNK N   1       2.346   0.052  -0.219  0.00  0.00    -0.329 N 
HETATM    6  H   UNK N   1       1.947   0.786  -0.804  0.00  0.00     0.180 HD
BRANCH   5   7
HETATM    7  C   UNK N   1       1.618  -0.756   0.761  0.00  0.00     0.177 C 
BRANCH   7   8
HETATM    8  C   UNK N   1       1.696  -2.220   0.439  0.00  0.00    -0.039 A 
HETATM    9  C   UNK N   1       2.902  -2.915   0.609  0.00  0.00     0.009 A 
HETATM   10  C   UNK N   1       2.991  -4.268   0.281  0.00  0.00     0.001 A 
HETATM   11  C   UNK N   1       1.869  -4.938  -0.212  0.00  0.00     0.000 A 
HETATM   12  C   UNK N   1       0.658  -4.254  -0.368  0.00  0.00     0.001 A 
HETATM   13  C   UNK N   1       0.571  -2.896  -0.043  0.00  0.00     0.009 A 
ENDBRANCH   7   8
ENDBRANCH   5   7
ENDBRANCH   2   5
BRANCH   3  14
HETATM   14  C   UNK N   1       4.534   1.968  -0.019  0.00  0.00     0.126 A 
HETATM   15  N   UNK N   1       3.345   2.604   0.019  0.00  0.00    -0.256 N 
HETATM   16  O   UNK N   1       3.595   3.877   0.075  0.00  0.00    -0.242 OA
ATOM     17  HN  UNK N   1       2.424   2.168   0.005  1.00  0.00     0.195 HD
HETATM   18  C   UNK N   1       4.887   4.099   0.074  0.00  0.00     0.075 A 
HETATM   19  C   UNK N   1       5.556   2.897   0.016  0.00  0.00     0.071 A 
HETATM   20  C   UNK N   1       5.515   5.444   0.113  0.00  0.00     0.079 C 
ENDBRANCH   3  14
TORSDOF 4
