MODEL 1
REMARK VINA RESULT:      -6.1      0.000      0.000
REMARK  4 active torsions:
REMARK  status: ('A' for Active; 'I' for Inactive)
REMARK    1  A    between atoms: N_3  and  N_4 
REMARK    2  A    between atoms: N_3  and  C_7 
REMARK       I    between atoms: N_4  and  C_12 
REMARK    3  A    between atoms: C_7  and  C_8 
REMARK    4  A    between atoms: C_11  and  C_12 
ROOT
HETATM    1  O   UNK N   1      27.661  16.899   9.756  0.00  0.00    -0.264 OA
HETATM    2  N   UNK N   1      29.818  17.372   9.599  0.00  0.00    -0.269 N 
HETATM    3  C   UNK N   1      28.538  17.534   9.191  0.00  0.00     0.288 C 
HETATM    4  H   UNK N   1      29.996  16.750  10.342  0.00  0.00     0.190 HD
ENDROOT
BRANCH   2   5
HETATM    5  N   UNK N   1      30.896  18.038   9.025  0.00  0.00    -0.329 N 
HETATM    6  H   UNK N   1      30.972  19.046   8.889  0.00  0.00     0.180 HD
BRANCH   5   7
HETATM    7  C   UNK N   1      31.901  17.043   8.649  0.00  0.00     0.177 C 
BRANCH   7   8
HETATM    8  C   UNK N   1      32.105  16.997   7.162  0.00  0.00    -0.039 A 
HETATM    9  C   UNK N   1      33.255  17.562   6.592  0.00  0.00     0.009 A 
HETATM   10  C   UNK N   1      33.436  17.552   5.209  0.00  0.00     0.001 A 
HETATM   11  C   UNK N   1      32.470  16.968   4.386  0.00  0.00     0.000 A 
HETATM   12  C   UNK N   1      31.328  16.387   4.951  0.00  0.00     0.001 A 
HETATM   13  C   UNK N   1      31.146  16.402   6.338  0.00  0.00     0.009 A 
ENDBRANCH   7   8
ENDBRANCH   5   7
ENDBRANCH   2   5
BRANCH   3  14
HETATM   14  C   UNK N   1      28.161  18.464   8.108  0.00  0.00     0.126 A 
HETATM   15  N   UNK N   1      27.489  19.622   8.274  0.00  0.00    -0.256 N 
HETATM   16  O   UNK N   1      27.330  20.142   7.095  0.00  0.00    -0.242 OA
ATOM     17  HN  UNK N   1      27.166  20.013   9.157  1.00  0.00     0.195 HD
HETATM   18  C   UNK N   1      27.865  19.379   6.172  0.00  0.00     0.075 A 
HETATM   19  C   UNK N   1      28.425  18.270   6.766  0.00  0.00     0.071 A 
HETATM   20  C   UNK N   1      27.846  19.672   4.717  0.00  0.00     0.079 C 
ENDBRANCH   3  14
TORSDOF 4
ENDMDL
MODEL 2
REMARK VINA RESULT:      -6.1      3.593      6.329
REMARK  4 active torsions:
REMARK  status: ('A' for Active; 'I' for Inactive)
REMARK    1  A    between atoms: N_3  and  N_4 
REMARK    2  A    between atoms: N_3  and  C_7 
REMARK       I    between atoms: N_4  and  C_12 
REMARK    3  A    between atoms: C_7  and  C_8 
REMARK    4  A    between atoms: C_11  and  C_12 
ROOT
HETATM    1  O   UNK N   1      34.688  18.310   7.372  0.00  0.00    -0.264 OA
HETATM    2  N   UNK N   1      32.627  18.156   8.165  0.00  0.00    -0.269 N 
HETATM    3  C   UNK N   1      33.938  17.826   8.206  0.00  0.00     0.288 C 
HETATM    4  H   UNK N   1      32.324  18.780   7.466  0.00  0.00     0.190 HD
ENDROOT
BRANCH   2   5
HETATM    5  N   UNK N   1      31.683  17.661   9.059  0.00  0.00    -0.329 N 
HETATM    6  H   UNK N   1      31.641  17.867  10.058  0.00  0.00     0.180 HD
BRANCH   5   7
HETATM    7  C   UNK N   1      30.765  16.793   8.321  0.00  0.00     0.177 C 
BRANCH   7   8
HETATM    8  C   UNK N   1      29.783  17.588   7.510  0.00  0.00    -0.039 A 
HETATM    9  C   UNK N   1      28.972  18.549   8.131  0.00  0.00     0.009 A 
HETATM   10  C   UNK N   1      28.034  19.269   7.390  0.00  0.00     0.001 A 
HETATM   11  C   UNK N   1      27.908  19.038   6.018  0.00  0.00     0.000 A 
HETATM   12  C   UNK N   1      28.726  18.092   5.390  0.00  0.00     0.001 A 
HETATM   13  C   UNK N   1      29.663  17.367   6.135  0.00  0.00     0.009 A 
ENDBRANCH   7   8
ENDBRANCH   5   7
ENDBRANCH   2   5
BRANCH   3  14
HETATM   14  C   UNK N   1      34.499  16.925   9.231  0.00  0.00     0.126 A 
HETATM   15  N   UNK N   1      34.993  17.313  10.425  0.00  0.00    -0.256 N 
HETATM   16  O   UNK N   1      35.408  16.244  11.032  0.00  0.00    -0.242 OA
ATOM     17  HN  UNK N   1      35.035  18.267  10.782  1.00  0.00     0.195 HD
HETATM   18  C   UNK N   1      35.209  15.180  10.293  0.00  0.00     0.075 A 
HETATM   19  C   UNK N   1      34.618  15.554   9.107  0.00  0.00     0.071 A 
HETATM   20  C   UNK N   1      35.583  13.796  10.681  0.00  0.00     0.079 C 
ENDBRANCH   3  14
TORSDOF 4
ENDMDL
MODEL 3
REMARK VINA RESULT:      -6.0      2.555      3.740
REMARK  4 active torsions:
REMARK  status: ('A' for Active; 'I' for Inactive)
REMARK    1  A    between atoms: N_3  and  N_4 
REMARK    2  A    between atoms: N_3  and  C_7 
REMARK       I    between atoms: N_4  and  C_12 
REMARK    3  A    between atoms: C_7  and  C_8 
REMARK    4  A    between atoms: C_11  and  C_12 
ROOT
HETATM    1  O   UNK N   1      27.521  16.832   3.402  0.00  0.00    -0.264 OA
HETATM    2  N   UNK N   1      29.700  17.209   3.509  0.00  0.00    -0.269 N 
HETATM    3  C   UNK N   1      28.433  17.470   3.906  0.00  0.00     0.288 C 
HETATM    4  H   UNK N   1      29.842  16.510   2.831  0.00  0.00     0.190 HD
ENDROOT
BRANCH   2   5
HETATM    5  N   UNK N   1      30.813  17.877   4.011  0.00  0.00    -0.329 N 
HETATM    6  H   UNK N   1      30.936  18.889   4.049  0.00  0.00     0.180 HD
BRANCH   5   7
HETATM    7  C   UNK N   1      31.776  16.877   4.473  0.00  0.00     0.177 C 
BRANCH   7   8
HETATM    8  C   UNK N   1      32.276  17.186   5.854  0.00  0.00    -0.039 A 
HETATM    9  C   UNK N   1      31.390  17.185   6.940  0.00  0.00     0.009 A 
HETATM   10  C   UNK N   1      31.840  17.503   8.222  0.00  0.00     0.001 A 
HETATM   11  C   UNK N   1      33.186  17.817   8.426  0.00  0.00     0.000 A 
HETATM   12  C   UNK N   1      34.079  17.803   7.349  0.00  0.00     0.001 A 
HETATM   13  C   UNK N   1      33.625  17.488   6.064  0.00  0.00     0.009 A 
ENDBRANCH   7   8
ENDBRANCH   5   7
ENDBRANCH   2   5
BRANCH   3  14
HETATM   14  C   UNK N   1      28.114  18.476   4.938  0.00  0.00     0.126 A 
HETATM   15  N   UNK N   1      28.087  18.248   6.267  0.00  0.00    -0.256 N 
HETATM   16  O   UNK N   1      27.748  19.363   6.839  0.00  0.00    -0.242 OA
ATOM     17  HN  UNK N   1      28.293  17.366   6.735  1.00  0.00     0.195 HD
HETATM   18  C   UNK N   1      27.553  20.304   5.947  0.00  0.00     0.075 A 
HETATM   19  C   UNK N   1      27.777  19.792   4.688  0.00  0.00     0.071 A 
HETATM   20  C   UNK N   1      27.139  21.695   6.260  0.00  0.00     0.079 C 
ENDBRANCH   3  14
TORSDOF 4
ENDMDL
MODEL 4
REMARK VINA RESULT:      -6.0     11.376     14.154
REMARK  4 active torsions:
REMARK  status: ('A' for Active; 'I' for Inactive)
REMARK    1  A    between atoms: N_3  and  N_4 
REMARK    2  A    between atoms: N_3  and  C_7 
REMARK       I    between atoms: N_4  and  C_12 
REMARK    3  A    between atoms: C_7  and  C_8 
REMARK    4  A    between atoms: C_11  and  C_12 
ROOT
HETATM    1  O   UNK N   1      30.600  22.940  -1.459  0.00  0.00    -0.264 OA
HETATM    2  N   UNK N   1      28.927  23.801  -2.625  0.00  0.00    -0.269 N 
HETATM    3  C   UNK N   1      30.082  23.100  -2.554  0.00  0.00     0.288 C 
HETATM    4  H   UNK N   1      28.542  24.154  -1.790  0.00  0.00     0.190 HD
ENDROOT
BRANCH   2   5
HETATM    5  N   UNK N   1      28.253  24.049  -3.817  0.00  0.00    -0.329 N 
HETATM    6  H   UNK N   1      28.682  24.144  -4.737  0.00  0.00     0.180 HD
BRANCH   5   7
HETATM    7  C   UNK N   1      26.823  24.151  -3.521  0.00  0.00     0.177 C 
BRANCH   7   8
HETATM    8  C   UNK N   1      26.239  25.430  -4.047  0.00  0.00    -0.039 A 
HETATM    9  C   UNK N   1      25.621  25.456  -5.305  0.00  0.00     0.009 A 
HETATM   10  C   UNK N   1      25.105  26.647  -5.815  0.00  0.00     0.001 A 
HETATM   11  C   UNK N   1      25.196  27.821  -5.064  0.00  0.00     0.000 A 
HETATM   12  C   UNK N   1      25.796  27.798  -3.800  0.00  0.00     0.001 A 
HETATM   13  C   UNK N   1      26.318  26.604  -3.291  0.00  0.00     0.009 A 
ENDBRANCH   7   8
ENDBRANCH   5   7
ENDBRANCH   2   5
BRANCH   3  14
HETATM   14  C   UNK N   1      30.723  22.502  -3.741  0.00  0.00     0.126 A 
HETATM   15  N   UNK N   1      31.639  23.111  -4.522  0.00  0.00    -0.256 N 
HETATM   16  O   UNK N   1      31.946  22.279  -5.470  0.00  0.00    -0.242 OA
ATOM     17  HN  UNK N   1      32.018  24.049  -4.393  1.00  0.00     0.195 HD
HETATM   18  C   UNK N   1      31.275  21.161  -5.344  0.00  0.00     0.075 A 
HETATM   19  C   UNK N   1      30.461  21.240  -4.237  0.00  0.00     0.071 A 
HETATM   20  C   UNK N   1      31.375  20.004  -6.270  0.00  0.00     0.079 C 
ENDBRANCH   3  14
TORSDOF 4
ENDMDL
MODEL 5
REMARK VINA RESULT:      -5.7      9.281     11.285
REMARK  4 active torsions:
REMARK  status: ('A' for Active; 'I' for Inactive)
REMARK    1  A    between atoms: N_3  and  N_4 
REMARK    2  A    between atoms: N_3  and  C_7 
REMARK       I    between atoms: N_4  and  C_12 
REMARK    3  A    between atoms: C_7  and  C_8 
REMARK    4  A    between atoms: C_11  and  C_12 
ROOT
HETATM    1  O   UNK N   1      35.539  15.290  11.755  0.00  0.00    -0.264 OA
HETATM    2  N   UNK N   1      36.463  14.978  13.743  0.00  0.00    -0.269 N 
HETATM    3  C   UNK N   1      36.218  14.573  12.475  0.00  0.00     0.288 C 
HETATM    4  H   UNK N   1      36.089  15.840  14.038  0.00  0.00     0.190 HD
ENDROOT
BRANCH   2   5
HETATM    5  N   UNK N   1      37.217  14.241  14.650  0.00  0.00    -0.329 N 
HETATM    6  H   UNK N   1      38.219  14.060  14.588  0.00  0.00     0.180 HD
BRANCH   5   7
HETATM    7  C   UNK N   1      36.323  13.768  15.709  0.00  0.00     0.177 C 
BRANCH   7   8
HETATM    8  C   UNK N   1      35.797  12.393  15.417  0.00  0.00    -0.039 A 
HETATM    9  C   UNK N   1      36.673  11.298  15.378  0.00  0.00     0.009 A 
HETATM   10  C   UNK N   1      36.197  10.022  15.075  0.00  0.00     0.001 A 
HETATM   11  C   UNK N   1      34.837   9.832  14.817  0.00  0.00     0.000 A 
HETATM   12  C   UNK N   1      33.956  10.918  14.871  0.00  0.00     0.001 A 
HETATM   13  C   UNK N   1      34.435  12.197  15.170  0.00  0.00     0.009 A 
ENDBRANCH   7   8
ENDBRANCH   5   7
ENDBRANCH   2   5
BRANCH   3  14
HETATM   14  C   UNK N   1      36.757  13.314  11.925  0.00  0.00     0.126 A 
HETATM   15  N   UNK N   1      38.001  13.150  11.430  0.00  0.00    -0.256 N 
HETATM   16  O   UNK N   1      38.091  11.919  11.025  0.00  0.00    -0.242 OA
ATOM     17  HN  UNK N   1      38.732  13.858  11.381  1.00  0.00     0.195 HD
HETATM   18  C   UNK N   1      36.967  11.277  11.232  0.00  0.00     0.075 A 
HETATM   19  C   UNK N   1      36.057  12.128  11.817  0.00  0.00     0.071 A 
HETATM   20  C   UNK N   1      36.724   9.858  10.870  0.00  0.00     0.079 C 
ENDBRANCH   3  14
TORSDOF 4
ENDMDL
MODEL 6
REMARK VINA RESULT:      -5.7      8.465     10.693
REMARK  4 active torsions:
REMARK  status: ('A' for Active; 'I' for Inactive)
REMARK    1  A    between atoms: N_3  and  N_4 
REMARK    2  A    between atoms: N_3  and  C_7 
REMARK       I    between atoms: N_4  and  C_12 
REMARK    3  A    between atoms: C_7  and  C_8 
REMARK    4  A    between atoms: C_11  and  C_12 
ROOT
HETATM    1  O   UNK N   1      37.377  12.423  10.879  0.00  0.00    -0.264 OA
HETATM    2  N   UNK N   1      36.252  12.639  12.773  0.00  0.00    -0.269 N 
HETATM    3  C   UNK N   1      36.642  13.114  11.568  0.00  0.00     0.288 C 
HETATM    4  H   UNK N   1      36.570  11.749  13.049  0.00  0.00     0.190 HD
ENDROOT
BRANCH   2   5
HETATM    5  N   UNK N   1      35.423  13.341  13.642  0.00  0.00    -0.329 N 
HETATM    6  H   UNK N   1      34.426  13.511  13.511  0.00  0.00     0.180 HD
BRANCH   5   7
HETATM    7  C   UNK N   1      36.230  13.796  14.776  0.00  0.00     0.177 C 
BRANCH   7   8
HETATM    8  C   UNK N   1      35.904  13.035  16.028  0.00  0.00    -0.039 A 
HETATM    9  C   UNK N   1      35.398  13.708  17.149  0.00  0.00     0.009 A 
HETATM   10  C   UNK N   1      35.124  13.013  18.327  0.00  0.00     0.001 A 
HETATM   11  C   UNK N   1      35.347  11.636  18.388  0.00  0.00     0.000 A 
HETATM   12  C   UNK N   1      35.836  10.956  17.267  0.00  0.00     0.001 A 
HETATM   13  C   UNK N   1      36.115  11.654  16.088  0.00  0.00     0.009 A 
ENDBRANCH   7   8
ENDBRANCH   5   7
ENDBRANCH   2   5
BRANCH   3  14
HETATM   14  C   UNK N   1      36.197  14.422  11.048  0.00  0.00     0.126 A 
HETATM   15  N   UNK N   1      36.764  15.611  11.339  0.00  0.00    -0.256 N 
HETATM   16  O   UNK N   1      36.083  16.522  10.712  0.00  0.00    -0.242 OA
ATOM     17  HN  UNK N   1      37.573  15.766  11.939  1.00  0.00     0.195 HD
HETATM   18  C   UNK N   1      35.102  15.983  10.030  0.00  0.00     0.075 A 
HETATM   19  C   UNK N   1      35.121  14.618  10.204  0.00  0.00     0.071 A 
HETATM   20  C   UNK N   1      34.121  16.743   9.215  0.00  0.00     0.079 C 
ENDBRANCH   3  14
TORSDOF 4
ENDMDL
MODEL 7
REMARK VINA RESULT:      -5.6      3.449      6.125
REMARK  4 active torsions:
REMARK  status: ('A' for Active; 'I' for Inactive)
REMARK    1  A    between atoms: N_3  and  N_4 
REMARK    2  A    between atoms: N_3  and  C_7 
REMARK       I    between atoms: N_4  and  C_12 
REMARK    3  A    between atoms: C_7  and  C_8 
REMARK    4  A    between atoms: C_11  and  C_12 
ROOT
HETATM    1  O   UNK N   1      31.801  14.869   4.251  0.00  0.00    -0.264 OA
HETATM    2  N   UNK N   1      30.384  16.568   4.149  0.00  0.00    -0.269 N 
HETATM    3  C   UNK N   1      31.540  16.015   4.584  0.00  0.00     0.288 C 
HETATM    4  H   UNK N   1      29.796  16.027   3.574  0.00  0.00     0.190 HD
ENDROOT
BRANCH   2   5
HETATM    5  N   UNK N   1      29.984  17.861   4.471  0.00  0.00    -0.329 N 
HETATM    6  H   UNK N   1      30.310  18.717   4.022  0.00  0.00     0.180 HD
BRANCH   5   7
HETATM    7  C   UNK N   1      29.016  17.781   5.566  0.00  0.00     0.177 C 
BRANCH   7   8
HETATM    8  C   UNK N   1      28.100  18.970   5.583  0.00  0.00    -0.039 A 
HETATM    9  C   UNK N   1      27.566  19.465   4.385  0.00  0.00     0.009 A 
HETATM   10  C   UNK N   1      26.740  20.589   4.389  0.00  0.00     0.001 A 
HETATM   11  C   UNK N   1      26.436  21.222   5.597  0.00  0.00     0.000 A 
HETATM   12  C   UNK N   1      26.952  20.723   6.798  0.00  0.00     0.001 A 
HETATM   13  C   UNK N   1      27.784  19.598   6.792  0.00  0.00     0.009 A 
ENDBRANCH   7   8
ENDBRANCH   5   7
ENDBRANCH   2   5
BRANCH   3  14
HETATM   14  C   UNK N   1      32.506  16.751   5.424  0.00  0.00     0.126 A 
HETATM   15  N   UNK N   1      33.511  17.523   4.962  0.00  0.00    -0.256 N 
HETATM   16  O   UNK N   1      34.148  17.979   5.997  0.00  0.00    -0.242 OA
ATOM     17  HN  UNK N   1      33.730  17.711   3.985  1.00  0.00     0.195 HD
HETATM   18  C   UNK N   1      33.607  17.541   7.108  0.00  0.00     0.075 A 
HETATM   19  C   UNK N   1      32.531  16.737   6.805  0.00  0.00     0.071 A 
HETATM   20  C   UNK N   1      34.100  17.858   8.472  0.00  0.00     0.079 C 
ENDBRANCH   3  14
TORSDOF 4
ENDMDL
MODEL 8
REMARK VINA RESULT:      -5.6     13.062     15.944
REMARK  4 active torsions:
REMARK  status: ('A' for Active; 'I' for Inactive)
REMARK    1  A    between atoms: N_3  and  N_4 
REMARK    2  A    between atoms: N_3  and  C_7 
REMARK       I    between atoms: N_4  and  C_12 
REMARK    3  A    between atoms: C_7  and  C_8 
REMARK    4  A    between atoms: C_11  and  C_12 
ROOT
HETATM    1  O   UNK N   1      25.107  22.465  -6.325  0.00  0.00    -0.264 OA
HETATM    2  N   UNK N   1      25.987  24.033  -7.617  0.00  0.00    -0.269 N 
HETATM    3  C   UNK N   1      25.899  23.390  -6.430  0.00  0.00     0.288 C 
HETATM    4  H   UNK N   1      25.414  23.729  -8.357  0.00  0.00     0.190 HD
ENDROOT
BRANCH   2   5
HETATM    5  N   UNK N   1      26.849  25.101  -7.847  0.00  0.00    -0.329 N 
HETATM    6  H   UNK N   1      27.864  25.046  -7.920  0.00  0.00     0.180 HD
BRANCH   5   7
HETATM    7  C   UNK N   1      26.045  26.319  -7.966  0.00  0.00     0.177 C 
BRANCH   7   8
HETATM    8  C   UNK N   1      26.146  27.171  -6.734  0.00  0.00    -0.039 A 
HETATM    9  C   UNK N   1      27.239  28.033  -6.562  0.00  0.00     0.009 A 
HETATM   10  C   UNK N   1      27.357  28.804  -5.405  0.00  0.00     0.001 A 
HETATM   11  C   UNK N   1      26.375  28.724  -4.415  0.00  0.00     0.000 A 
HETATM   12  C   UNK N   1      25.274  27.878  -4.588  0.00  0.00     0.001 A 
HETATM   13  C   UNK N   1      25.159  27.102  -5.746  0.00  0.00     0.009 A 
ENDBRANCH   7   8
ENDBRANCH   5   7
ENDBRANCH   2   5
BRANCH   3  14
HETATM   14  C   UNK N   1      26.736  23.747  -5.268  0.00  0.00     0.126 A 
HETATM   15  N   UNK N   1      26.275  24.210  -4.088  0.00  0.00    -0.256 N 
HETATM   16  O   UNK N   1      27.310  24.427  -3.334  0.00  0.00    -0.242 OA
ATOM     17  HN  UNK N   1      25.299  24.361  -3.836  1.00  0.00     0.195 HD
HETATM   18  C   UNK N   1      28.419  24.131  -3.966  0.00  0.00     0.075 A 
HETATM   19  C   UNK N   1      28.115  23.680  -5.231  0.00  0.00     0.071 A 
HETATM   20  C   UNK N   1      29.783  24.279  -3.398  0.00  0.00     0.079 C 
ENDBRANCH   3  14
TORSDOF 4
ENDMDL
MODEL 9
REMARK VINA RESULT:      -5.5     13.283     14.762
REMARK  4 active torsions:
REMARK  status: ('A' for Active; 'I' for Inactive)
REMARK    1  A    between atoms: N_3  and  N_4 
REMARK    2  A    between atoms: N_3  and  C_7 
REMARK       I    between atoms: N_4  and  C_12 
REMARK    3  A    between atoms: C_7  and  C_8 
REMARK    4  A    between atoms: C_11  and  C_12 
ROOT
HETATM    1  O   UNK N   1      44.761  24.454   0.954  0.00  0.00    -0.264 OA
HETATM    2  N   UNK N   1      44.373  23.969   3.079  0.00  0.00    -0.269 N 
HETATM    3  C   UNK N   1      43.989  23.995   1.782  0.00  0.00     0.288 C 
HETATM    4  H   UNK N   1      45.265  24.316   3.308  0.00  0.00     0.190 HD
ENDROOT
BRANCH   2   5
HETATM    5  N   UNK N   1      43.574  23.475   4.105  0.00  0.00    -0.329 N 
HETATM    6  H   UNK N   1      42.724  23.910   4.463  0.00  0.00     0.180 HD
BRANCH   5   7
HETATM    7  C   UNK N   1      44.165  22.224   4.583  0.00  0.00     0.177 C 
BRANCH   7   8
HETATM    8  C   UNK N   1      43.645  21.040   3.822  0.00  0.00    -0.039 A 
HETATM    9  C   UNK N   1      44.537  20.173   3.174  0.00  0.00     0.009 A 
HETATM   10  C   UNK N   1      44.060  19.088   2.437  0.00  0.00     0.001 A 
HETATM   11  C   UNK N   1      42.685  18.859   2.352  0.00  0.00     0.000 A 
HETATM   12  C   UNK N   1      41.791  19.711   3.010  0.00  0.00     0.001 A 
HETATM   13  C   UNK N   1      42.270  20.800   3.745  0.00  0.00     0.009 A 
ENDBRANCH   7   8
ENDBRANCH   5   7
ENDBRANCH   2   5
BRANCH   3  14
HETATM   14  C   UNK N   1      42.685  23.471   1.329  0.00  0.00     0.126 A 
HETATM   15  N   UNK N   1      41.480  23.943   1.709  0.00  0.00    -0.256 N 
HETATM   16  O   UNK N   1      40.582  23.215   1.119  0.00  0.00    -0.242 OA
ATOM     17  HN  UNK N   1      41.307  24.722   2.342  1.00  0.00     0.195 HD
HETATM   18  C   UNK N   1      41.144  22.293   0.374  0.00  0.00     0.075 A 
HETATM   19  C   UNK N   1      42.513  22.406   0.465  0.00  0.00     0.071 A 
HETATM   20  C   UNK N   1      40.405  21.282  -0.423  0.00  0.00     0.079 C 
ENDBRANCH   3  14
TORSDOF 4
ENDMDL
