MODEL 1
REMARK VINA RESULT:      -7.3      0.000      0.000
REMARK  17 active torsions:
REMARK  status: ('A' for Active; 'I' for Inactive)
REMARK    1  A    between atoms: C_17  and  O_2 
REMARK    2  A    between atoms: O_2  and  C_36 
REMARK    3  A    between atoms: C_20  and  O_3 
REMARK    4  A    between atoms: O_3  and  C_37 
REMARK    5  A    between atoms: C_21  and  O_4 
REMARK    6  A    between atoms: C_22  and  O_5 
REMARK    7  A    between atoms: C_30  and  O_7 
REMARK    8  A    between atoms: C_31  and  O_8 
REMARK    9  A    between atoms: O_8  and  C_39 
REMARK   10  A    between atoms: C_41  and  O_12 
REMARK   11  A    between atoms: O_13  and  C_51 
REMARK   12  A    between atoms: O_13  and  C_55 
REMARK   13  A    between atoms: C_44  and  N_15 
REMARK       I    between atoms: N_15  and  C_51 
REMARK   14  A    between atoms: C_37  and  C_40 
REMARK   15  A    between atoms: C_39  and  C_41 
REMARK   16  A    between atoms: C_41  and  C_44 
REMARK   17  A    between atoms: C_44  and  C_48 
ROOT
HETATM    1  O   UNK N   1      35.486   7.680  11.657  0.00  0.00    -0.380 OA
HETATM    2  O   UNK N   1      34.978  12.963  12.550  0.00  0.00    -0.294 OA
HETATM    3  C   UNK N   1      34.914  10.648  10.286  0.00  0.00     0.076 C 
HETATM    4  C   UNK N   1      34.671   9.107  10.321  0.00  0.00     0.125 A 
HETATM    5  C   UNK N   1      36.047  11.180  11.354  0.00  0.00     0.055 C 
HETATM    6  C   UNK N   1      34.416   8.592  11.738  0.00  0.00     0.161 A 
HETATM    7  C   UNK N   1      34.712  11.341   8.848  0.00  0.00     0.176 C 
HETATM    8  C   UNK N   1      34.697  12.866   8.820  0.00  0.00     0.098 C 
HETATM    9  C   UNK N   1      35.963  10.307  12.627  0.00  0.00     0.137 C 
HETATM   10  C   UNK N   1      34.645   9.609  12.875  0.00  0.00     0.068 C 
HETATM   11  C   UNK N   1      36.194  13.384   8.799  0.00  0.00     0.013 C 
HETATM   12  C   UNK N   1      35.863   8.176  10.387  0.00  0.00     0.210 A 
HETATM   13  C   UNK N   1      35.892  12.696  11.782  0.00  0.00     0.171 C 
HETATM   14  C   UNK N   1      33.937  13.861   7.928  0.00  0.00     0.078 C 
HETATM   15  C   UNK N   1      36.125  14.379   9.890  0.00  0.00    -0.029 C 
HETATM   16  C   UNK N   1      37.482  10.821  10.991  0.00  0.00     0.027 C 
HETATM   17  C   UNK N   1      36.718  13.907  11.232  0.00  0.00     0.218 C 
HETATM   18  C   UNK N   1      34.301  15.362   8.405  0.00  0.00     0.164 C 
HETATM   19  C   UNK N   1      35.187  15.389   9.707  0.00  0.00    -0.048 C 
HETATM   20  C   UNK N   1      37.318  12.393   8.906  0.00  0.00     0.023 C 
HETATM   21  C   UNK N   1      36.699  13.968   7.497  0.00  0.00     0.023 C 
HETATM   22  C   UNK N   1      34.778  16.301  10.819  0.00  0.00     0.046 C 
ENDROOT
BRANCH  18  23
HETATM   23  O   UNK N   1      34.962  16.059   7.411  0.00  0.00    -0.309 OA
BRANCH  23  24
HETATM   24  C   UNK N   1      34.450  17.123   6.741  0.00  0.00     0.290 C 
HETATM   25  O   UNK N   1      34.579  18.260   7.171  0.00  0.00    -0.262 OA
BRANCH  24  26
HETATM   26  C   UNK N   1      33.600  16.831   5.536  0.00  0.00     0.244 C 
BRANCH  26  27
HETATM   27  O   UNK N   1      33.414  17.985   4.775  0.00  0.00    -0.383 OA
HETATM   28  H   UNK N   1      33.234  18.852   5.170  0.00  0.00     0.210 HD
ENDBRANCH  26  27
BRANCH  26  29
HETATM   29  C   UNK N   1      32.275  16.105   5.756  0.00  0.00     0.158 C 
BRANCH  29  30
HETATM   30  N   UNK N   1      31.182  17.003   6.125  0.00  0.00    -0.325 N 
HETATM   31  C   UNK N   1      30.674  17.189   7.375  0.00  0.00     0.361 C 
HETATM   32  O   UNK N   1      30.999  16.469   8.301  0.00  0.00    -0.238 OA
HETATM   33  H   UNK N   1      30.773  17.524   5.398  0.00  0.00     0.165 HD
BRANCH  31  34
HETATM   34  O   UNK N   1      29.839  18.246   7.586  0.00  0.00    -0.294 OA
BRANCH  34  35
HETATM   35  C   UNK N   1      28.453  18.164   7.717  0.00  0.00     0.061 C 
HETATM   36  C   UNK N   1      27.824  16.983   6.982  0.00  0.00     0.046 C 
HETATM   37  C   UNK N   1      28.133  17.994   9.188  0.00  0.00     0.046 C 
HETATM   38  C   UNK N   1      27.808  19.446   7.232  0.00  0.00     0.046 C 
ENDBRANCH  34  35
ENDBRANCH  31  34
ENDBRANCH  29  30
BRANCH  29  39
HETATM   39  C   UNK N   1      31.959  15.004   4.779  0.00  0.00    -0.032 A 
HETATM   40  C   UNK N   1      32.441  15.046   3.460  0.00  0.00     0.009 A 
HETATM   41  C   UNK N   1      32.200  13.989   2.586  0.00  0.00     0.001 A 
HETATM   42  C   UNK N   1      31.476  12.878   3.024  0.00  0.00     0.000 A 
HETATM   43  C   UNK N   1      30.995  12.826   4.335  0.00  0.00     0.001 A 
HETATM   44  C   UNK N   1      31.245  13.882   5.213  0.00  0.00     0.009 A 
ENDBRANCH  29  39
ENDBRANCH  26  29
ENDBRANCH  24  26
ENDBRANCH  23  24
ENDBRANCH  18  23
BRANCH   8  45
HETATM   45  O   UNK N   1      33.970  13.101  10.003  0.00  0.00    -0.386 OA
HETATM   46  H   UNK N   1      33.260  13.700  10.280  0.00  0.00     0.210 HD
ENDBRANCH   8  45
BRANCH   7  47
HETATM   47  O   UNK N   1      34.711  10.645   7.655  0.00  0.00    -0.308 OA
BRANCH  47  48
HETATM   48  C   UNK N   1      33.767  10.919   6.710  0.00  0.00     0.293 C 
HETATM   49  O   UNK N   1      32.578  10.855   6.997  0.00  0.00    -0.259 OA
BRANCH  48  50
HETATM   50  C   UNK N   1      34.151  11.167   5.305  0.00  0.00     0.039 A 
HETATM   51  C   UNK N   1      34.881  12.307   4.945  0.00  0.00     0.017 A 
HETATM   52  C   UNK N   1      35.274  12.497   3.615  0.00  0.00     0.001 A 
HETATM   53  C   UNK N   1      34.966  11.535   2.648  0.00  0.00     0.000 A 
HETATM   54  C   UNK N   1      34.247  10.393   3.003  0.00  0.00     0.001 A 
HETATM   55  C   UNK N   1      33.831  10.216   4.324  0.00  0.00     0.017 A 
ENDBRANCH  48  50
ENDBRANCH  47  48
ENDBRANCH   7  47
BRANCH  17  56
HETATM   56  O   UNK N   1      36.783  14.937  12.175  0.00  0.00    -0.384 OA
HETATM   57  H   UNK N   1      36.218  14.949  12.964  0.00  0.00     0.211 HD
ENDBRANCH  17  56
BRANCH   4  58
HETATM   58  O   UNK N   1      33.623   8.657   9.517  0.00  0.00    -0.305 OA
BRANCH  58  59
HETATM   59  C   UNK N   1      32.289   8.856   9.716  0.00  0.00     0.255 C 
HETATM   60  O   UNK N   1      31.810   9.981   9.752  0.00  0.00    -0.266 OA
HETATM   61  C   UNK N   1      31.398   7.679   9.899  0.00  0.00     0.126 C 
ENDBRANCH  58  59
ENDBRANCH   4  58
BRANCH   9  62
HETATM   62  O   UNK N   1      36.528  10.873  13.774  0.00  0.00    -0.394 OA
HETATM   63  H   UNK N   1      37.491  10.930  13.876  0.00  0.00     0.210 HD
ENDBRANCH   9  62
TORSDOF 17
ENDMDL
MODEL 2
REMARK VINA RESULT:      -7.2      2.383      3.577
REMARK  17 active torsions:
REMARK  status: ('A' for Active; 'I' for Inactive)
REMARK    1  A    between atoms: C_17  and  O_2 
REMARK    2  A    between atoms: O_2  and  C_36 
REMARK    3  A    between atoms: C_20  and  O_3 
REMARK    4  A    between atoms: O_3  and  C_37 
REMARK    5  A    between atoms: C_21  and  O_4 
REMARK    6  A    between atoms: C_22  and  O_5 
REMARK    7  A    between atoms: C_30  and  O_7 
REMARK    8  A    between atoms: C_31  and  O_8 
REMARK    9  A    between atoms: O_8  and  C_39 
REMARK   10  A    between atoms: C_41  and  O_12 
REMARK   11  A    between atoms: O_13  and  C_51 
REMARK   12  A    between atoms: O_13  and  C_55 
REMARK   13  A    between atoms: C_44  and  N_15 
REMARK       I    between atoms: N_15  and  C_51 
REMARK   14  A    between atoms: C_37  and  C_40 
REMARK   15  A    between atoms: C_39  and  C_41 
REMARK   16  A    between atoms: C_41  and  C_44 
REMARK   17  A    between atoms: C_44  and  C_48 
ROOT
HETATM    1  O   UNK N   1      36.429  10.428  10.404  0.00  0.00    -0.380 OA
HETATM    2  O   UNK N   1      33.775  15.093  10.792  0.00  0.00    -0.294 OA
HETATM    3  C   UNK N   1      34.429  12.578   8.859  0.00  0.00     0.076 C 
HETATM    4  C   UNK N   1      34.896  11.111   9.114  0.00  0.00     0.125 A 
HETATM    5  C   UNK N   1      35.346  13.720   9.607  0.00  0.00     0.055 C 
HETATM    6  C   UNK N   1      35.089  10.814  10.601  0.00  0.00     0.161 A 
HETATM    7  C   UNK N   1      33.748  12.841   7.426  0.00  0.00     0.176 C 
HETATM    8  C   UNK N   1      33.060  14.188   7.232  0.00  0.00     0.098 C 
HETATM    9  C   UNK N   1      35.829  13.148  10.959  0.00  0.00     0.137 C 
HETATM   10  C   UNK N   1      35.000  12.028  11.548  0.00  0.00     0.068 C 
HETATM   11  C   UNK N   1      34.157  15.265   6.849  0.00  0.00     0.013 C 
HETATM   12  C   UNK N   1      36.372  10.786   9.037  0.00  0.00     0.210 A 
HETATM   13  C   UNK N   1      34.599  15.089   9.888  0.00  0.00     0.171 C 
HETATM   14  C   UNK N   1      31.826  14.593   6.410  0.00  0.00     0.078 C 
HETATM   15  C   UNK N   1      33.807  16.327   7.814  0.00  0.00    -0.029 C 
HETATM   16  C   UNK N   1      36.728  13.925   9.001  0.00  0.00     0.027 C 
HETATM   17  C   UNK N   1      34.724  16.405   9.050  0.00  0.00     0.218 C 
HETATM   18  C   UNK N   1      31.553  16.170   6.634  0.00  0.00     0.164 C 
HETATM   19  C   UNK N   1      32.505  16.806   7.715  0.00  0.00    -0.048 C 
HETATM   20  C   UNK N   1      35.606  14.866   6.833  0.00  0.00     0.023 C 
HETATM   21  C   UNK N   1      34.171  15.748   5.414  0.00  0.00     0.023 C 
HETATM   22  C   UNK N   1      31.892  17.659   8.780  0.00  0.00     0.046 C 
ENDROOT
BRANCH  18  23
HETATM   23  O   UNK N   1      31.697  16.878   5.455  0.00  0.00    -0.309 OA
BRANCH  23  24
HETATM   24  C   UNK N   1      30.676  17.220   4.628  0.00  0.00     0.290 C 
HETATM   25  O   UNK N   1      30.002  18.219   4.838  0.00  0.00    -0.262 OA
BRANCH  24  26
HETATM   26  C   UNK N   1      30.319  16.249   3.539  0.00  0.00     0.244 C 
BRANCH  26  27
HETATM   27  O   UNK N   1      30.491  16.833   2.284  0.00  0.00    -0.383 OA
HETATM   28  H   UNK N   1      30.744  16.325   1.497  0.00  0.00     0.210 HD
ENDBRANCH  26  27
BRANCH  26  29
HETATM   29  C   UNK N   1      28.971  15.539   3.628  0.00  0.00     0.158 C 
BRANCH  29  30
HETATM   30  N   UNK N   1      27.857  16.358   3.152  0.00  0.00    -0.325 N 
HETATM   31  C   UNK N   1      26.941  17.007   3.924  0.00  0.00     0.361 C 
HETATM   32  O   UNK N   1      26.880  16.816   5.124  0.00  0.00    -0.238 OA
HETATM   33  H   UNK N   1      27.760  16.450   2.178  0.00  0.00     0.165 HD
BRANCH  31  34
HETATM   34  O   UNK N   1      26.132  17.931   3.332  0.00  0.00    -0.294 OA
BRANCH  34  35
HETATM   35  C   UNK N   1      25.971  19.250   3.755  0.00  0.00     0.061 C 
HETATM   36  C   UNK N   1      27.283  19.985   4.023  0.00  0.00     0.046 C 
HETATM   37  C   UNK N   1      25.253  20.008   2.657  0.00  0.00     0.046 C 
HETATM   38  C   UNK N   1      25.118  19.295   5.005  0.00  0.00     0.046 C 
ENDBRANCH  34  35
ENDBRANCH  31  34
ENDBRANCH  29  30
BRANCH  29  39
HETATM   39  C   UNK N   1      28.967  14.084   3.242  0.00  0.00    -0.032 A 
HETATM   40  C   UNK N   1      29.063  13.076   4.215  0.00  0.00     0.009 A 
HETATM   41  C   UNK N   1      28.988  11.733   3.851  0.00  0.00     0.001 A 
HETATM   42  C   UNK N   1      28.816  11.387   2.510  0.00  0.00     0.000 A 
HETATM   43  C   UNK N   1      28.717  12.383   1.534  0.00  0.00     0.001 A 
HETATM   44  C   UNK N   1      28.783  13.728   1.901  0.00  0.00     0.009 A 
ENDBRANCH  29  39
ENDBRANCH  26  29
ENDBRANCH  24  26
ENDBRANCH  23  24
ENDBRANCH  18  23
BRANCH   8  45
HETATM   45  O   UNK N   1      32.473  14.320   8.506  0.00  0.00    -0.386 OA
HETATM   46  H   UNK N   1      32.231  13.722   9.230  0.00  0.00     0.210 HD
ENDBRANCH   8  45
BRANCH   7  47
HETATM   47  O   UNK N   1      33.891  11.996   6.342  0.00  0.00    -0.308 OA
BRANCH  47  48
HETATM   48  C   UNK N   1      32.790  11.597   5.643  0.00  0.00     0.293 C 
HETATM   49  O   UNK N   1      31.904  10.965   6.207  0.00  0.00    -0.259 OA
BRANCH  48  50
HETATM   50  C   UNK N   1      32.706  11.800   4.183  0.00  0.00     0.039 A 
HETATM   51  C   UNK N   1      32.542  10.717   3.310  0.00  0.00     0.017 A 
HETATM   52  C   UNK N   1      32.416  10.938   1.933  0.00  0.00     0.001 A 
HETATM   53  C   UNK N   1      32.424  12.242   1.428  0.00  0.00     0.000 A 
HETATM   54  C   UNK N   1      32.578  13.326   2.294  0.00  0.00     0.001 A 
HETATM   55  C   UNK N   1      32.730  13.104   3.664  0.00  0.00     0.017 A 
ENDBRANCH  48  50
ENDBRANCH  47  48
ENDBRANCH   7  47
BRANCH  17  56
HETATM   56  O   UNK N   1      34.457  17.527   9.840  0.00  0.00    -0.384 OA
HETATM   57  H   UNK N   1      34.872  17.656  10.708  0.00  0.00     0.211 HD
ENDBRANCH  17  56
BRANCH   4  58
HETATM   58  O   UNK N   1      34.054  10.126   8.596  0.00  0.00    -0.305 OA
BRANCH  58  59
HETATM   59  C   UNK N   1      32.916   9.635   9.162  0.00  0.00     0.255 C 
HETATM   60  O   UNK N   1      31.943  10.349   9.362  0.00  0.00    -0.266 OA
HETATM   61  C   UNK N   1      32.858   8.200   9.552  0.00  0.00     0.126 C 
ENDBRANCH  58  59
ENDBRANCH   4  58
BRANCH   9  62
HETATM   62  O   UNK N   1      36.237  14.102  11.897  0.00  0.00    -0.394 OA
HETATM   63  H   UNK N   1      36.779  13.846  12.661  0.00  0.00     0.210 HD
ENDBRANCH   9  62
TORSDOF 17
ENDMDL
MODEL 3
REMARK VINA RESULT:      -7.2      6.457     11.884
REMARK  17 active torsions:
REMARK  status: ('A' for Active; 'I' for Inactive)
REMARK    1  A    between atoms: C_17  and  O_2 
REMARK    2  A    between atoms: O_2  and  C_36 
REMARK    3  A    between atoms: C_20  and  O_3 
REMARK    4  A    between atoms: O_3  and  C_37 
REMARK    5  A    between atoms: C_21  and  O_4 
REMARK    6  A    between atoms: C_22  and  O_5 
REMARK    7  A    between atoms: C_30  and  O_7 
REMARK    8  A    between atoms: C_31  and  O_8 
REMARK    9  A    between atoms: O_8  and  C_39 
REMARK   10  A    between atoms: C_41  and  O_12 
REMARK   11  A    between atoms: O_13  and  C_51 
REMARK   12  A    between atoms: O_13  and  C_55 
REMARK   13  A    between atoms: C_44  and  N_15 
REMARK       I    between atoms: N_15  and  C_51 
REMARK   14  A    between atoms: C_37  and  C_40 
REMARK   15  A    between atoms: C_39  and  C_41 
REMARK   16  A    between atoms: C_41  and  C_44 
REMARK   17  A    between atoms: C_44  and  C_48 
ROOT
HETATM    1  O   UNK N   1      19.079  14.042   3.574  0.00  0.00    -0.380 OA
HETATM    2  O   UNK N   1      24.000  13.913   1.398  0.00  0.00    -0.294 OA
HETATM    3  C   UNK N   1      22.329  13.736   4.167  0.00  0.00     0.076 C 
HETATM    4  C   UNK N   1      20.852  13.374   4.519  0.00  0.00     0.125 A 
HETATM    5  C   UNK N   1      22.487  14.876   2.992  0.00  0.00     0.055 C 
HETATM    6  C   UNK N   1      20.025  13.043   3.276  0.00  0.00     0.161 A 
HETATM    7  C   UNK N   1      23.371  13.626   5.389  0.00  0.00     0.176 C 
HETATM    8  C   UNK N   1      24.851  13.729   5.037  0.00  0.00     0.098 C 
HETATM    9  C   UNK N   1      21.336  14.691   1.977  0.00  0.00     0.137 C 
HETATM   10  C   UNK N   1      20.707  13.317   1.920  0.00  0.00     0.068 C 
HETATM   11  C   UNK N   1      25.236  15.261   4.916  0.00  0.00     0.013 C 
HETATM   12  C   UNK N   1      19.841  14.490   4.677  0.00  0.00     0.210 A 
HETATM   13  C   UNK N   1      23.858  14.825   2.200  0.00  0.00     0.171 C 
HETATM   14  C   UNK N   1      26.093  13.071   5.658  0.00  0.00     0.078 C 
HETATM   15  C   UNK N   1      25.932  15.237   3.613  0.00  0.00    -0.029 C 
HETATM   16  C   UNK N   1      22.115  16.289   3.421  0.00  0.00     0.027 C 
HETATM   17  C   UNK N   1      25.097  15.756   2.426  0.00  0.00     0.218 C 
HETATM   18  C   UNK N   1      27.395  13.535   4.820  0.00  0.00     0.164 C 
HETATM   19  C   UNK N   1      27.028  14.384   3.546  0.00  0.00    -0.048 C 
HETATM   20  C   UNK N   1      24.162  16.302   5.051  0.00  0.00     0.023 C 
HETATM   21  C   UNK N   1      26.081  15.844   6.029  0.00  0.00     0.023 C 
HETATM   22  C   UNK N   1      27.666  14.016   2.245  0.00  0.00     0.046 C 
ENDROOT
BRANCH  18  23
HETATM   23  O   UNK N   1      28.262  14.274   5.604  0.00  0.00    -0.309 OA
BRANCH  23  24
HETATM   24  C   UNK N   1      29.559  14.529   5.294  0.00  0.00     0.290 C 
HETATM   25  O   UNK N   1      30.416  13.665   5.414  0.00  0.00    -0.262 OA
BRANCH  24  26
HETATM   26  C   UNK N   1      29.915  15.946   4.943  0.00  0.00     0.244 C 
BRANCH  26  27
HETATM   27  O   UNK N   1      31.242  16.028   4.520  0.00  0.00    -0.383 OA
HETATM   28  H   UNK N   1      31.637  15.395   3.901  0.00  0.00     0.210 HD
ENDBRANCH  26  27
BRANCH  26  29
HETATM   29  C   UNK N   1      29.601  17.035   5.965  0.00  0.00     0.158 C 
BRANCH  29  30
HETATM   30  N   UNK N   1      30.782  17.504   6.687  0.00  0.00    -0.325 N 
HETATM   31  C   UNK N   1      31.048  17.324   8.011  0.00  0.00     0.361 C 
HETATM   32  O   UNK N   1      30.205  16.875   8.766  0.00  0.00    -0.238 OA
HETATM   33  H   UNK N   1      31.453  18.000   6.165  0.00  0.00     0.165 HD
BRANCH  31  34
HETATM   34  O   UNK N   1      32.304  17.594   8.465  0.00  0.00    -0.294 OA
BRANCH  34  35
HETATM   35  C   UNK N   1      33.461  16.911   8.090  0.00  0.00     0.061 C 
HETATM   36  C   UNK N   1      34.030  17.339   6.739  0.00  0.00     0.046 C 
HETATM   37  C   UNK N   1      34.526  17.192   9.131  0.00  0.00     0.046 C 
HETATM   38  C   UNK N   1      33.199  15.420   8.064  0.00  0.00     0.046 C 
ENDBRANCH  34  35
ENDBRANCH  31  34
ENDBRANCH  29  30
BRANCH  29  39
HETATM   39  C   UNK N   1      28.605  18.077   5.529  0.00  0.00    -0.032 A 
HETATM   40  C   UNK N   1      28.140  18.125   4.205  0.00  0.00     0.009 A 
HETATM   41  C   UNK N   1      27.167  19.049   3.831  0.00  0.00     0.001 A 
HETATM   42  C   UNK N   1      26.648  19.933   4.779  0.00  0.00     0.000 A 
HETATM   43  C   UNK N   1      27.103  19.890   6.100  0.00  0.00     0.001 A 
HETATM   44  C   UNK N   1      28.072  18.959   6.476  0.00  0.00     0.009 A 
ENDBRANCH  29  39
ENDBRANCH  26  29
ENDBRANCH  24  26
ENDBRANCH  23  24
ENDBRANCH  18  23
BRANCH   8  45
HETATM   45  O   UNK N   1      24.843  12.989   3.837  0.00  0.00    -0.386 OA
HETATM   46  H   UNK N   1      24.215  12.414   3.374  0.00  0.00     0.210 HD
ENDBRANCH   8  45
BRANCH   7  47
HETATM   47  O   UNK N   1      22.994  13.605   6.717  0.00  0.00    -0.308 OA
BRANCH  47  48
HETATM   48  C   UNK N   1      23.192  12.480   7.462  0.00  0.00     0.293 C 
HETATM   49  O   UNK N   1      23.642  11.469   6.934  0.00  0.00    -0.259 OA
BRANCH  48  50
HETATM   50  C   UNK N   1      22.753  12.416   8.870  0.00  0.00     0.039 A 
HETATM   51  C   UNK N   1      21.446  12.759   9.237  0.00  0.00     0.017 A 
HETATM   52  C   UNK N   1      21.039  12.645  10.572  0.00  0.00     0.001 A 
HETATM   53  C   UNK N   1      21.926  12.160  11.537  0.00  0.00     0.000 A 
HETATM   54  C   UNK N   1      23.228  11.809  11.176  0.00  0.00     0.001 A 
HETATM   55  C   UNK N   1      23.643  11.947   9.850  0.00  0.00     0.017 A 
ENDBRANCH  48  50
ENDBRANCH  47  48
ENDBRANCH   7  47
BRANCH  17  56
HETATM   56  O   UNK N   1      25.852  15.873   1.256  0.00  0.00    -0.384 OA
HETATM   57  H   UNK N   1      26.244  16.717   0.978  0.00  0.00     0.211 HD
ENDBRANCH  17  56
BRANCH   4  58
HETATM   58  O   UNK N   1      20.701  12.318   5.417  0.00  0.00    -0.305 OA
BRANCH  58  59
HETATM   59  C   UNK N   1      20.723  10.985   5.131  0.00  0.00     0.255 C 
HETATM   60  O   UNK N   1      21.742  10.433   4.742  0.00  0.00    -0.266 OA
HETATM   61  C   UNK N   1      19.477  10.187   5.291  0.00  0.00     0.126 C 
ENDBRANCH  58  59
ENDBRANCH   4  58
BRANCH   9  62
HETATM   62  O   UNK N   1      21.554  15.265   0.720  0.00  0.00    -0.394 OA
HETATM   63  H   UNK N   1      22.422  15.628   0.485  0.00  0.00     0.210 HD
ENDBRANCH   9  62
TORSDOF 17
ENDMDL
MODEL 4
REMARK VINA RESULT:      -6.9      5.545     11.346
REMARK  17 active torsions:
REMARK  status: ('A' for Active; 'I' for Inactive)
REMARK    1  A    between atoms: C_17  and  O_2 
REMARK    2  A    between atoms: O_2  and  C_36 
REMARK    3  A    between atoms: C_20  and  O_3 
REMARK    4  A    between atoms: O_3  and  C_37 
REMARK    5  A    between atoms: C_21  and  O_4 
REMARK    6  A    between atoms: C_22  and  O_5 
REMARK    7  A    between atoms: C_30  and  O_7 
REMARK    8  A    between atoms: C_31  and  O_8 
REMARK    9  A    between atoms: O_8  and  C_39 
REMARK   10  A    between atoms: C_41  and  O_12 
REMARK   11  A    between atoms: O_13  and  C_51 
REMARK   12  A    between atoms: O_13  and  C_55 
REMARK   13  A    between atoms: C_44  and  N_15 
REMARK       I    between atoms: N_15  and  C_51 
REMARK   14  A    between atoms: C_37  and  C_40 
REMARK   15  A    between atoms: C_39  and  C_41 
REMARK   16  A    between atoms: C_41  and  C_44 
REMARK   17  A    between atoms: C_44  and  C_48 
ROOT
HETATM    1  O   UNK N   1      19.892  13.413   6.014  0.00  0.00    -0.380 OA
HETATM    2  O   UNK N   1      24.245  11.238   3.714  0.00  0.00    -0.294 OA
HETATM    3  C   UNK N   1      23.114  13.812   5.322  0.00  0.00     0.076 C 
HETATM    4  C   UNK N   1      21.897  14.045   6.271  0.00  0.00     0.125 A 
HETATM    5  C   UNK N   1      22.731  13.090   3.894  0.00  0.00     0.055 C 
HETATM    6  C   UNK N   1      21.064  12.778   6.469  0.00  0.00     0.161 A 
HETATM    7  C   UNK N   1      24.288  14.906   5.432  0.00  0.00     0.176 C 
HETATM    8  C   UNK N   1      25.592  14.584   4.710  0.00  0.00     0.098 C 
HETATM    9  C   UNK N   1      21.577  12.092   4.147  0.00  0.00     0.137 C 
HETATM   10  C   UNK N   1      21.429  11.584   5.564  0.00  0.00     0.068 C 
HETATM   11  C   UNK N   1      25.436  14.983   3.185  0.00  0.00     0.013 C 
HETATM   12  C   UNK N   1      20.608  14.590   5.693  0.00  0.00     0.210 A 
HETATM   13  C   UNK N   1      23.923  12.305   3.209  0.00  0.00     0.171 C 
HETATM   14  C   UNK N   1      27.053  14.924   5.046  0.00  0.00     0.078 C 
HETATM   15  C   UNK N   1      25.919  13.737   2.554  0.00  0.00    -0.029 C 
HETATM   16  C   UNK N   1      21.979  13.980   2.913  0.00  0.00     0.027 C 
HETATM   17  C   UNK N   1      24.809  12.811   2.021  0.00  0.00     0.218 C 
HETATM   18  C   UNK N   1      28.007  14.270   3.917  0.00  0.00     0.164 C 
HETATM   19  C   UNK N   1      27.214  13.367   2.900  0.00  0.00    -0.048 C 
HETATM   20  C   UNK N   1      24.110  15.481   2.687  0.00  0.00     0.023 C 
HETATM   21  C   UNK N   1      26.186  16.213   2.719  0.00  0.00     0.023 C 
HETATM   22  C   UNK N   1      27.756  12.007   2.594  0.00  0.00     0.046 C 
ENDROOT
BRANCH  18  23
HETATM   23  O   UNK N   1      28.682  15.244   3.203  0.00  0.00    -0.309 OA
BRANCH  23  24
HETATM   24  C   UNK N   1      29.897  15.747   3.539  0.00  0.00     0.290 C 
HETATM   25  O   UNK N   1      30.924  15.286   3.059  0.00  0.00    -0.262 OA
BRANCH  24  26
HETATM   26  C   UNK N   1      29.935  16.783   4.626  0.00  0.00     0.244 C 
BRANCH  26  27
HETATM   27  O   UNK N   1      30.593  17.932   4.186  0.00  0.00    -0.383 OA
HETATM   28  H   UNK N   1      30.368  18.821   4.502  0.00  0.00     0.210 HD
ENDBRANCH  26  27
BRANCH  26  29
HETATM   29  C   UNK N   1      30.443  16.358   6.001  0.00  0.00     0.158 C 
BRANCH  29  30
HETATM   30  N   UNK N   1      31.848  15.953   5.995  0.00  0.00    -0.325 N 
HETATM   31  C   UNK N   1      32.338  14.723   6.316  0.00  0.00     0.361 C 
HETATM   32  O   UNK N   1      31.624  13.870   6.811  0.00  0.00    -0.238 OA
HETATM   33  H   UNK N   1      32.505  16.636   5.733  0.00  0.00     0.165 HD
BRANCH  31  34
HETATM   34  O   UNK N   1      33.635  14.440   6.009  0.00  0.00    -0.294 OA
BRANCH  34  35
HETATM   35  C   UNK N   1      34.713  14.549   6.886  0.00  0.00     0.061 C 
HETATM   36  C   UNK N   1      34.496  15.544   8.023  0.00  0.00     0.046 C 
HETATM   37  C   UNK N   1      34.938  13.191   7.520  0.00  0.00     0.046 C 
HETATM   38  C   UNK N   1      35.965  14.935   6.126  0.00  0.00     0.046 C 
ENDBRANCH  34  35
ENDBRANCH  31  34
ENDBRANCH  29  30
BRANCH  29  39
HETATM   39  C   UNK N   1      29.975  17.194   7.162  0.00  0.00    -0.032 A 
HETATM   40  C   UNK N   1      28.615  17.498   7.334  0.00  0.00     0.009 A 
HETATM   41  C   UNK N   1      28.186  18.214   8.449  0.00  0.00     0.001 A 
HETATM   42  C   UNK N   1      29.115  18.632   9.404  0.00  0.00     0.000 A 
HETATM   43  C   UNK N   1      30.471  18.332   9.243  0.00  0.00     0.001 A 
HETATM   44  C   UNK N   1      30.898  17.607   8.130  0.00  0.00     0.009 A 
ENDBRANCH  29  39
ENDBRANCH  26  29
ENDBRANCH  24  26
ENDBRANCH  23  24
ENDBRANCH  18  23
BRANCH   8  45
HETATM   45  O   UNK N   1      25.665  13.205   4.991  0.00  0.00    -0.386 OA
HETATM   46  H   UNK N   1      25.047  12.458   4.990  0.00  0.00     0.210 HD
ENDBRANCH   8  45
BRANCH   7  47
HETATM   47  O   UNK N   1      24.121  16.155   5.998  0.00  0.00    -0.308 OA
BRANCH  47  48
HETATM   48  C   UNK N   1      23.604  17.174   5.254  0.00  0.00     0.293 C 
HETATM   49  O   UNK N   1      22.429  17.142   4.907  0.00  0.00    -0.259 OA
BRANCH  48  50
HETATM   50  C   UNK N   1      24.471  18.256   4.746  0.00  0.00     0.039 A 
HETATM   51  C   UNK N   1      24.024  19.133   3.749  0.00  0.00     0.017 A 
HETATM   52  C   UNK N   1      24.846  20.181   3.317  0.00  0.00     0.001 A 
HETATM   53  C   UNK N   1      26.102  20.375   3.900  0.00  0.00     0.000 A 
HETATM   54  C   UNK N   1      26.549  19.509   4.900  0.00  0.00     0.001 A 
HETATM   55  C   UNK N   1      25.741  18.448   5.312  0.00  0.00     0.017 A 
ENDBRANCH  48  50
ENDBRANCH  47  48
ENDBRANCH   7  47
BRANCH  17  56
HETATM   56  O   UNK N   1      25.320  11.737   1.287  0.00  0.00    -0.384 OA
HETATM   57  H   UNK N   1      25.724  11.857   0.412  0.00  0.00     0.211 HD
ENDBRANCH  17  56
BRANCH   4  58
HETATM   58  O   UNK N   1      22.221  14.534   7.537  0.00  0.00    -0.305 OA
BRANCH  58  59
HETATM   59  C   UNK N   1      22.694  13.822   8.598  0.00  0.00     0.255 C 
HETATM   60  O   UNK N   1      23.814  13.331   8.589  0.00  0.00    -0.266 OA
HETATM   61  C   UNK N   1      21.826  13.634   9.792  0.00  0.00     0.126 C 
ENDBRANCH  58  59
ENDBRANCH   4  58
BRANCH   9  62
HETATM   62  O   UNK N   1      21.424  11.101   3.172  0.00  0.00    -0.394 OA
HETATM   63  H   UNK N   1      21.970  10.299   3.191  0.00  0.00     0.210 HD
ENDBRANCH   9  62
TORSDOF 17
ENDMDL
MODEL 5
REMARK VINA RESULT:      -6.9      2.251      4.137
REMARK  17 active torsions:
REMARK  status: ('A' for Active; 'I' for Inactive)
REMARK    1  A    between atoms: C_17  and  O_2 
REMARK    2  A    between atoms: O_2  and  C_36 
REMARK    3  A    between atoms: C_20  and  O_3 
REMARK    4  A    between atoms: O_3  and  C_37 
REMARK    5  A    between atoms: C_21  and  O_4 
REMARK    6  A    between atoms: C_22  and  O_5 
REMARK    7  A    between atoms: C_30  and  O_7 
REMARK    8  A    between atoms: C_31  and  O_8 
REMARK    9  A    between atoms: O_8  and  C_39 
REMARK   10  A    between atoms: C_41  and  O_12 
REMARK   11  A    between atoms: O_13  and  C_51 
REMARK   12  A    between atoms: O_13  and  C_55 
REMARK   13  A    between atoms: C_44  and  N_15 
REMARK       I    between atoms: N_15  and  C_51 
REMARK   14  A    between atoms: C_37  and  C_40 
REMARK   15  A    between atoms: C_39  and  C_41 
REMARK   16  A    between atoms: C_41  and  C_44 
REMARK   17  A    between atoms: C_44  and  C_48 
ROOT
HETATM    1  O   UNK N   1      36.421  10.440  11.529  0.00  0.00    -0.380 OA
HETATM    2  O   UNK N   1      33.670  15.040  11.042  0.00  0.00    -0.294 OA
HETATM    3  C   UNK N   1      34.580  12.331   9.517  0.00  0.00     0.076 C 
HETATM    4  C   UNK N   1      35.036  10.919  10.000  0.00  0.00     0.125 A 
HETATM    5  C   UNK N   1      35.387  13.581  10.218  0.00  0.00     0.055 C 
HETATM    6  C   UNK N   1      35.062  10.808  11.525  0.00  0.00     0.161 A 
HETATM    7  C   UNK N   1      34.064  12.401   7.995  0.00  0.00     0.176 C 
HETATM    8  C   UNK N   1      33.383  13.695   7.562  0.00  0.00     0.098 C 
HETATM    9  C   UNK N   1      35.721  13.189  11.676  0.00  0.00     0.137 C 
HETATM   10  C   UNK N   1      34.847  12.124  12.300  0.00  0.00     0.068 C 
HETATM   11  C   UNK N   1      34.501  14.749   7.175  0.00  0.00     0.013 C 
HETATM   12  C   UNK N   1      36.517  10.631  10.131  0.00  0.00     0.210 A 
HETATM   13  C   UNK N   1      34.593  14.951  10.244  0.00  0.00     0.171 C 
HETATM   14  C   UNK N   1      32.246  13.963   6.563  0.00  0.00     0.078 C 
HETATM   15  C   UNK N   1      34.026  15.909   7.958  0.00  0.00    -0.029 C 
HETATM   16  C   UNK N   1      36.827  13.752   9.751  0.00  0.00     0.027 C 
HETATM   17  C   UNK N   1      34.793  16.161   9.270  0.00  0.00     0.218 C 
HETATM   18  C   UNK N   1      31.925  15.547   6.560  0.00  0.00     0.164 C 
HETATM   19  C   UNK N   1      32.737  16.334   7.656  0.00  0.00    -0.048 C 
HETATM   20  C   UNK N   1      35.947  14.393   7.371  0.00  0.00     0.023 C 
HETATM   21  C   UNK N   1      34.672  15.057   5.703  0.00  0.00     0.023 C 
HETATM   22  C   UNK N   1      31.993  17.290   8.532  0.00  0.00     0.046 C 
ENDROOT
BRANCH  18  23
HETATM   23  O   UNK N   1      32.193  16.112   5.327  0.00  0.00    -0.309 OA
BRANCH  23  24
HETATM   24  C   UNK N   1      31.483  15.872   4.195  0.00  0.00     0.290 C 
HETATM   25  O   UNK N   1      31.607  14.818   3.586  0.00  0.00    -0.262 OA
BRANCH  24  26
HETATM   26  C   UNK N   1      30.658  17.002   3.648  0.00  0.00     0.244 C 
BRANCH  26  27
HETATM   27  O   UNK N   1      31.244  18.230   3.953  0.00  0.00    -0.383 OA
HETATM   28  H   UNK N   1      30.858  18.854   4.588  0.00  0.00     0.210 HD
ENDBRANCH  26  27
BRANCH  26  29
HETATM   29  C   UNK N   1      29.166  17.016   3.968  0.00  0.00     0.158 C 
BRANCH  29  30
HETATM   30  N   UNK N   1      28.581  15.679   4.040  0.00  0.00    -0.325 N 
HETATM   31  C   UNK N   1      27.581  15.188   3.256  0.00  0.00     0.361 C 
HETATM   32  O   UNK N   1      26.957  15.914   2.504  0.00  0.00    -0.238 OA
HETATM   33  H   UNK N   1      28.945  15.072   4.724  0.00  0.00     0.165 HD
BRANCH  31  34
HETATM   34  O   UNK N   1      27.334  13.848   3.281  0.00  0.00    -0.294 OA
BRANCH  34  35
HETATM   35  C   UNK N   1      28.051  12.883   2.574  0.00  0.00     0.061 C 
HETATM   36  C   UNK N   1      29.050  13.456   1.572  0.00  0.00     0.046 C 
HETATM   37  C   UNK N   1      28.842  12.065   3.574  0.00  0.00     0.046 C 
HETATM   38  C   UNK N   1      27.099  11.958   1.845  0.00  0.00     0.046 C 
ENDBRANCH  34  35
ENDBRANCH  31  34
ENDBRANCH  29  30
BRANCH  29  39
HETATM   39  C   UNK N   1      28.726  18.015   5.005  0.00  0.00    -0.032 A 
HETATM   40  C   UNK N   1      28.065  19.198   4.636  0.00  0.00     0.009 A 
HETATM   41  C   UNK N   1      27.602  20.081   5.609  0.00  0.00     0.001 A 
HETATM   42  C   UNK N   1      27.794  19.788   6.960  0.00  0.00     0.000 A 
HETATM   43  C   UNK N   1      28.448  18.611   7.337  0.00  0.00     0.001 A 
HETATM   44  C   UNK N   1      28.905  17.723   6.362  0.00  0.00     0.009 A 
ENDBRANCH  29  39
ENDBRANCH  26  29
ENDBRANCH  24  26
ENDBRANCH  23  24
ENDBRANCH  18  23
BRANCH   8  45
HETATM   45  O   UNK N   1      32.651  13.962   8.736  0.00  0.00    -0.386 OA
HETATM   46  H   UNK N   1      32.719  14.586   9.475  0.00  0.00     0.210 HD
ENDBRANCH   8  45
BRANCH   7  47
HETATM   47  O   UNK N   1      34.344  11.437   7.046  0.00  0.00    -0.308 OA
BRANCH  47  48
HETATM   48  C   UNK N   1      33.388  11.076   6.143  0.00  0.00     0.293 C 
HETATM   49  O   UNK N   1      32.414  10.429   6.508  0.00  0.00    -0.259 OA
BRANCH  48  50
HETATM   50  C   UNK N   1      33.569  11.343   4.701  0.00  0.00     0.039 A 
HETATM   51  C   UNK N   1      32.486  11.296   3.815  0.00  0.00     0.017 A 
HETATM   52  C   UNK N   1      32.674  11.599   2.461  0.00  0.00     0.001 A 
HETATM   53  C   UNK N   1      33.936  11.978   1.995  0.00  0.00     0.000 A 
HETATM   54  C   UNK N   1      35.018  12.034   2.875  0.00  0.00     0.001 A 
HETATM   55  C   UNK N   1      34.837  11.706   4.220  0.00  0.00     0.017 A 
ENDBRANCH  48  50
ENDBRANCH  47  48
ENDBRANCH   7  47
BRANCH  17  56
HETATM   56  O   UNK N   1      34.421  17.361   9.881  0.00  0.00    -0.384 OA
HETATM   57  H   UNK N   1      34.036  18.098   9.379  0.00  0.00     0.211 HD
ENDBRANCH  17  56
BRANCH   4  58
HETATM   58  O   UNK N   1      34.275   9.856   9.516  0.00  0.00    -0.305 OA
BRANCH  58  59
HETATM   59  C   UNK N   1      32.991   9.543   9.850  0.00  0.00     0.255 C 
HETATM   60  O   UNK N   1      32.076  10.336   9.682  0.00  0.00    -0.266 OA
HETATM   61  C   UNK N   1      32.698   8.208  10.440  0.00  0.00     0.126 C 
ENDBRANCH  58  59
ENDBRANCH   4  58
BRANCH   9  62
HETATM   62  O   UNK N   1      36.004  14.260  12.530  0.00  0.00    -0.394 OA
HETATM   63  H   UNK N   1      36.565  14.994  12.235  0.00  0.00     0.210 HD
ENDBRANCH   9  62
TORSDOF 17
ENDMDL
MODEL 6
REMARK VINA RESULT:      -6.9      5.418     11.412
REMARK  17 active torsions:
REMARK  status: ('A' for Active; 'I' for Inactive)
REMARK    1  A    between atoms: C_17  and  O_2 
REMARK    2  A    between atoms: O_2  and  C_36 
REMARK    3  A    between atoms: C_20  and  O_3 
REMARK    4  A    between atoms: O_3  and  C_37 
REMARK    5  A    between atoms: C_21  and  O_4 
REMARK    6  A    between atoms: C_22  and  O_5 
REMARK    7  A    between atoms: C_30  and  O_7 
REMARK    8  A    between atoms: C_31  and  O_8 
REMARK    9  A    between atoms: O_8  and  C_39 
REMARK   10  A    between atoms: C_41  and  O_12 
REMARK   11  A    between atoms: O_13  and  C_51 
REMARK   12  A    between atoms: O_13  and  C_55 
REMARK   13  A    between atoms: C_44  and  N_15 
REMARK       I    between atoms: N_15  and  C_51 
REMARK   14  A    between atoms: C_37  and  C_40 
REMARK   15  A    between atoms: C_39  and  C_41 
REMARK   16  A    between atoms: C_41  and  C_44 
REMARK   17  A    between atoms: C_44  and  C_48 
ROOT
HETATM    1  O   UNK N   1      19.764  16.009   3.395  0.00  0.00    -0.380 OA
HETATM    2  O   UNK N   1      23.942  19.396   3.587  0.00  0.00    -0.294 OA
HETATM    3  C   UNK N   1      23.069  16.291   3.292  0.00  0.00     0.076 C 
HETATM    4  C   UNK N   1      21.760  15.573   2.837  0.00  0.00     0.125 A 
HETATM    5  C   UNK N   1      22.845  17.442   4.445  0.00  0.00     0.055 C 
HETATM    6  C   UNK N   1      20.658  16.563   2.459  0.00  0.00     0.161 A 
HETATM    7  C   UNK N   1      24.399  15.386   3.244  0.00  0.00     0.176 C 
HETATM    8  C   UNK N   1      25.726  16.110   3.441  0.00  0.00     0.098 C 
HETATM    9  C   UNK N   1      21.482  18.126   4.192  0.00  0.00     0.137 C 
HETATM   10  C   UNK N   1      20.943  18.044   2.781  0.00  0.00     0.068 C 
HETATM   11  C   UNK N   1      25.974  16.295   4.995  0.00  0.00     0.013 C 
HETATM   12  C   UNK N   1      20.761  15.133   3.885  0.00  0.00     0.210 A 
HETATM   13  C   UNK N   1      23.961  18.565   4.485  0.00  0.00     0.171 C 
HETATM   14  C   UNK N   1      27.125  15.848   2.861  0.00  0.00     0.078 C 
HETATM   15  C   UNK N   1      26.304  17.735   5.021  0.00  0.00    -0.029 C 
HETATM   16  C   UNK N   1      22.514  16.901   5.830  0.00  0.00     0.027 C 
HETATM   17  C   UNK N   1      25.158  18.652   5.491  0.00  0.00     0.218 C 
HETATM   18  C   UNK N   1      28.132  16.987   3.409  0.00  0.00     0.164 C 
HETATM   19  C   UNK N   1      27.394  18.103   4.239  0.00  0.00    -0.048 C 
HETATM   20  C   UNK N   1      24.912  15.863   5.966  0.00  0.00     0.023 C 
HETATM   21  C   UNK N   1      27.044  15.430   5.625  0.00  0.00     0.023 C 
HETATM   22  C   UNK N   1      27.690  19.533   3.917  0.00  0.00     0.046 C 
ENDROOT
BRANCH  18  23
HETATM   23  O   UNK N   1      29.127  16.442   4.198  0.00  0.00    -0.309 OA
BRANCH  23  24
HETATM   24  C   UNK N   1      30.456  16.667   4.034  0.00  0.00     0.290 C 
HETATM   25  O   UNK N   1      31.043  16.270   3.037  0.00  0.00    -0.262 OA
BRANCH  24  26
HETATM   26  C   UNK N   1      31.195  17.289   5.184  0.00  0.00     0.244 C 
BRANCH  26  27
HETATM   27  O   UNK N   1      32.521  17.546   4.835  0.00  0.00    -0.383 OA
HETATM   28  H   UNK N   1      32.961  18.389   5.024  0.00  0.00     0.210 HD
ENDBRANCH  26  27
BRANCH  26  29
HETATM   29  C   UNK N   1      31.115  16.597   6.542  0.00  0.00     0.158 C 
BRANCH  29  30
HETATM   30  N   UNK N   1      32.415  16.146   7.035  0.00  0.00    -0.325 N 
HETATM   31  C   UNK N   1      32.819  14.854   7.192  0.00  0.00     0.361 C 
HETATM   32  O   UNK N   1      32.033  13.931   7.079  0.00  0.00    -0.238 OA
HETATM   33  H   UNK N   1      33.063  16.844   7.279  0.00  0.00     0.165 HD
BRANCH  31  34
HETATM   34  O   UNK N   1      34.141  14.609   7.413  0.00  0.00    -0.294 OA
BRANCH  34  35
HETATM   35  C   UNK N   1      34.784  14.707   8.646  0.00  0.00     0.061 C 
HETATM   36  C   UNK N   1      34.973  16.140   9.139  0.00  0.00     0.046 C 
HETATM   37  C   UNK N   1      33.933  13.992   9.675  0.00  0.00     0.046 C 
HETATM   38  C   UNK N   1      36.135  14.026   8.584  0.00  0.00     0.046 C 
ENDBRANCH  34  35
ENDBRANCH  31  34
ENDBRANCH  29  30
BRANCH  29  39
HETATM   39  C   UNK N   1      30.180  17.221   7.544  0.00  0.00    -0.032 A 
HETATM   40  C   UNK N   1      29.183  18.124   7.139  0.00  0.00     0.009 A 
HETATM   41  C   UNK N   1      28.280  18.641   8.065  0.00  0.00     0.001 A 
HETATM   42  C   UNK N   1      28.365  18.259   9.405  0.00  0.00     0.000 A 
HETATM   43  C   UNK N   1      29.352  17.359   9.817  0.00  0.00     0.001 A 
HETATM   44  C   UNK N   1      30.251  16.834   8.886  0.00  0.00     0.009 A 
ENDBRANCH  29  39
ENDBRANCH  26  29
ENDBRANCH  24  26
ENDBRANCH  23  24
ENDBRANCH  18  23
BRANCH   8  45
HETATM   45  O   UNK N   1      25.449  17.281   2.708  0.00  0.00    -0.386 OA
HETATM   46  H   UNK N   1      24.950  17.502   1.906  0.00  0.00     0.210 HD
ENDBRANCH   8  45
BRANCH   7  47
HETATM   47  O   UNK N   1      24.385  14.006   3.193  0.00  0.00    -0.308 OA
BRANCH  47  48
HETATM   48  C   UNK N   1      25.124  13.353   2.250  0.00  0.00     0.293 C 
HETATM   49  O   UNK N   1      24.801  13.416   1.070  0.00  0.00    -0.259 OA
BRANCH  48  50
HETATM   50  C   UNK N   1      26.236  12.463   2.642  0.00  0.00     0.039 A 
HETATM   51  C   UNK N   1      26.513  12.202   3.990  0.00  0.00     0.017 A 
HETATM   52  C   UNK N   1      27.542  11.318   4.335  0.00  0.00     0.001 A 
HETATM   53  C   UNK N   1      28.275  10.669   3.337  0.00  0.00     0.000 A 
HETATM   54  C   UNK N   1      27.998  10.920   1.992  0.00  0.00     0.001 A 
HETATM   55  C   UNK N   1      26.990  11.822   1.647  0.00  0.00     0.017 A 
ENDBRANCH  48  50
ENDBRANCH  47  48
ENDBRANCH   7  47
BRANCH  17  56
HETATM   56  O   UNK N   1      25.573  19.976   5.661  0.00  0.00    -0.384 OA
HETATM   57  H   UNK N   1      25.561  20.617   4.932  0.00  0.00     0.211 HD
ENDBRANCH  17  56
BRANCH   4  58
HETATM   58  O   UNK N   1      21.913  14.689   1.769  0.00  0.00    -0.305 OA
BRANCH  58  59
HETATM   59  C   UNK N   1      21.304  13.481   1.607  0.00  0.00     0.255 C 
HETATM   60  O   UNK N   1      21.712  12.479   2.176  0.00  0.00    -0.266 OA
HETATM   61  C   UNK N   1      20.119  13.378   0.712  0.00  0.00     0.126 C 
ENDBRANCH  58  59
ENDBRANCH   4  58
BRANCH   9  62
HETATM   62  O   UNK N   1      21.328  19.383   4.785  0.00  0.00    -0.394 OA
HETATM   63  H   UNK N   1      21.616  19.540   5.698  0.00  0.00     0.210 HD
ENDBRANCH   9  62
TORSDOF 17
ENDMDL
MODEL 7
REMARK VINA RESULT:      -6.9      1.763      2.394
REMARK  17 active torsions:
REMARK  status: ('A' for Active; 'I' for Inactive)
REMARK    1  A    between atoms: C_17  and  O_2 
REMARK    2  A    between atoms: O_2  and  C_36 
REMARK    3  A    between atoms: C_20  and  O_3 
REMARK    4  A    between atoms: O_3  and  C_37 
REMARK    5  A    between atoms: C_21  and  O_4 
REMARK    6  A    between atoms: C_22  and  O_5 
REMARK    7  A    between atoms: C_30  and  O_7 
REMARK    8  A    between atoms: C_31  and  O_8 
REMARK    9  A    between atoms: O_8  and  C_39 
REMARK   10  A    between atoms: C_41  and  O_12 
REMARK   11  A    between atoms: O_13  and  C_51 
REMARK   12  A    between atoms: O_13  and  C_55 
REMARK   13  A    between atoms: C_44  and  N_15 
REMARK       I    between atoms: N_15  and  C_51 
REMARK   14  A    between atoms: C_37  and  C_40 
REMARK   15  A    between atoms: C_39  and  C_41 
REMARK   16  A    between atoms: C_41  and  C_44 
REMARK   17  A    between atoms: C_44  and  C_48 
ROOT
HETATM    1  O   UNK N   1      35.888  10.015  12.043  0.00  0.00    -0.380 OA
HETATM    2  O   UNK N   1      33.771  14.891  11.201  0.00  0.00    -0.294 OA
HETATM    3  C   UNK N   1      34.674  12.122   9.785  0.00  0.00     0.076 C 
HETATM    4  C   UNK N   1      34.880  10.662  10.297  0.00  0.00     0.125 A 
HETATM    5  C   UNK N   1      35.455  13.267  10.669  0.00  0.00     0.055 C 
HETATM    6  C   UNK N   1      34.601  10.527  11.794  0.00  0.00     0.161 A 
HETATM    7  C   UNK N   1      34.471  12.268   8.196  0.00  0.00     0.176 C 
HETATM    8  C   UNK N   1      34.023  13.634   7.686  0.00  0.00     0.098 C 
HETATM    9  C   UNK N   1      35.459  12.821  12.149  0.00  0.00     0.137 C 
HETATM   10  C   UNK N   1      34.377  11.848  12.559  0.00  0.00     0.068 C 
HETATM   11  C   UNK N   1      35.297  14.566   7.556  0.00  0.00     0.013 C 
HETATM   12  C   UNK N   1      36.270  10.213  10.696  0.00  0.00     0.210 A 
HETATM   13  C   UNK N   1      34.816  14.714  10.591  0.00  0.00     0.171 C 
HETATM   14  C   UNK N   1      33.133  14.036   6.500  0.00  0.00     0.078 C 
HETATM   15  C   UNK N   1      34.802  15.760   8.273  0.00  0.00    -0.029 C 
HETATM   16  C   UNK N   1      36.968  13.288  10.490  0.00  0.00     0.027 C 
HETATM   17  C   UNK N   1      35.324  15.909   9.715  0.00  0.00     0.218 C 
HETATM   18  C   UNK N   1      32.984  15.646   6.490  0.00  0.00     0.164 C 
HETATM   19  C   UNK N   1      33.646  16.326   7.746  0.00  0.00    -0.048 C 
HETATM   20  C   UNK N   1      36.634  14.054   8.010  0.00  0.00     0.023 C 
HETATM   21  C   UNK N   1      35.779  14.875   6.154  0.00  0.00     0.023 C 
HETATM   22  C   UNK N   1      32.851  17.344   8.498  0.00  0.00     0.046 C 
ENDROOT
BRANCH  18  23
HETATM   23  O   UNK N   1      33.541  16.196   5.350  0.00  0.00    -0.309 OA
BRANCH  23  24
HETATM   24  C   UNK N   1      32.901  17.049   4.510  0.00  0.00     0.290 C 
HETATM   25  O   UNK N   1      32.995  18.260   4.651  0.00  0.00    -0.262 OA
BRANCH  24  26
HETATM   26  C   UNK N   1      31.964  16.446   3.502  0.00  0.00     0.244 C 
BRANCH  26  27
HETATM   27  O   UNK N   1      31.970  17.189   2.321  0.00  0.00    -0.383 OA
HETATM   28  H   UNK N   1      31.239  17.770   2.062  0.00  0.00     0.210 HD
ENDBRANCH  26  27
BRANCH  26  29
HETATM   29  C   UNK N   1      30.536  16.143   3.947  0.00  0.00     0.158 C 
BRANCH  29  30
HETATM   30  N   UNK N   1      29.675  17.324   3.961  0.00  0.00    -0.325 N 
HETATM   31  C   UNK N   1      29.274  18.021   5.060  0.00  0.00     0.361 C 
HETATM   32  O   UNK N   1      29.481  17.600   6.183  0.00  0.00    -0.238 OA
HETATM   33  H   UNK N   1      29.353  17.647   3.089  0.00  0.00     0.165 HD
BRANCH  31  34
HETATM   34  O   UNK N   1      28.691  19.240   4.879  0.00  0.00    -0.294 OA
BRANCH  34  35
HETATM   35  C   UNK N   1      27.320  19.490   4.903  0.00  0.00     0.061 C 
HETATM   36  C   UNK N   1      26.466  18.261   5.211  0.00  0.00     0.046 C 
HETATM   37  C   UNK N   1      27.049  20.504   5.995  0.00  0.00     0.046 C 
HETATM   38  C   UNK N   1      26.875  20.079   3.582  0.00  0.00     0.046 C 
ENDBRANCH  34  35
ENDBRANCH  31  34
ENDBRANCH  29  30
BRANCH  29  39
HETATM   39  C   UNK N   1      29.941  14.865   3.417  0.00  0.00    -0.032 A 
HETATM   40  C   UNK N   1      29.035  14.878   2.344  0.00  0.00     0.009 A 
HETATM   41  C   UNK N   1      28.545  13.685   1.818  0.00  0.00     0.001 A 
HETATM   42  C   UNK N   1      28.957  12.467   2.361  0.00  0.00     0.000 A 
HETATM   43  C   UNK N   1      29.860  12.443   3.428  0.00  0.00     0.001 A 
HETATM   44  C   UNK N   1      30.357  13.639   3.948  0.00  0.00     0.009 A 
ENDBRANCH  29  39
ENDBRANCH  26  29
ENDBRANCH  24  26
ENDBRANCH  23  24
ENDBRANCH  18  23
BRANCH   8  45
HETATM   45  O   UNK N   1      33.110  13.961   8.708  0.00  0.00    -0.386 OA
HETATM   46  H   UNK N   1      33.092  14.575   9.459  0.00  0.00     0.210 HD
ENDBRANCH   8  45
BRANCH   7  47
HETATM   47  O   UNK N   1      34.827  11.293   7.285  0.00  0.00    -0.308 OA
BRANCH  47  48
HETATM   48  C   UNK N   1      33.997  11.001   6.243  0.00  0.00     0.293 C 
HETATM   49  O   UNK N   1      32.960  10.379   6.443  0.00  0.00    -0.259 OA
BRANCH  48  50
HETATM   50  C   UNK N   1      34.388  11.310   4.853  0.00  0.00     0.039 A 
HETATM   51  C   UNK N   1      33.426  11.443   3.843  0.00  0.00     0.017 A 
HETATM   52  C   UNK N   1      33.818  11.783   2.542  0.00  0.00     0.001 A 
HETATM   53  C   UNK N   1      35.165  12.020   2.254  0.00  0.00     0.000 A 
HETATM   54  C   UNK N   1      36.127  11.897   3.258  0.00  0.00     0.001 A 
HETATM   55  C   UNK N   1      35.740  11.532   4.549  0.00  0.00     0.017 A 
ENDBRANCH  48  50
ENDBRANCH  47  48
ENDBRANCH   7  47
BRANCH  17  56
HETATM   56  O   UNK N   1      34.966  17.134  10.286  0.00  0.00    -0.384 OA
HETATM   57  H   UNK N   1      34.346  17.742   9.853  0.00  0.00     0.211 HD
ENDBRANCH  17  56
BRANCH   4  58
HETATM   58  O   UNK N   1      34.121   9.693   9.640  0.00  0.00    -0.305 OA
BRANCH  58  59
HETATM   59  C   UNK N   1      32.779   9.482   9.754  0.00  0.00     0.255 C 
HETATM   60  O   UNK N   1      31.972  10.373   9.531  0.00  0.00    -0.266 OA
HETATM   61  C   UNK N   1      32.287   8.140  10.166  0.00  0.00     0.126 C 
ENDBRANCH  58  59
ENDBRANCH   4  58
BRANCH   9  62
HETATM   62  O   UNK N   1      35.682  13.843  13.078  0.00  0.00    -0.394 OA
HETATM   63  H   UNK N   1      34.939  14.339  13.456  0.00  0.00     0.210 HD
ENDBRANCH   9  62
TORSDOF 17
ENDMDL
MODEL 8
REMARK VINA RESULT:      -6.8      1.125      1.479
REMARK  17 active torsions:
REMARK  status: ('A' for Active; 'I' for Inactive)
REMARK    1  A    between atoms: C_17  and  O_2 
REMARK    2  A    between atoms: O_2  and  C_36 
REMARK    3  A    between atoms: C_20  and  O_3 
REMARK    4  A    between atoms: O_3  and  C_37 
REMARK    5  A    between atoms: C_21  and  O_4 
REMARK    6  A    between atoms: C_22  and  O_5 
REMARK    7  A    between atoms: C_30  and  O_7 
REMARK    8  A    between atoms: C_31  and  O_8 
REMARK    9  A    between atoms: O_8  and  C_39 
REMARK   10  A    between atoms: C_41  and  O_12 
REMARK   11  A    between atoms: O_13  and  C_51 
REMARK   12  A    between atoms: O_13  and  C_55 
REMARK   13  A    between atoms: C_44  and  N_15 
REMARK       I    between atoms: N_15  and  C_51 
REMARK   14  A    between atoms: C_37  and  C_40 
REMARK   15  A    between atoms: C_39  and  C_41 
REMARK   16  A    between atoms: C_41  and  C_44 
REMARK   17  A    between atoms: C_44  and  C_48 
ROOT
HETATM    1  O   UNK N   1      35.739   8.929  12.852  0.00  0.00    -0.380 OA
HETATM    2  O   UNK N   1      34.970  14.223  12.261  0.00  0.00    -0.294 OA
HETATM    3  C   UNK N   1      34.926  11.361  10.745  0.00  0.00     0.076 C 
HETATM    4  C   UNK N   1      34.775   9.884  11.226  0.00  0.00     0.125 A 
HETATM    5  C   UNK N   1      36.079  12.220  11.545  0.00  0.00     0.055 C 
HETATM    6  C   UNK N   1      34.624   9.782  12.744  0.00  0.00     0.161 A 
HETATM    7  C   UNK N   1      34.611  11.610   9.187  0.00  0.00     0.176 C 
HETATM    8  C   UNK N   1      34.506  13.062   8.734  0.00  0.00     0.098 C 
HETATM    9  C   UNK N   1      36.111  11.741  13.014  0.00  0.00     0.137 C 
HETATM   10  C   UNK N   1      34.850  11.087  13.534  0.00  0.00     0.068 C 
HETATM   11  C   UNK N   1      35.967  13.616   8.472  0.00  0.00     0.013 C 
HETATM   12  C   UNK N   1      36.021   9.061  11.472  0.00  0.00     0.210 A 
HETATM   13  C   UNK N   1      35.858  13.788  11.541  0.00  0.00     0.171 C 
HETATM   14  C   UNK N   1      33.644  13.732   7.652  0.00  0.00     0.078 C 
HETATM   15  C   UNK N   1      35.895  14.875   9.243  0.00  0.00    -0.029 C 
HETATM   16  C   UNK N   1      37.512  11.833  11.204  0.00  0.00     0.027 C 
HETATM   17  C   UNK N   1      36.582  14.827  10.620  0.00  0.00     0.218 C 
HETATM   18  C   UNK N   1      33.943  15.320   7.665  0.00  0.00     0.164 C 
HETATM   19  C   UNK N   1      34.891  15.752   8.845  0.00  0.00    -0.048 C 
HETATM   20  C   UNK N   1      37.150  12.743   8.778  0.00  0.00     0.023 C 
HETATM   21  C   UNK N   1      36.369  13.827   7.028  0.00  0.00     0.023 C 
HETATM   22  C   UNK N   1      34.487  16.923   9.682  0.00  0.00     0.046 C 
ENDROOT
BRANCH  18  23
HETATM   23  O   UNK N   1      34.511  15.735   6.474  0.00  0.00    -0.309 OA
BRANCH  23  24
HETATM   24  C   UNK N   1      33.986  16.683   5.655  0.00  0.00     0.290 C 
HETATM   25  O   UNK N   1      34.121  17.873   5.902  0.00  0.00    -0.262 OA
BRANCH  24  26
HETATM   26  C   UNK N   1      33.117  16.210   4.525  0.00  0.00     0.244 C 
BRANCH  26  27
HETATM   27  O   UNK N   1      32.865  17.250   3.631  0.00  0.00    -0.383 OA
HETATM   28  H   UNK N   1      32.299  17.147   2.850  0.00  0.00     0.210 HD
ENDBRANCH  26  27
BRANCH  26  29
HETATM   29  C   UNK N   1      31.828  15.471   4.877  0.00  0.00     0.158 C 
BRANCH  29  30
HETATM   30  N   UNK N   1      30.664  16.350   4.954  0.00  0.00    -0.325 N 
HETATM   31  C   UNK N   1      30.281  17.096   6.029  0.00  0.00     0.361 C 
HETATM   32  O   UNK N   1      30.815  16.957   7.114  0.00  0.00    -0.238 OA
HETATM   33  H   UNK N   1      30.099  16.410   4.151  0.00  0.00     0.165 HD
BRANCH  31  34
HETATM   34  O   UNK N   1      29.328  18.053   5.849  0.00  0.00    -0.294 OA
BRANCH  34  35
HETATM   35  C   UNK N   1      28.068  18.059   6.447  0.00  0.00     0.061 C 
HETATM   36  C   UNK N   1      27.536  16.671   6.798  0.00  0.00     0.046 C 
HETATM   37  C   UNK N   1      28.171  18.837   7.743  0.00  0.00     0.046 C 
HETATM   38  C   UNK N   1      27.069  18.756   5.548  0.00  0.00     0.046 C 
ENDBRANCH  34  35
ENDBRANCH  31  34
ENDBRANCH  29  30
BRANCH  29  39
HETATM   39  C   UNK N   1      31.636  14.133   4.212  0.00  0.00    -0.032 A 
HETATM   40  C   UNK N   1      31.016  13.070   4.890  0.00  0.00     0.009 A 
HETATM   41  C   UNK N   1      30.781  11.860   4.241  0.00  0.00     0.001 A 
HETATM   42  C   UNK N   1      31.163  11.702   2.908  0.00  0.00     0.000 A 
HETATM   43  C   UNK N   1      31.778  12.756   2.224  0.00  0.00     0.001 A 
HETATM   44  C   UNK N   1      32.005  13.971   2.873  0.00  0.00     0.009 A 
ENDBRANCH  29  39
ENDBRANCH  26  29
ENDBRANCH  24  26
ENDBRANCH  23  24
ENDBRANCH  18  23
BRANCH   8  45
HETATM   45  O   UNK N   1      33.827  13.593   9.850  0.00  0.00    -0.386 OA
HETATM   46  H   UNK N   1      33.735  13.361  10.787  0.00  0.00     0.210 HD
ENDBRANCH   8  45
BRANCH   7  47
HETATM   47  O   UNK N   1      34.590  10.606   8.240  0.00  0.00    -0.308 OA
BRANCH  47  48
HETATM   48  C   UNK N   1      33.537  10.507   7.378  0.00  0.00     0.293 C 
HETATM   49  O   UNK N   1      32.394  10.437   7.814  0.00  0.00    -0.259 OA
BRANCH  48  50
HETATM   50  C   UNK N   1      33.759  10.353   5.926  0.00  0.00     0.039 A 
HETATM   51  C   UNK N   1      34.508  11.293   5.205  0.00  0.00     0.017 A 
HETATM   52  C   UNK N   1      34.745  11.101   3.839  0.00  0.00     0.001 A 
HETATM   53  C   UNK N   1      34.261   9.957   3.196  0.00  0.00     0.000 A 
HETATM   54  C   UNK N   1      33.522   9.014   3.911  0.00  0.00     0.001 A 
HETATM   55  C   UNK N   1      33.262   9.218   5.268  0.00  0.00     0.017 A 
ENDBRANCH  48  50
ENDBRANCH  47  48
ENDBRANCH   7  47
BRANCH  17  56
HETATM   56  O   UNK N   1      36.635  16.084  11.231  0.00  0.00    -0.384 OA
HETATM   57  H   UNK N   1      37.273  16.289  11.933  0.00  0.00     0.211 HD
ENDBRANCH  17  56
BRANCH   4  58
HETATM   58  O   UNK N   1      33.716   9.183  10.651  0.00  0.00    -0.305 OA
BRANCH  58  59
HETATM   59  C   UNK N   1      33.758   7.939  10.094  0.00  0.00     0.255 C 
HETATM   60  O   UNK N   1      34.553   7.664   9.207  0.00  0.00    -0.266 OA
HETATM   61  C   UNK N   1      32.810   6.896  10.572  0.00  0.00     0.126 C 
ENDBRANCH  58  59
ENDBRANCH   4  58
BRANCH   9  62
HETATM   62  O   UNK N   1      36.700  12.632  13.918  0.00  0.00    -0.394 OA
HETATM   63  H   UNK N   1      37.076  12.314  14.753  0.00  0.00     0.210 HD
ENDBRANCH   9  62
TORSDOF 17
ENDMDL
MODEL 9
REMARK VINA RESULT:      -6.8      6.508     12.411
REMARK  17 active torsions:
REMARK  status: ('A' for Active; 'I' for Inactive)
REMARK    1  A    between atoms: C_17  and  O_2 
REMARK    2  A    between atoms: O_2  and  C_36 
REMARK    3  A    between atoms: C_20  and  O_3 
REMARK    4  A    between atoms: O_3  and  C_37 
REMARK    5  A    between atoms: C_21  and  O_4 
REMARK    6  A    between atoms: C_22  and  O_5 
REMARK    7  A    between atoms: C_30  and  O_7 
REMARK    8  A    between atoms: C_31  and  O_8 
REMARK    9  A    between atoms: O_8  and  C_39 
REMARK   10  A    between atoms: C_41  and  O_12 
REMARK   11  A    between atoms: O_13  and  C_51 
REMARK   12  A    between atoms: O_13  and  C_55 
REMARK   13  A    between atoms: C_44  and  N_15 
REMARK       I    between atoms: N_15  and  C_51 
REMARK   14  A    between atoms: C_37  and  C_40 
REMARK   15  A    between atoms: C_39  and  C_41 
REMARK   16  A    between atoms: C_41  and  C_44 
REMARK   17  A    between atoms: C_44  and  C_48 
ROOT
HETATM    1  O   UNK N   1      18.840  13.495   2.579  0.00  0.00    -0.380 OA
HETATM    2  O   UNK N   1      23.545  10.950   3.175  0.00  0.00    -0.294 OA
HETATM    3  C   UNK N   1      22.082  13.840   3.200  0.00  0.00     0.076 C 
HETATM    4  C   UNK N   1      20.608  14.304   3.418  0.00  0.00     0.125 A 
HETATM    5  C   UNK N   1      22.259  12.651   2.076  0.00  0.00     0.055 C 
HETATM    6  C   UNK N   1      19.660  13.130   3.664  0.00  0.00     0.161 A 
HETATM    7  C   UNK N   1      23.198  14.978   3.414  0.00  0.00     0.176 C 
HETATM    8  C   UNK N   1      24.650  14.514   3.454  0.00  0.00     0.098 C 
HETATM    9  C   UNK N   1      21.021  11.728   2.145  0.00  0.00     0.137 C 
HETATM   10  C   UNK N   1      20.259  11.725   3.452  0.00  0.00     0.068 C 
HETATM   11  C   UNK N   1      25.171  14.358   1.966  0.00  0.00     0.013 C 
HETATM   12  C   UNK N   1      19.724  14.535   2.211  0.00  0.00     0.210 A 
HETATM   13  C   UNK N   1      23.554  11.758   2.257  0.00  0.00     0.171 C 
HETATM   14  C   UNK N   1      25.867  15.041   4.231  0.00  0.00     0.078 C 
HETATM   15  C   UNK N   1      25.759  13.006   2.052  0.00  0.00    -0.029 C 
HETATM   16  C   UNK N   1      22.058  13.103   0.636  0.00  0.00     0.027 C 
HETATM   17  C   UNK N   1      24.890  11.884   1.451  0.00  0.00     0.218 C 
HETATM   18  C   UNK N   1      27.139  14.104   3.892  0.00  0.00     0.164 C 
HETATM   19  C   UNK N   1      26.760  12.859   3.007  0.00  0.00    -0.048 C 
HETATM   20  C   UNK N   1      24.216  14.571   0.826  0.00  0.00     0.023 C 
HETATM   21  C   UNK N   1      26.151  15.401   1.471  0.00  0.00     0.023 C 
HETATM   22  C   UNK N   1      27.258  11.515   3.430  0.00  0.00     0.046 C 
ENDROOT
BRANCH  18  23
HETATM   23  O   UNK N   1      28.131  14.817   3.243  0.00  0.00    -0.309 OA
BRANCH  23  24
HETATM   24  C   UNK N   1      29.398  14.974   3.703  0.00  0.00     0.290 C 
HETATM   25  O   UNK N   1      30.247  14.112   3.518  0.00  0.00    -0.262 OA
BRANCH  24  26
HETATM   26  C   UNK N   1      29.672  16.172   4.567  0.00  0.00     0.244 C 
BRANCH  26  27
HETATM   27  O   UNK N   1      30.332  17.162   3.838  0.00  0.00    -0.383 OA
HETATM   28  H   UNK N   1      30.992  17.754   4.232  0.00  0.00     0.210 HD
ENDBRANCH  26  27
BRANCH  26  29
HETATM   29  C   UNK N   1      30.354  15.941   5.912  0.00  0.00     0.158 C 
BRANCH  29  30
HETATM   30  N   UNK N   1      31.779  15.642   5.791  0.00  0.00    -0.325 N 
HETATM   31  C   UNK N   1      32.424  14.552   6.293  0.00  0.00     0.361 C 
HETATM   32  O   UNK N   1      31.865  13.786   7.057  0.00  0.00    -0.238 OA
HETATM   33  H   UNK N   1      32.328  16.292   5.297  0.00  0.00     0.165 HD
BRANCH  31  34
HETATM   34  O   UNK N   1      33.695  14.296   5.870  0.00  0.00    -0.294 OA
BRANCH  34  35
HETATM   35  C   UNK N   1      34.853  14.528   6.611  0.00  0.00     0.061 C 
HETATM   36  C   UNK N   1      34.750  15.703   7.581  0.00  0.00     0.046 C 
HETATM   37  C   UNK N   1      35.133  13.290   7.438  0.00  0.00     0.046 C 
HETATM   38  C   UNK N   1      36.026  14.760   5.682  0.00  0.00     0.046 C 
ENDBRANCH  34  35
ENDBRANCH  31  34
ENDBRANCH  29  30
BRANCH  29  39
HETATM   39  C   UNK N   1      29.939  16.866   7.026  0.00  0.00    -0.032 A 
HETATM   40  C   UNK N   1      30.882  17.368   7.939  0.00  0.00     0.009 A 
HETATM   41  C   UNK N   1      30.497  18.277   8.922  0.00  0.00     0.001 A 
HETATM   42  C   UNK N   1      29.167  18.693   9.001  0.00  0.00     0.000 A 
HETATM   43  C   UNK N   1      28.223  18.201   8.095  0.00  0.00     0.001 A 
HETATM   44  C   UNK N   1      28.610  17.297   7.105  0.00  0.00     0.009 A 
ENDBRANCH  29  39
ENDBRANCH  26  29
ENDBRANCH  24  26
ENDBRANCH  23  24
ENDBRANCH  18  23
BRANCH   8  45
HETATM   45  O   UNK N   1      24.479  13.322   4.185  0.00  0.00    -0.386 OA
HETATM   46  H   UNK N   1      24.019  12.479   4.050  0.00  0.00     0.210 HD
ENDBRANCH   8  45
BRANCH   7  47
HETATM   47  O   UNK N   1      22.923  16.332   3.403  0.00  0.00    -0.308 OA
BRANCH  47  48
HETATM   48  C   UNK N   1      23.463  17.142   4.359  0.00  0.00     0.293 C 
HETATM   49  O   UNK N   1      23.210  16.945   5.541  0.00  0.00    -0.259 OA
BRANCH  48  50
HETATM   50  C   UNK N   1      24.248  18.336   3.984  0.00  0.00     0.039 A 
HETATM   51  C   UNK N   1      25.645  18.345   4.089  0.00  0.00     0.017 A 
HETATM   52  C   UNK N   1      26.371  19.472   3.683  0.00  0.00     0.001 A 
HETATM   53  C   UNK N   1      25.707  20.578   3.145  0.00  0.00     0.000 A 
HETATM   54  C   UNK N   1      24.316  20.571   3.031  0.00  0.00     0.001 A 
HETATM   55  C   UNK N   1      23.590  19.459   3.460  0.00  0.00     0.017 A 
ENDBRANCH  48  50
ENDBRANCH  47  48
ENDBRANCH   7  47
BRANCH  17  56
HETATM   56  O   UNK N   1      25.562  10.659   1.403  0.00  0.00    -0.384 OA
HETATM   57  H   UNK N   1      26.406  10.553   0.936  0.00  0.00     0.211 HD
ENDBRANCH  17  56
BRANCH   4  58
HETATM   58  O   UNK N   1      20.425  15.216   4.458  0.00  0.00    -0.305 OA
BRANCH  58  59
HETATM   59  C   UNK N   1      19.524  16.237   4.509  0.00  0.00     0.255 C 
HETATM   60  O   UNK N   1      18.460  16.121   5.100  0.00  0.00    -0.266 OA
HETATM   61  C   UNK N   1      19.839  17.519   3.823  0.00  0.00     0.126 C 
ENDBRANCH  58  59
ENDBRANCH   4  58
BRANCH   9  62
HETATM   62  O   UNK N   1      21.196  10.456   1.591  0.00  0.00    -0.394 OA
HETATM   63  H   UNK N   1      20.930   9.661   2.079  0.00  0.00     0.210 HD
ENDBRANCH   9  62
TORSDOF 17
ENDMDL
