REMARK  17 active torsions:
REMARK  status: ('A' for Active; 'I' for Inactive)
REMARK    1  A    between atoms: C_17  and  O_2 
REMARK    2  A    between atoms: O_2  and  C_36 
REMARK    3  A    between atoms: C_20  and  O_3 
REMARK    4  A    between atoms: O_3  and  C_37 
REMARK    5  A    between atoms: C_21  and  O_4 
REMARK    6  A    between atoms: C_22  and  O_5 
REMARK    7  A    between atoms: C_30  and  O_7 
REMARK    8  A    between atoms: C_31  and  O_8 
REMARK    9  A    between atoms: O_8  and  C_39 
REMARK   10  A    between atoms: C_41  and  O_12 
REMARK   11  A    between atoms: O_13  and  C_51 
REMARK   12  A    between atoms: O_13  and  C_55 
REMARK   13  A    between atoms: C_44  and  N_15 
REMARK       I    between atoms: N_15  and  C_51 
REMARK   14  A    between atoms: C_37  and  C_40 
REMARK   15  A    between atoms: C_39  and  C_41 
REMARK   16  A    between atoms: C_41  and  C_44 
REMARK   17  A    between atoms: C_44  and  C_48 
ROOT
HETATM    1  O   UNK N   1       2.067  -4.773   1.229  0.00  0.00    -0.380 OA
HETATM    2  O   UNK N   1       1.177   0.147  -0.763  0.00  0.00    -0.294 OA
HETATM    3  C   UNK N   1       3.461  -1.971   0.125  0.00  0.00     0.076 C 
HETATM    4  C   UNK N   1       3.493  -3.523   0.287  0.00  0.00     0.125 A 
HETATM    5  C   UNK N   1       2.213  -1.234   0.903  0.00  0.00     0.055 C 
HETATM    6  C   UNK N   1       2.146  -4.168  -0.040  0.00  0.00     0.161 A 
HETATM    7  C   UNK N   1       4.900  -1.268  -0.027  0.00  0.00     0.176 C 
HETATM    8  C   UNK N   1       4.904   0.202  -0.432  0.00  0.00     0.098 C 
HETATM    9  C   UNK N   1       0.986  -2.173   0.854  0.00  0.00     0.137 C 
HETATM   10  C   UNK N   1       0.969  -3.196  -0.260  0.00  0.00     0.068 C 
HETATM   11  C   UNK N   1       4.670   1.083   0.864  0.00  0.00     0.013 C 
HETATM   12  C   UNK N   1       3.249  -4.124   1.655  0.00  0.00     0.210 A 
HETATM   13  C   UNK N   1       1.789   0.166   0.296  0.00  0.00     0.171 C 
HETATM   14  C   UNK N   1       5.890   1.023  -1.278  0.00  0.00     0.078 C 
HETATM   15  C   UNK N   1       3.588   1.961   0.372  0.00  0.00    -0.029 C 
HETATM   16  C   UNK N   1       2.342  -1.196   2.420  0.00  0.00     0.027 C 
HETATM   17  C   UNK N   1       2.176   1.577   0.854  0.00  0.00     0.218 C 
HETATM   18  C   UNK N   1       5.334   2.536  -1.394  0.00  0.00     0.164 C 
HETATM   19  C   UNK N   1       3.905   2.710  -0.756  0.00  0.00    -0.048 C 
HETATM   20  C   UNK N   1       4.398   0.404   2.176  0.00  0.00     0.023 C 
HETATM   21  C   UNK N   1       5.862   1.851   1.394  0.00  0.00     0.023 C 
HETATM   22  C   UNK N   1       2.859   3.421  -1.553  0.00  0.00     0.046 C 
ENDROOT
BRANCH  18  23
HETATM   23  O   UNK N   1       6.194   3.436  -0.792  0.00  0.00    -0.309 OA
BRANCH  23  24
HETATM   24  C   UNK N   1       7.527   3.240  -0.626  0.00  0.00     0.290 C 
HETATM   25  O   UNK N   1       8.208   2.755  -1.519  0.00  0.00    -0.262 OA
BRANCH  24  26
HETATM   26  C   UNK N   1       8.096   3.505   0.739  0.00  0.00     0.244 C 
BRANCH  26  27
HETATM   27  O   UNK N   1       7.820   4.812   1.141  0.00  0.00    -0.383 OA
HETATM   28  H   UNK N   1       8.510   5.433   1.421  0.00  0.00     0.210 HD
ENDBRANCH  26  27
BRANCH  26  29
HETATM   29  C   UNK N   1       9.563   3.160   0.980  0.00  0.00     0.158 C 
BRANCH  29  30
HETATM   30  N   UNK N   1       9.828   1.723   0.951  0.00  0.00    -0.325 N 
HETATM   31  C   UNK N   1      10.640   1.066   0.076  0.00  0.00     0.361 C 
HETATM   32  O   UNK N   1      11.105   1.631  -0.897  0.00  0.00    -0.238 OA
HETATM   33  H   UNK N   1       9.375   1.175   1.631  0.00  0.00     0.165 HD
BRANCH  31  34
HETATM   34  O   UNK N   1      10.978  -0.226   0.348  0.00  0.00    -0.294 OA
BRANCH  34  35
HETATM   35  C   UNK N   1      12.261  -0.762   0.247  0.00  0.00     0.061 C 
HETATM   36  C   UNK N   1      13.356   0.277   0.016  0.00  0.00     0.046 C 
HETATM   37  C   UNK N   1      12.579  -1.461   1.553  0.00  0.00     0.046 C 
HETATM   38  C   UNK N   1      12.311  -1.785  -0.868  0.00  0.00     0.046 C 
ENDBRANCH  34  35
ENDBRANCH  31  34
ENDBRANCH  29  30
BRANCH  29  39
HETATM   39  C   UNK N   1      10.568   4.057   0.307  0.00  0.00    -0.032 A 
HETATM   40  C   UNK N   1      10.165   5.016  -0.637  0.00  0.00     0.009 A 
HETATM   41  C   UNK N   1      11.095   5.886  -1.201  0.00  0.00     0.001 A 
HETATM   42  C   UNK N   1      12.437   5.806  -0.825  0.00  0.00     0.000 A 
HETATM   43  C   UNK N   1      12.847   4.857   0.116  0.00  0.00     0.001 A 
HETATM   44  C   UNK N   1      11.913   3.991   0.687  0.00  0.00     0.009 A 
ENDBRANCH  29  39
ENDBRANCH  26  29
ENDBRANCH  24  26
ENDBRANCH  23  24
ENDBRANCH  18  23
BRANCH   8  45
HETATM   45  O   UNK N   1       3.851   0.175  -1.368  0.00  0.00    -0.386 OA
HETATM   46  H   UNK N   1       3.472   0.793  -2.012  0.00  0.00     0.210 HD
ENDBRANCH   8  45
BRANCH   7  47
HETATM   47  O   UNK N   1       6.089  -1.870   0.336  0.00  0.00    -0.308 OA
BRANCH  47  48
HETATM   48  C   UNK N   1       6.933  -2.341  -0.626  0.00  0.00     0.293 C 
HETATM   49  O   UNK N   1       6.630  -2.238  -1.809  0.00  0.00    -0.259 OA
BRANCH  48  50
HETATM   50  C   UNK N   1       8.152  -3.092  -0.263  0.00  0.00     0.039 A 
HETATM   51  C   UNK N   1       8.637  -3.092   1.051  0.00  0.00     0.017 A 
HETATM   52  C   UNK N   1       9.767  -3.850   1.381  0.00  0.00     0.001 A 
HETATM   53  C   UNK N   1      10.397  -4.632   0.408  0.00  0.00     0.000 A 
HETATM   54  C   UNK N   1       9.913  -4.642  -0.901  0.00  0.00     0.001 A 
HETATM   55  C   UNK N   1       8.802  -3.866  -1.237  0.00  0.00     0.017 A 
ENDBRANCH  48  50
ENDBRANCH  47  48
ENDBRANCH   7  47
BRANCH  17  56
HETATM   56  O   UNK N   1       1.217   2.532   0.504  0.00  0.00    -0.384 OA
HETATM   57  H   UNK N   1       1.459   3.440   0.261  0.00  0.00     0.211 HD
ENDBRANCH  17  56
BRANCH   4  58
HETATM   58  O   UNK N   1       4.465  -4.175  -0.472  0.00  0.00    -0.305 OA
BRANCH  58  59
HETATM   59  C   UNK N   1       5.460  -4.986  -0.014  0.00  0.00     0.255 C 
HETATM   60  O   UNK N   1       5.783  -4.996   1.165  0.00  0.00    -0.266 OA
HETATM   61  C   UNK N   1       6.173  -5.874  -0.972  0.00  0.00     0.126 C 
ENDBRANCH  58  59
ENDBRANCH   4  58
BRANCH   9  62
HETATM   62  O   UNK N   1      -0.248  -1.551   1.069  0.00  0.00    -0.394 OA
HETATM   63  H   UNK N   1      -0.301  -0.594   1.219  0.00  0.00     0.210 HD
ENDBRANCH   9  62
TORSDOF 17
