REMARK  31 active torsions:
REMARK  status: ('A' for Active; 'I' for Inactive)
REMARK    1  A    between atoms: O_7  and  C_28 
REMARK    2  A    between atoms: O_14  and  C_55 
REMARK    3  A    between atoms: O_15  and  C_56 
REMARK    4  A    between atoms: O_16  and  C_57 
REMARK    5  A    between atoms: O_17  and  C_58 
REMARK    6  A    between atoms: O_18  and  C_59 
REMARK    7  A    between atoms: O_19  and  C_60 
REMARK    8  A    between atoms: O_20  and  C_61 
REMARK    9  A    between atoms: O_21  and  C_62 
REMARK   10  A    between atoms: N_22  and  C_29 
REMARK   11  A    between atoms: N_22  and  C_31 
REMARK       I    between atoms: N_22  and  C_33 
REMARK   12  A    between atoms: N_23  and  C_30 
REMARK   13  A    between atoms: N_23  and  C_32 
REMARK       I    between atoms: N_23  and  C_34 
REMARK       I    between atoms: N_24  and  C_47 
REMARK   14  A    between atoms: N_24  and  C_51 
REMARK       I    between atoms: N_25  and  C_48 
REMARK   15  A    between atoms: N_25  and  C_52 
REMARK       I    between atoms: N_26  and  C_49 
REMARK   16  A    between atoms: N_26  and  C_53 
REMARK       I    between atoms: N_27  and  C_50 
REMARK   17  A    between atoms: N_27  and  C_54 
REMARK   18  A    between atoms: C_28  and  C_29 
REMARK   19  A    between atoms: C_28  and  C_30 
REMARK   20  A    between atoms: C_39  and  C_49 
REMARK   21  A    between atoms: C_40  and  C_50 
REMARK   22  A    between atoms: C_41  and  C_47 
REMARK   23  A    between atoms: C_42  and  C_48 
REMARK   24  A    between atoms: C_51  and  C_55 
REMARK   25  A    between atoms: C_52  and  C_56 
REMARK   26  A    between atoms: C_53  and  C_57 
REMARK   27  A    between atoms: C_54  and  C_58 
REMARK   28  A    between atoms: C_55  and  C_59 
REMARK   29  A    between atoms: C_56  and  C_60 
REMARK   30  A    between atoms: C_57  and  C_61 
REMARK   31  A    between atoms: C_58  and  C_62 
ROOT
HETATM    1  C   UNK N   1       4.764   1.592  -0.876  0.00  0.00     0.155 C 
ENDROOT
BRANCH   1   2
HETATM    2  O   UNK N   1       4.791   2.975  -0.704  0.00  0.00    -0.392 OA
HETATM    3  H   UNK N   1       5.634   3.440  -0.584  0.00  0.00     0.210 HD
ENDBRANCH   1   2
BRANCH   1   4
HETATM    4  C   UNK N   1       5.927   1.291  -1.832  0.00  0.00     0.165 C 
BRANCH   4   5
HETATM    5  N   UNK N   1       7.012   0.715  -1.147  0.00  0.00    -0.317 N 
HETATM    6  C   UNK N   1       7.085  -0.604  -0.909  0.00  0.00     0.220 C 
HETATM    7  O   UNK N   1       6.340  -1.350  -1.612  0.00  0.00    -0.273 OA
HETATM    8  C   UNK N   1       7.924  -1.165   0.161  0.00  0.00     0.117 C 
BRANCH   5   9
HETATM    9  C   UNK N   1       8.129   1.475  -0.556  0.00  0.00     0.050 C 
HETATM   10  C   UNK N   1       7.960   2.578   0.307  0.00  0.00     0.144 C 
HETATM   11  I   UNK N   1       6.746   2.551   2.067  0.00  0.00    -0.073 I 
HETATM   12  C   UNK N   1       9.082   3.143   0.818  0.00  0.00     0.047 C 
HETATM   13  C   UNK N   1      10.242   2.382   0.987  0.00  0.00     0.036 C 
HETATM   14  I   UNK N   1      11.581   3.140   2.448  0.00  0.00    -0.043 I 
HETATM   15  C   UNK N   1      10.333   1.138   0.340  0.00  0.00     0.067 C 
HETATM   16  C   UNK N   1       9.397   0.874  -0.663  0.00  0.00     0.047 C 
HETATM   17  I   UNK N   1       9.901  -0.642  -2.164  0.00  0.00    -0.041 I 
BRANCH  12  18
HETATM   18  C   UNK N   1       9.206   4.547   0.528  0.00  0.00     0.250 C 
HETATM   19  O   UNK N   1       8.627   5.412   1.167  0.00  0.00    -0.268 OA
HETATM   20  N   UNK N   1       9.859   4.827  -0.617  0.00  0.00    -0.355 N 
HETATM   21  H   UNK N   1      10.091   4.078  -1.212  0.00  0.00     0.162 HD
BRANCH  20  22
HETATM   22  C   UNK N   1      10.232   6.137  -1.018  0.00  0.00     0.156 C 
BRANCH  22  23
HETATM   23  C   UNK N   1      11.683   6.337  -0.609  0.00  0.00     0.159 C 
BRANCH  23  24
HETATM   24  O   UNK N   1      12.265   5.177  -0.076  0.00  0.00    -0.392 OA
HETATM   25  H   UNK N   1      11.772   4.427   0.293  0.00  0.00     0.210 HD
ENDBRANCH  23  24
BRANCH  23  26
HETATM   26  C   UNK N   1      11.719   7.414   0.433  0.00  0.00     0.197 C 
BRANCH  26  27
HETATM   27  O   UNK N   1      12.760   8.280   0.124  0.00  0.00    -0.398 OA
HETATM   28  H   UNK N   1      13.648   7.952  -0.091  0.00  0.00     0.209 HD
ENDBRANCH  26  27
ENDBRANCH  23  26
ENDBRANCH  22  23
ENDBRANCH  20  22
ENDBRANCH  12  18
BRANCH  15  29
HETATM   29  C   UNK N   1      11.216  -0.019   0.726  0.00  0.00     0.254 C 
HETATM   30  O   UNK N   1      10.674  -1.107   0.866  0.00  0.00    -0.268 OA
HETATM   31  N   UNK N   1      12.539   0.047   0.978  0.00  0.00    -0.354 N 
HETATM   32  H   UNK N   1      12.978  -0.752   1.350  0.00  0.00     0.162 HD
BRANCH  31  33
HETATM   33  C   UNK N   1      13.340   1.200   0.742  0.00  0.00     0.156 C 
BRANCH  33  34
HETATM   34  C   UNK N   1      13.472   1.443  -0.740  0.00  0.00     0.159 C 
BRANCH  34  35
HETATM   35  O   UNK N   1      13.352   2.808  -0.977  0.00  0.00    -0.392 OA
HETATM   36  H   UNK N   1      14.135   3.356  -1.142  0.00  0.00     0.210 HD
ENDBRANCH  34  35
BRANCH  34  37
HETATM   37  C   UNK N   1      14.828   0.957  -1.216  0.00  0.00     0.197 C 
BRANCH  37  38
HETATM   38  O   UNK N   1      15.840   1.752  -0.672  0.00  0.00    -0.398 OA
HETATM   39  H   UNK N   1      16.669   1.420  -0.294  0.00  0.00     0.209 HD
ENDBRANCH  37  38
ENDBRANCH  34  37
ENDBRANCH  33  34
ENDBRANCH  31  33
ENDBRANCH  15  29
ENDBRANCH   5   9
ENDBRANCH   4   5
ENDBRANCH   1   4
BRANCH   1  40
HETATM   40  C   UNK N   1       4.950   0.919   0.512  0.00  0.00     0.165 C 
BRANCH  40  41
HETATM   41  N   UNK N   1       4.081  -0.151   0.899  0.00  0.00    -0.313 N 
HETATM   42  C   UNK N   1       2.857   0.144   1.440  0.00  0.00     0.220 C 
HETATM   43  O   UNK N   1       2.056  -0.741   1.684  0.00  0.00    -0.273 OA
HETATM   44  C   UNK N   1       2.452   1.568   1.699  0.00  0.00     0.117 C 
BRANCH  41  45
HETATM   45  C   UNK N   1       4.379  -1.474   0.441  0.00  0.00     0.072 C 
HETATM   46  C   UNK N   1       3.555  -1.959  -0.546  0.00  0.00     0.051 C 
HETATM   47  I   UNK N   1       2.103  -0.673  -1.540  0.00  0.00    -0.041 I 
HETATM   48  C   UNK N   1       3.676  -3.281  -0.913  0.00  0.00     0.068 C 
HETATM   49  C   UNK N   1       4.922  -3.934  -0.787  0.00  0.00     0.040 C 
HETATM   50  I   UNK N   1       5.336  -5.721  -1.883  0.00  0.00    -0.042 I 
HETATM   51  C   UNK N   1       5.880  -3.404   0.085  0.00  0.00     0.068 C 
HETATM   52  C   UNK N   1       5.477  -2.288   0.910  0.00  0.00     0.051 C 
HETATM   53  I   UNK N   1       6.506  -1.863   2.752  0.00  0.00    -0.041 I 
BRANCH  48  54
HETATM   54  C   UNK N   1       2.416  -4.016  -1.158  0.00  0.00     0.254 C 
HETATM   55  O   UNK N   1       1.365  -3.407  -1.024  0.00  0.00    -0.268 OA
HETATM   56  N   UNK N   1       2.395  -5.304  -0.795  0.00  0.00    -0.354 N 
HETATM   57  H   UNK N   1       2.314  -6.015  -1.471  0.00  0.00     0.162 HD
BRANCH  56  58
HETATM   58  C   UNK N   1       2.493  -5.631   0.613  0.00  0.00     0.156 C 
BRANCH  58  59
HETATM   59  C   UNK N   1       2.242  -7.104   0.793  0.00  0.00     0.159 C 
BRANCH  59  60
HETATM   60  O   UNK N   1       3.116  -7.805  -0.043  0.00  0.00    -0.392 OA
HETATM   61  H   UNK N   1       2.997  -8.573  -0.623  0.00  0.00     0.210 HD
ENDBRANCH  59  60
BRANCH  59  62
HETATM   62  C   UNK N   1       0.777  -7.385   0.462  0.00  0.00     0.197 C 
BRANCH  62  63
HETATM   63  O   UNK N   1       0.647  -8.383  -0.505  0.00  0.00    -0.398 OA
HETATM   64  H   UNK N   1       0.001  -8.651  -1.177  0.00  0.00     0.209 HD
ENDBRANCH  62  63
ENDBRANCH  59  62
ENDBRANCH  58  59
ENDBRANCH  56  58
ENDBRANCH  48  54
BRANCH  51  65
HETATM   65  C   UNK N   1       7.338  -3.825  -0.053  0.00  0.00     0.254 C 
HETATM   66  O   UNK N   1       7.938  -3.473  -1.063  0.00  0.00    -0.268 OA
HETATM   67  N   UNK N   1       8.050  -4.460   0.888  0.00  0.00    -0.354 N 
HETATM   68  H   UNK N   1       8.931  -4.114   1.160  0.00  0.00     0.162 HD
BRANCH  67  69
HETATM   69  C   UNK N   1       7.526  -5.632   1.491  0.00  0.00     0.156 C 
BRANCH  69  70
HETATM   70  C   UNK N   1       7.802  -6.722   0.458  0.00  0.00     0.159 C 
BRANCH  70  71
HETATM   71  O   UNK N   1       7.050  -7.860   0.720  0.00  0.00    -0.392 OA
HETATM   72  H   UNK N   1       6.100  -7.803   0.903  0.00  0.00     0.210 HD
ENDBRANCH  70  71
BRANCH  70  73
HETATM   73  C   UNK N   1       9.293  -7.040   0.382  0.00  0.00     0.197 C 
BRANCH  73  74
HETATM   74  O   UNK N   1       9.579  -7.758  -0.780  0.00  0.00    -0.398 OA
HETATM   75  H   UNK N   1       9.247  -8.180  -1.588  0.00  0.00     0.209 HD
ENDBRANCH  73  74
ENDBRANCH  70  73
ENDBRANCH  69  70
ENDBRANCH  67  69
ENDBRANCH  51  65
ENDBRANCH  41  45
ENDBRANCH  40  41
ENDBRANCH   1  40
TORSDOF 31
